20

 O    0.1819203955    1.1901440231   -0.5094735532
 C   -0.0012431586    0.0661662839    0.3353993712
 C   -1.4092701529   -0.4812663005    0.2104902440
 C   -2.5100120551    0.4098224023    0.7641473261
 C   -3.8608809194   -0.2478684317    0.8205494674
 C   -4.0508457799   -1.5647358114    0.7467898926
 C   -2.9342238376   -2.5622359992    0.5923909064
 C   -1.6327281228   -1.9465128808    0.1144218158
 N   -1.6184854697   -1.1209823707   -1.1112302004
 H   -0.0436129082    0.8811192322   -1.3959170736
 H    0.7206374383   -0.7304995616    0.1008751396
 H    0.1956270826    0.4108403730    1.3565859979
 H   -2.2224182458    0.7345805958    1.7756778015
 H   -2.5533080872    1.3339909361    0.1731571846
 H   -4.7162053122    0.4114635820    0.9452485542
 H   -5.0583048376   -1.9678292630    0.8099410454
 H   -2.7537821507   -3.0660076067    1.5537206673
 H   -3.2366266228   -3.3621406445   -0.0983099807
 H   -0.7686584376   -2.6039942476    0.1945948941
 H   -2.5800665581   -0.9652209808   -1.4102227401