19

 C    0.0564731368   -1.1638040752   -0.0589802118
 C    0.0331653503    0.0390997992   -0.0267803402
 C    0.0158775050    1.4756315297    0.0218248238
 C   -0.4134197987    2.2584531771    1.3043255571
 C    0.4070431067    3.3928562516    0.6822633992
 C   -0.0248704218    3.5906753436   -0.8386004628
 C    1.4200357899    3.1996594097   -1.2497068947
 C    1.3656013422    2.3518337833    0.0252685240
 C   -0.7716204501    2.2608485302   -1.0631195469
 H    0.0747233500   -2.2248095107   -0.0877459369
 H   -1.4868321084    2.3798360944    1.4800849264
 H    0.0709767341    1.8666117060    2.2025792743
 H    0.7593071649    4.2646746895    1.2308664789
 H   -0.4957881670    4.5077292327   -1.1909983454
 H    1.5671167456    2.7193879452   -2.2224724421
 H    2.1295283915    4.0246797020   -1.1331503771
 H    2.2278879219    1.9153583779    0.5266849629
 H   -0.6350956562    1.8652508611   -2.0726662905
 H   -1.8410449367    2.2933375926   -0.8394179284