19

 C   -0.3160322920    1.4110866566    0.1048604687
 C    0.0222103914   -0.0497241393    0.0184537344
 O   -0.3379748148   -0.8671357129    1.1540699651
 C    1.0452864314   -0.7425694030    0.8112009826
 C    1.5495928898   -1.9006877814   -0.0203523788
 O    0.5963168694   -2.0534085998   -1.0694967327
 C   -0.0845748144   -0.8317245689   -1.2622738347
 C   -1.2833665809   -0.8818212180   -2.1497860582
 C   -0.0190321187   -0.1856726836   -2.6244709017
 H    0.3210086684    2.0068048090   -0.5552862696
 H   -1.3596294563    1.5890820803   -0.1774618756
 H   -0.1819849266    1.7609461868    1.1307376999
 H    1.6885798758   -0.2489643998    1.5355538145
 H    2.5534823379   -1.6682441710   -0.4111537649
 H    1.5959151501   -2.8471039111    0.5277535200
 H   -1.5199463419   -1.8462644511   -2.5841682657
 H   -2.1445765706   -0.2752357861   -1.8911993681
 H   -0.0224248438    0.8956849331   -2.7090110973
 H    0.5818415656   -0.7013258398   -3.3648539177