16

 C   -0.2990102122    1.4938288308   -0.0940226076
 C    0.1008371915    0.0357437608   -0.0681373103
 O    1.3377963349   -0.2181491464   -0.7698688526
 C    1.9679030945   -0.7839793614    0.3870908644
 C    0.6928260821   -0.5722007423    1.2552649688
 C    0.8129209514    0.2806260711    2.4103320534
 C    0.9216479023    0.9978405826    3.3782244462
 C    1.0444117935    1.8062175260    4.4707728108
 N    1.1485753140    2.4949261214    5.4008466156
 H    0.4803937995    2.1269006279    0.3379262122
 H   -0.4647714905    1.8055334009   -1.1295901450
 H   -1.2271498457    1.6493581425    0.4654903543
 H   -0.7046456943   -0.5919542315   -0.4704451337
 H    2.2467339206   -1.8339492420    0.2430258346
 H    2.8458496489   -0.2128464274    0.7068176559
 H    0.2069197394   -1.5089725728    1.5398706728