19

 C   -0.1051057172    1.5938779952    0.0191689555
 C    0.0253161208    0.0586220747    0.0136120906
 C    0.7398227914   -0.4909429078    1.2288378657
 C    2.0796817643   -0.8798826496    1.1612238610
 C    2.7628482367   -1.3592031322    2.2746151931
 C    2.0947504816   -1.4593344791    3.4927688539
 C    0.7600347556   -1.0851622424    3.5896310509
 C    0.0867326732   -0.6025944849    2.4678754898
 O   -1.2227551196   -0.2511541816    2.6428246500
 H    0.8836720148    2.0613432390    0.0379633451
 H   -0.6350090984    1.9471946368   -0.8710360328
 H   -0.6484460009    1.9491012059    0.9010452416
 H   -0.9732471630   -0.3942643948   -0.0851728665
 H    0.5678575086   -0.2529613032   -0.8848077137
 H    2.5931246645   -0.8032702149    0.2066268016
 H    3.8028084854   -1.6541510365    2.1906410596
 H    2.6103889928   -1.8327428092    4.3713880884
 H    0.2170777343   -1.1586843803    4.5251691379
 H   -1.6003934449    0.0066933649    1.7967298185