21

 C    0.1615977401    1.4896999130   -0.1514010749
 C   -0.0441575661   -0.0186410547    0.0374750851
 C   -1.5247608923   -0.4943430074    0.0490234633
 C   -2.2753798664    0.0048044580    1.3034340582
 O   -1.6335307824   -0.3427646623    2.5108855963
 C   -2.2899172583   -0.0437806672   -1.2196411113
 O   -1.6641053098   -0.4327325249   -2.4313647093
 C   -1.4796942627   -2.0153888123    0.0474600859
 O   -1.6737387446   -2.7139194725    1.0175594503
 H    1.2291217356    1.7264379740   -0.1169204178
 H   -0.2204364682    1.8539035233   -1.1117503517
 H   -0.3276656912    2.0657650237    0.6387484257
 H    0.4998673933   -0.5626486365   -0.7451572082
 H    0.3956224966   -0.3212420071    0.9920055205
 H   -2.3413506517    1.0981020184    1.2846818910
 H   -3.3076348080   -0.3794936416    1.2728850895
 H   -1.6338669933   -1.3099521931    2.5291970540
 H   -3.2813891663   -0.5097533861   -1.2376670584
 H   -2.4512925021    1.0428834383   -1.1788086663
 H   -0.8751557072    0.1048626586   -2.5496469390
 H   -1.2370242947   -2.4696231515   -0.9351928328