21

 C   -0.3431637043    1.4829501341    0.0479835729
 C    0.0466168338   -0.0026790512   -0.0128795052
 C    0.7304755305   -0.3343546413   -1.3731043069
 C    2.2530021446   -0.2974141555   -1.2354418348
 O    2.6502779576    0.6796935824   -0.2276891153
 C    2.4324040298   -0.3456043390    0.7890779443
 C    0.9572471018   -0.3821603228    1.1929559696
 C    2.7468685784   -1.4097810443   -0.2757455106
 O    2.0513365456   -2.6246050491   -0.1648088111
 H    0.5462681208    2.1149321330   -0.0196979289
 H   -1.0159249940    1.7462531469   -0.7759072898
 H   -0.8589232569    1.7150067591    0.9865251857
 H   -0.8748892396   -0.5898639727    0.0572481344
 H    0.4466567253   -1.3353128259   -1.7168599492
 H    0.3992860087    0.3770831020   -2.1362373058
 H    2.7782091855   -0.1420323801   -2.1824212980
 H    3.1151904698   -0.2356655548    1.6357294651
 H    0.7796286923    0.3115071252    2.0210503856
 H    0.7283817736   -1.3881789084    1.5595619515
 H    3.8281819884   -1.5589817305   -0.3718675288
 H    2.4195752183   -3.2515511168   -0.7940308447