15

 O    0.0272337803    1.4049741521   -0.0589814236
 C   -0.0441738458    0.0266071057   -0.0158609024
 C   -0.4360273361   -0.7962017564   -1.2187003439
 C   -1.3077283308   -0.7971673306    0.0197900728
 C   -1.0718030519   -1.9382238044    1.0073951164
 N    0.3439942388   -1.8074507242    1.3448766360
 C    0.9109903423   -0.6335894443    0.9420128094
 O    1.9702453609   -0.1515951714    1.2942789086
 H    0.9069660997    1.6178167187    0.2885570766
 H   -0.8095739397   -0.2179596028   -2.0568831585
 H    0.1294779260   -1.6852990596   -1.4827192563
 H   -2.2890601807   -0.3432271831   -0.0276369696
 H   -1.7015880337   -1.8259110421    1.8995898706
 H   -1.2827169641   -2.9191544813    0.5643935696
 H    0.7994872348   -2.3875467864    2.0310977544