12

 C   -0.0235517961    1.5081283326   -0.0420941239
 C   -0.0275158200    0.0118974046    0.0813368305
 O   -0.0495334889   -0.6238850090    1.0989256793
 N   -0.0015377232   -0.6968078129   -1.1660953972
 C    0.0022931630   -2.0375632102   -1.3787638623
 N    0.0292281239   -2.2647500529   -2.6643898438
 N    0.0426457350   -1.0250450947   -3.2592140228
 N    0.0249294984   -0.0892547943   -2.3853668274
 H    0.8671698012    1.8425739726   -0.5809962115
 H   -0.8868495072    1.8442299763   -0.6228600612
 H   -0.0468054182    1.9351841860    0.9595826423
 H   -0.0150089977   -2.7635486080   -0.5840100919