21

 C   -0.0496592300    1.5407358684    0.1005251683
 C    1.4381233803    1.9427306250   -0.1234324989
 C    2.2024288874    0.6298797698   -0.0849212720
 C    3.5228473978    0.4125865744   -0.0971687187
 C    4.0964311285   -0.9826445089   -0.0169885204
 C    3.0933135819   -1.9912262698    0.5707180990
 C    1.7094902604   -1.8756885399   -0.0954115295
 C    1.2210429372   -0.4573380110   -0.0248121717
 C   -0.0234849458    0.0307259461    0.0774902439
 H   -0.4333614672    1.9166899915    1.0586605933
 H   -0.7123066151    1.9540332696   -0.6698591116
 H    1.5642887013    2.4342606134   -1.0944902164
 H    1.7954560793    2.6485894067    0.6321333919
 H    4.2212585995    1.2441023224   -0.1585168175
 H    4.4180004551   -1.3159227190   -1.0164445414
 H    5.0088047060   -0.9750270501    0.5923214296
 H    3.4777954428   -3.0113632282    0.4672342419
 H    2.9859622944   -1.7967932489    1.6448691289
 H    1.7986220266   -2.1724744653   -1.1507357363
 H    0.9928127974   -2.5656135927    0.3624035073
 H   -0.9250241078   -0.5687182935    0.1500471403