21

 C    1.7177166748   -4.0321885944    1.5371324534
 C    1.0578450808   -2.8453422630    0.8672800579
 N    0.3563540943   -1.7831183707    1.5954319305
 C    0.2557516947   -1.7967901634    3.0467613131
 C    1.6070945678   -1.4490136170    0.9168105393
 C    2.8809548531   -1.1154995656    1.6701620068
 C    1.3822124180   -0.5714679342   -0.3218217565
 C    1.2736202084    0.8488782891    0.0135188670
 N    1.2009191356    1.9656429014    0.3023451463
 H    2.2971815169   -3.7692605114    2.4230666159
 H    0.9623157849   -4.7663215167    1.8379349085
 H    2.3940376689   -4.5276480304    0.8325778798
 H    0.5355159301   -3.1293405523   -0.0485305823
 H    1.1222596618   -2.2059130892    3.5840399632
 H    0.0957196320   -0.7719714629    3.3948552166
 H   -0.6222028350   -2.3866366069    3.3283770660
 H    3.7513745692   -1.2461556442    1.0176795366
 H    2.8688965451   -0.0711790100    1.9992213080
 H    3.0314132537   -1.7415076757    2.5493780183
 H    2.2051850408   -0.6987581624   -1.0358101513
 H    0.4587953142   -0.8815651103   -0.8189042868