16

 C    0.0476401814    1.5406210150    0.0429766654
 C    0.0420954835    0.0473349833    0.0098340831
 C   -0.1329044226   -0.7676126713   -1.0253087795
 C   -0.0872607363   -2.2097512060   -0.5713814722
 O    0.2338598735   -2.1398857910    0.8234618012
 C    0.2339951526   -0.7828154015    1.2537413597
 C   -1.3534927361   -2.9186382741   -0.7995550460
 C   -2.3868314497   -3.4968914127   -1.0049447507
 H    1.0011384247    1.9248991044    0.4259272337
 H   -0.1171343448    1.9653519596   -0.9501136846
 H   -0.7345972000    1.9217360310    0.7112533946
 H   -0.3159867631   -0.4902964330   -2.0550527496
 H    0.7149680977   -2.7711411573   -1.0755998511
 H    1.1867277385   -0.5656879107    1.7602440290
 H   -0.5704525786   -0.6089673191    1.9876153169
 H   -3.2998091505   -4.0106358767   -1.1793550900