17

 N    0.2034965063    1.4251635860    0.0425954290
 C    0.0285125476    0.0239721451   -0.0183971324
 C   -1.0800932220   -0.8010548143   -0.0481474828
 C   -0.6334174783   -2.1619915963   -0.0521149779
 C    0.7384177471   -2.1306220811   -0.0361295873
 C    1.9859079027   -2.9731675831   -0.0200085400
 C    3.0748342716   -1.9101533129    0.0405063274
 C    2.5225161335   -0.6905638549    0.0506369456
 N    1.1264678565   -0.8030867366   -0.0023484457
 H    0.2546751063    1.8466179067   -0.8809937522
 H   -0.5706847187    1.8607491747    0.5295892320
 H   -2.1057122109   -0.4630247597   -0.0716805463
 H   -1.2593978902   -3.0410024431   -0.0713311734
 H    2.0326826216   -3.6472593038    0.8455682417
 H    2.0876824742   -3.6095312848   -0.9095718861
 H    4.1326721559   -2.1235064874    0.0744626504
 H    2.9774047569    0.2871523455    0.0975552580