22

 C    1.6050612628   -0.6362512606   -0.9209721698
 C    0.3568098077   -0.3073860614   -0.1281754724
 C   -0.1412266065   -1.2339479882    0.9342712690
 N    0.3635836749    0.0859385560    1.2779855421
 C    1.5646387606    0.3022691992    2.0591700622
 C    2.1382086808    1.6756873105    1.7171226446
 C    1.3615461737    0.1054922630    3.5808521277
 O    2.5902821792   -0.6417195858    3.6886470443
 C    2.6860830050   -0.7716096837    2.2591466252
 H    2.3212395980   -1.2310319994   -0.3491374364
 H    1.3334842276   -1.2131901142   -1.8117611305
 H    2.1123186613    0.2718853420   -1.2634986476
 H   -0.3902480705    0.2342145602   -0.7084107935
 H   -1.2061395615   -1.3887180924    1.0915611947
 H    0.4716140184   -2.1089551155    1.1442741074
 H    1.3650132524    2.4421807915    1.8221029502
 H    2.9694481264    1.9170799600    2.3858885729
 H    2.5097826066    1.7038099108    0.6880341369
 H    1.3631215243    1.0057229518    4.2058115871
 H    0.4840410582   -0.5081354909    3.8245618586
 H    2.4310418649   -1.7875751306    1.9314211391
 H    3.6833851555   -0.5154114624    1.8821869781