18

 C    0.0617081293    0.5691552184    1.0828417479
 C    0.4095502843   -0.7049451543    0.3036570262
 C    0.5939511438   -0.4494641469   -1.1778680015
 C    0.0548289874   -1.4008042834   -2.1755635737
 O   -0.5978686899   -0.1631140330   -1.9313102996
 C    1.8143248089    0.3597864224   -1.5749251503
 C    1.7300183838    1.1791500369   -2.8460346797
 O    2.7983149836    0.3498891396   -0.8690312543
 H    0.8726444203    1.3007222136    1.0226991975
 H   -0.8494827278    1.0288397579    0.6879057261
 H   -0.1041093162    0.3414516582    2.1395806787
 H    1.3377536230   -1.1384925755    0.6878259579
 H   -0.3837311977   -1.4488637528    0.4303783803
 H    0.5234018476   -1.5045928432   -3.1531528785
 H   -0.4596938067   -2.2891833623   -1.8118746305
 H    0.9983012975    1.9825544648   -2.7088812532
 H    2.7106023777    1.6039080795   -3.0626548829
 H    1.3779235512    0.5872710201   -3.6954348104