17

 N    0.0816040044    1.3897310963   -0.2355464914
 C   -0.0226622618    0.0081880853   -0.0586405112
 C   -1.0894133331   -0.8606040513   -0.1747624903
 C   -0.5220863981   -2.1429371335    0.0451679413
 N    0.7817367555   -2.0880588999    0.2805707313
 N    1.0649824786   -0.7514566800    0.2193780932
 N   -1.2356994516   -3.3490817409    0.0997763146
 C   -1.5701710016   -4.0191009569   -1.1614318095
 C   -0.5328615775   -4.5762525250   -0.2489428275
 H    0.6043423884    1.8488981224    0.5012665434
 H   -0.8277734957    1.8244984830   -0.3153803971
 H   -2.1228312396   -0.6148885988   -0.3542549705
 H    2.0221699413   -0.4521165695    0.2786373852
 H   -2.5627269198   -4.4579019627   -1.2060872350
 H   -1.2260769388   -3.5539087241   -2.0820523831
 H    0.5058116754   -4.4821753361   -0.5502361363
 H   -0.7616234260   -5.4327676683    0.3782205626