22

 C   -0.0661447540    1.5415752909    0.1758766770
 N    0.0209053951    0.1077331926   -0.0585756024
 C   -1.2393468371   -0.4452982336   -0.5576946896
 C   -1.0506453127   -1.7890384667   -1.2838759485
 C   -1.1150424807   -3.0585015826   -0.4139337660
 C   -0.4653065503   -2.9275807970    0.9841299461
 C    0.7899709594   -2.0687756447    0.9663813551
 O    1.8985711273   -2.5434757469    0.8870081997
 C    0.5858190070   -0.5538153260    1.1154384764
 H    0.9201081537    1.9312576453    0.4466922813
 H   -0.3917665842    2.0475302347   -0.7380369772
 H   -0.7693174476    1.8125899461    0.9874046104
 H   -2.0094620222   -0.5259289373    0.2362607230
 H   -1.6258688172    0.2809690846   -1.2792630195
 H   -1.8077543144   -1.8755643405   -2.0707676978
 H   -0.0811781870   -1.7338764685   -1.7915769292
 H   -2.1581622211   -3.3621645010   -0.2729259790
 H   -0.6268207971   -3.8742134266   -0.9565893401
 H   -1.1839996706   -2.4783539710    1.6777378629
 H   -0.1975663435   -3.9164290888    1.3644679011
 H    1.5701702319   -0.1205278742    1.3114654652
 H   -0.0430996046   -0.3919971989    2.0177198410