16

 O    0.0296527617    1.4248716213    0.1994533287
 C    0.0411700019    0.0360721043    0.0744466026
 C   -1.3117141988   -0.6743514275    0.0099275094
 N   -1.9425345812   -0.1509592153   -1.2215845239
 C   -0.9828358360   -1.3001048139   -1.3154618871
 C   -1.3647115982   -2.5556079630   -1.8565963595
 C   -1.6610357958   -3.6223927893   -2.3286044016
 C    0.3899489580   -0.5973738493   -1.3535871507
 O    0.6212833731    0.2656946917   -2.4207144862
 H   -0.6511679619    1.7510801124   -0.4017902089
 H    0.6966714766   -0.3588843013    0.8533430101
 H   -1.9146670713   -1.0790604243    0.8135079836
 H   -2.8850431419   -0.5300045277   -1.2905213425
 H   -1.9209404593   -4.5654458738   -2.7419022434
 H    1.2279364689   -1.2944486189   -1.2988251706
 H   -0.2053392057    0.7416206546   -2.5725314400