21

 C    0.0214606930    1.5211470777    0.3932588485
 C   -0.0301508713    0.0683798378   -0.0976306241
 C   -1.4327109640   -0.5041066381   -0.1406889879
 C   -2.0156083718   -1.0994940868    1.1171597392
 C   -1.6936777711   -2.0026638265   -0.0531855416
 C   -2.8368718757   -2.3183532895   -0.9890098426
 O   -4.0841378269   -1.6942549989   -0.6425675394
 C   -3.2754242027   -1.0817154078   -1.6562303753
 C   -2.4131814440    0.0782061316   -1.1771897992
 H    1.0510462697    1.8910790415    0.4237563680
 H   -0.5496388198    2.1849914226   -0.2644199553
 H   -0.4001837639    1.6096355722    1.3998620726
 H    0.4211583562    0.0045461779   -1.0975251246
 H    0.5882484579   -0.5579404455    0.5574298959
 H   -1.3594139638   -1.1586196315    1.9801584644
 H   -3.0628146634   -0.9426102219    1.3438088710
 H   -0.8816302896   -2.7169568349    0.0227142719
 H   -2.9221754502   -3.3048915769   -1.4359477313
 H   -3.7272145653   -1.0531731191   -2.6456660890
 H   -3.0235067354    0.8971121365   -0.7814327962
 H   -1.8515632378    0.4763232896   -2.0315254153