19

 C   -0.1678366428    1.5001680413    0.0075833334
 C   -0.0383016778   -0.0032356690    0.0600010994
 C    1.3094906281   -0.7096826684   -0.1873718182
 C    2.5099914838    0.0499706468   -0.3496728039
 C    3.5277199435    0.6941427724   -0.3986608921
 C    0.6579881130   -0.6976689501    1.1947089967
 O    1.2712536611    0.0633703798    2.1992190723
 C    0.1060259995   -1.9775462860    1.7796297053
 O    1.1093987586   -2.7311806879    2.4273640410
 H    0.6681361187    1.9912833525    0.5086035808
 H   -0.2024526949    1.8563942369   -1.0267067942
 H   -1.0886551397    1.8177298316    0.5073084592
 H   -0.8813667957   -0.5457574580   -0.3616581122
 H    1.2765118601   -1.6493979822   -0.7302982781
 H    4.4230676928    1.2577776899   -0.4918999576
 H    2.1302419289    0.3633273028    1.8701133897
 H   -0.7135133280   -1.7204472139    2.4714631018
 H   -0.3134411342   -2.6055460800    0.9873175062
 H    1.5601674547   -2.1087671985    3.0111044007