21

 C    0.1392621330    1.5290348514   -0.0071930539
 C   -0.0003685431    0.0348155939    0.0583052198
 C    1.1380788352   -0.9132002799   -0.2273416337
 C    0.4626710993   -0.9810612505    1.1161555908
 C    1.2046652880   -0.7720588448    2.4175291480
 C    1.8713310723   -1.9843053457    2.8901330933
 C    2.4038817532   -2.9959792375    3.2613005677
 C   -0.8513493744   -1.7584587414    0.9762684101
 C   -1.3246166835   -0.7281536903   -0.1008842163
 H    1.1268349761    1.8563407117    0.3351818632
 H    0.0148559213    1.8919314328   -1.0350837925
 H   -0.6137184236    2.0309310319    0.6118653362
 H    1.0265730182   -1.7241065940   -0.9451895375
 H    2.1259202609   -0.4607508422   -0.2245848331
 H    1.9475004918    0.0269398041    2.2941068936
 H    0.5075350910   -0.4211903774    3.1912533837
 H    2.8799602490   -3.8846397278    3.5939727313
 H   -0.7587823778   -2.8025189123    0.6607495239
 H   -1.4659093008   -1.7237104716    1.8798670294
 H   -2.1899007320   -0.1492735732    0.2332213404
 H   -1.5350614841   -1.1190293970   -1.1023015944