22

 C   -0.1681564718    1.6193433858    0.1647085359
 C   -0.1039039423    0.1035788347    0.1869929330
 C   -1.3723537770   -0.5196197413   -0.3880331602
 O   -1.4695425046   -0.2412764835   -1.7752398424
 N    1.0564077783   -0.6760784981   -0.3442467712
 C    2.3160172223    0.0688063088   -0.0083645381
 C    2.0101876355    0.0433888263    1.5072301453
 C    0.7069282678   -0.6889694188    1.1494893681
 C    0.2689159263   -1.9015416066    1.9245439967
 H    0.7617709962    2.1103070300    0.4509194875
 H   -0.4458966030    1.9546231336   -0.8386944473
 H   -0.9464051492    1.9611559845    0.8561338112
 H   -1.3871040827   -1.6015211485   -0.2118882182
 H   -2.2627806335   -0.0862725137    0.0802028014
 H   -0.6476973387   -0.5786987461   -2.1544871407
 H    3.1790715090   -0.5391171620   -0.2877798405
 H    2.4068926562    1.0439549592   -0.4958508235
 H    2.6993796102   -0.5926893358    2.0669957049
 H    1.9144451907    0.9961483249    2.0351904243
 H   -0.0371218474   -1.6036123424    2.9350665477
 H   -0.5683123186   -2.4276702111    1.4636575426
 H    1.0970510861   -2.6115301599    2.0267023234