25

 C    0.1562959747    1.6335802763   -0.3750989309
 C    0.2663935432    0.1349099735   -0.1636011959
 C    1.4994899454   -0.6994114158   -0.3781278800
 C    2.7409683619    0.0070260823    0.1792900256
 C    2.1164268218   -0.0411165390    1.6210109191
 C    2.8639509784   -1.0784568753    2.4688067820
 C    1.9953785841    1.2605891356    2.4178653465
 C    0.8243262100   -0.6512626880    1.0058588433
 C   -0.0315276262   -1.6786506434    1.7012111598
 H    1.1007390597    2.1607352916   -0.2288232622
 H   -0.1683053375    1.8373959614   -1.4019478669
 H   -0.5838692285    2.0814172717    0.2975633675
 H   -0.6183108225   -0.3786807929   -0.5406397347
 H    1.5252106352   -1.5133684805   -1.0947486372
 H    3.6542186289   -0.5881999386    0.1044014561
 H    2.9512877567    1.0004929812   -0.2304098742
 H    3.8714416686   -0.7170357317    2.7040033639
 H    2.3507685703   -1.2707450674    3.4177306271
 H    2.9647076113   -2.0323417821    1.9409278669
 H    1.4930136820    2.0539848236    1.8631499197
 H    1.4294666751    1.0942409394    3.3423252139
 H    2.9865624596    1.6307047805    2.7066310522
 H   -0.6262186391   -1.2249453705    2.5044070882
 H   -0.7345738077   -2.1401049263    0.9998140891
 H    0.5632921945   -2.4821414855    2.1477163707