19

 O    0.1587011436    0.2537258630    0.7245706254
 C    0.3030950314    1.4385195800    0.6855487967
 O    0.8359613452    2.0737295842   -0.3741187781
 C    0.9998624453    3.4960841864   -0.3072840528
 C    2.4871753629    3.8708896468   -0.3064087933
 C    2.6925802786    5.4125012073   -0.2271560955
 C    3.1764391839    5.7118926120    1.2183471843
 C    3.5657106475    4.3522067933    1.7443276330
 C    3.2096562465    3.3657044044    0.9239321180
 H    0.0151427077    2.1319756723    1.5000871270
 H    0.4982746554    3.9115584164   -1.1871340637
 H    0.5042974272    3.8885903177    0.5908532106
 H    2.9199433854    3.4567377604   -1.2247006300
 H    3.4581820648    5.7142438467   -0.9462854527
 H    1.7837238370    5.9651947038   -0.4851809085
 H    4.0112085405    6.4218019747    1.2334520087
 H    2.3887219240    6.1618866319    1.8381388662
 H    4.0649698820    4.2193702302    2.6981373547
 H    3.3780719913    2.3095811087    1.1005022298