18

 C    0.0009873864    1.5614174493    0.0309001552
 C    0.0441443447    0.0588576787    0.0823218424
 C   -1.2493985304   -0.7972070445    0.2184101219
 C   -0.3597597673   -1.8659428994    0.8450330717
 C    0.9811067650   -1.8420949396    0.1009036579
 C    0.7000676452   -0.8556090476    1.2068927976
 C    0.9048224711   -0.7439502915   -0.9617561533
 C    0.3365553830   -1.0241399844   -2.2770236457
 N   -0.1279915498   -1.2413770001   -3.3137326866
 H    1.0071666652    1.9941586395    0.0423682159
 H   -0.5009543742    1.9017478408   -0.8822269667
 H   -0.5496392508    1.9666858728    0.8861419958
 H   -1.9239318158   -0.3597701081    0.9598508181
 H   -1.8030727923   -1.0285144593   -0.6974706025
 H   -0.6558448173   -2.7428259266    1.4053653836
 H    1.6556322837   -2.6872817516    0.1122326087
 H    1.2273207713   -0.6345901565    2.1229935825
 H    1.8812795020   -0.2661399820   -1.0858193966