18

 C   -0.8856114812    1.1632943752   -0.2461639995
 C   -0.0057714331   -0.0665882791   -0.0736007378
 N    1.3069675974   -0.0362093977   -0.7817213698
 C    2.0957187518   -0.4060145139    0.4237210594
 C    2.6260338819   -1.8372550877    0.5182571296
 C    3.1734636209    0.6201708359    0.7414790649
 O    4.1055824904    0.4188932947    1.4749556683
 C    0.7757356108   -0.2047773302    1.2415439849
 O    0.5062707102   -0.1707183422    2.4005470455
 H   -0.3153497445    2.0754704253   -0.0512039169
 H   -1.2746972426    1.2157325236   -1.2674253324
 H   -1.7328493826    1.1215870400    0.4450830411
 H   -0.5916946883   -0.9795829546   -0.2601711858
 H    1.3892362370   -0.6991740229   -1.5441992315
 H    3.3475763020   -2.0252764828   -0.2838992782
 H    3.1405716617   -1.9723139548    1.4717210970
 H    1.8181888570   -2.5705970233    0.4402060157
 H    3.0071072712    1.5960185545    0.2363330756