17

 C   -0.1259841228    1.5544471720   -0.1190221018
 C    0.0767660794    0.0225738542   -0.1506401792
 C    1.0490821449   -0.3518048574    0.9647876455
 O    2.2424629238   -0.4029653765    0.8287086742
 N   -1.1720769838   -0.6687306707    0.0910883223
 C   -1.9339093425   -0.9729620742   -0.8935459093
 N   -1.8025694203   -0.7226112260   -2.2276440575
 C   -3.1948693474   -1.7089669568   -0.5393067247
 O   -3.9742569405   -2.1117676163   -1.3681295765
 H    0.8303353711    2.0646029899   -0.2617185926
 H   -0.8148893074    1.8595934327   -0.9111994505
 H   -0.5539236091    1.8599798437    0.8401131040
 H    0.5658669246   -0.2531529156   -1.0986616139
 H    0.5480029203   -0.5535030570    1.9373350211
 H   -0.9167656977   -0.4529577995   -2.6186769535
 H   -2.4502040872   -1.2139226716   -2.8263144537
 H   -3.3246751355   -1.8523170710    0.5489625761