19

 C    0.1058543483    1.5079986396    0.0044003741
 C   -0.0382405206   -0.0035712182    0.0282200422
 O    0.4834457500   -0.5049098359   -1.2060396887
 C    0.6465964265   -1.8983935125   -1.2898128952
 C   -0.6527044589   -2.6903008203   -1.1994162041
 C    1.5947310261   -2.2588439652   -2.4524647224
 O    2.5762831522   -2.8003719319   -1.5077983929
 C    1.8106565227   -2.4567851855   -0.4257866664
 O    2.0759731723   -2.5813857676    0.7275658355
 H    1.1581967020    1.7932985863   -0.0774829402
 H   -0.4331465498    1.9327621957   -0.8473610101
 H   -0.3017548481    1.9397685080    0.9231875436
 H    0.5134710742   -0.4380158603    0.8711550586
 H   -1.0954977800   -0.2848166975    0.1357037016
 H   -1.3684923039   -2.3142395922   -1.9369487422
 H   -0.4721615980   -3.7516416454   -1.3932550968
 H   -1.0965967940   -2.6061772551   -0.2044234203
 H    1.2567537156   -3.0313223668   -3.1451647319
 H    1.9962249435   -1.3924024551   -2.9787548647