21

 C    2.2063465513   -0.1659882851   -0.9251802068
 C    1.4040587850   -1.1367143677   -0.0844313270
 C    1.9437755037   -1.6812294156    1.2197935895
 C    0.7626302616   -0.7403465435    1.2279534406
 C    0.9121920934    0.6793001438    1.7811132219
 O    2.2482025921    1.1160126188    1.9805046916
 C   -0.6143403475   -1.3424155645    1.5235944870
 C   -0.8617576940   -1.5678270150    2.9460713311
 C   -1.0449955897   -1.7465239735    4.1209395066
 H    2.7762615695    0.5227748383   -0.2986084462
 H    2.9076441783   -0.7052716323   -1.5716610602
 H    1.5525440335    0.4284768159   -1.5739435237
 H    0.8241069088   -1.8471286011   -0.6708662029
 H    1.7739716046   -2.7230608548    1.4714684088
 H    2.9011742201   -1.2922146607    1.5499854228
 H    0.4710124244    1.3979891754    1.0804028986
 H    0.3427048742    0.7470741429    2.7187594036
 H    2.6068366512    0.6178699422    2.7217199290
 H   -1.3978140300   -0.6852292475    1.1199473540
 H   -0.7153037310   -2.2929557060    0.9864162416
 H   -1.2185998695   -1.9113730900    5.1554039201