20

 C   -0.0205102817    1.5471635813    0.0470768168
 C   -0.0730596712    0.0184195458   -0.0152694788
 C    0.7324370440   -0.5482779229   -1.1902224434
 C    0.7372370583   -2.0943694832   -1.2580282816
 C    1.3093909688   -2.5680740179   -2.6131430920
 C    1.2876320783   -4.0212964483   -2.7724362457
 N    1.2649079275   -5.1711999549   -2.8828719617
 C    1.5713988497   -2.6315296994   -0.1049601234
 O    1.1267224545   -2.9995498835    0.9488881379
 H    1.0070775218    1.9043437092    0.1770987781
 H   -0.4141115669    1.9981735707   -0.8706891714
 H   -0.6124362898    1.9271271747    0.8847639128
 H    0.2959453780   -0.4054350342    0.9251197427
 H   -1.1151537554   -0.3128104125   -0.1058551449
 H    0.3242374496   -0.1628345025   -2.1336198434
 H    1.7697820233   -0.1860936147   -1.1407776582
 H   -0.2830312502   -2.4698977233   -1.1329381668
 H    0.7370648500   -2.1177678923   -3.4309870905
 H    2.3440870868   -2.2208107783   -2.7267913432
 H    2.6723087443   -2.6157823938   -0.2930706835