16

 O   -0.8171615456    1.4033917842   -0.1923929240
 C    0.3032254740    1.0159074787    0.0180783226
 C    1.5455717391    1.9010141331    0.1050145124
 O    2.6319469480    1.3851796599    0.3227705448
 N    1.3522684392    3.2172659706   -0.1074454262
 C    0.1943733000    4.1220798207   -0.2839768101
 C    1.1657201385    5.3073821243   -0.1535827924
 C    1.9555571668    5.2061197707    1.1277519345
 C    2.3078695869    4.3037267643   -0.0221169589
 H    0.5604160199   -0.0510903524    0.1788657358
 H   -0.2540775242    4.0230559614   -1.2756796102
 H   -0.5853084986    4.0245185520    0.4752629332
 H    1.1220105179    6.2072003401   -0.7497866733
 H    2.6522118795    6.0203181442    1.3001600674
 H    1.5094413559    4.7879745510    2.0258272729
 H    3.2793897527    4.2360308071   -0.4925211187