23

 C    0.0885089173    1.3571032830    0.1087095229
 O    0.0375777362   -0.0478037694    0.0862230876
 C   -1.2759396162   -0.5489252244   -0.0393199834
 C   -1.1992141417   -2.0710552953   -0.0709249783
 C   -2.5786010399   -2.7705095417   -0.0488727902
 C   -3.4285876870   -2.4615581571   -1.2997071106
 C   -2.4101401045   -4.2157507690    0.1123631089
 C   -2.2586344879   -5.4054804648    0.2235254207
 C   -2.0803559034   -6.8437460066    0.3683213155
 H    1.1379061872    1.6462701833    0.2063720798
 H   -0.3162867092    1.7978045747   -0.8167986633
 H   -0.4750436551    1.7748083859    0.9587749136
 H   -1.8968953688   -0.2138756879    0.8115736300
 H   -1.7453828881   -0.1509471237   -0.9542860448
 H   -0.6422931773   -2.3888385374   -0.9594857257
 H   -0.6192417379   -2.3980834036    0.7976986261
 H   -3.1267722394   -2.3947744107    0.8281565752
 H   -2.9012441534   -2.7712889418   -2.2075342125
 H   -4.3779029919   -3.0019603966   -1.2608391796
 H   -3.6491766610   -1.3929411347   -1.3767619996
 H   -3.0441080587   -7.3618912371    0.4272459564
 H   -1.5307158357   -7.2656002361   -0.4805913084
 H   -1.5191301635   -7.0866567991    1.2775575198