19

 C   -0.4288489949    1.5473965419   -0.0449244397
 C   -0.0176345827    0.0784696971   -0.0374205443
 O    0.7252853417   -0.2753755414   -1.2309512713
 C    2.0226143718   -0.6968038593   -0.8168327650
 C    2.7847255021    0.5025621808   -0.1941599541
 C    2.3251674171    0.2244798651    1.2525076333
 O    2.8496752548   -1.1317094776    1.4202784254
 C    1.7854374791   -1.4964515625    0.5121182345
 C    0.8869176247   -0.3891996510    1.0942123361
 H    0.4321422681    2.2167038041    0.0307010502
 H   -0.9622118248    1.7814453914   -0.9704535222
 H   -1.0991122506    1.7550958131    0.7963465058
 H   -0.9310783503   -0.5338525844   -0.0348009571
 H    2.4997100163   -1.2109031691   -1.6495132733
 H    3.8718056644    0.4125675751   -0.2520633296
 H    2.4678565346    1.4487585773   -0.6343521909
 H    2.6019446535    0.9087882477    2.0537567268
 H    1.5450373045   -2.5574799640    0.4735742391
 H    0.4073596607   -0.6175642443    2.0444905762