17

 C    0.0238842900    1.4869852723   -0.0569764437
 C   -0.0122729884   -0.0036213307   -0.0519854243
 N   -0.0866225938   -0.7283334442   -1.1064756610
 C   -0.0412094220   -2.1138108757   -0.7140449305
 C    1.2300980370   -2.5962496204   -0.0507786486
 C    0.0688553003   -2.1506943645    0.8017127608
 N    0.0450562204   -0.7494824862    1.1550430803
 C    0.0165152186   -0.2869091584    2.4489288120
 O   -0.0176967603    0.8737053118    2.7874811792
 H    0.9466388222    1.8578181354    0.3977454835
 H   -0.0420820918    1.8254533842   -1.0913931316
 H   -0.7967069560    1.9014636042    0.5329575251
 H   -0.6392598259   -2.8028896707   -1.2977906267
 H    1.4207239950   -3.6632995930   -0.0783244626
 H    2.1104183344   -1.9648194808   -0.1082916180
 H   -0.4579379457   -2.8284027969    1.4614369755
 H    0.0300503758   -1.1256347164    3.1709671506