11

 N   -0.0199745414    1.3097985613    0.0057708866
 C    0.0571003497   -0.0415653345    0.0009746488
 O    1.0697657395   -0.7028696077   -0.0093734829
 C   -1.2949413348   -0.7043965556    0.0102088395
 N   -2.4270318222   -0.1023434176    0.0216942537
 O   -3.3795551854   -1.1377951628    0.0263816871
 C   -2.7269592706   -2.3396223216    0.0170311402
 O   -3.2133701822   -3.4158384431    0.0176381373
 O   -1.3719014042   -2.0478463693    0.0065342505
 H    0.8363850621    1.8386916490    0.0006370977
 H   -0.9060838804    1.7879773720    0.0149097414