13

 O    0.0403671393   -0.0585403036    0.0030045534
 C   -0.0239528577    1.1450088070    0.0064057516
 C    1.1923082019    1.9746980931    0.0004355171
 N    2.1776688384    2.5778081201   -0.0045844683
 N   -1.2033761691    1.8681751652    0.0161285593
 C   -1.3481592619    3.2603219162    0.0206119014
 C   -2.6792964193    3.5353866953    0.0301837450
 C   -3.3880412658    2.2823879865    0.0317694284
 C   -2.4679701150    1.2803075785    0.0231251973
 H   -0.4813917634    3.8994873787    0.0164335057
 H   -3.1173026434    4.5214199754    0.0355812643
 H   -4.4592555013    2.1521563318    0.0385928858
 H   -2.5536777528    0.2076981857    0.0210112591