16

 C   -0.0018911335    1.4565726181    0.0968829326
 C    0.0051864066   -0.0492783580    0.1587386598
 O    1.0155175568   -0.7200136402    0.1961946599
 C   -1.3276718188   -0.7410136389    0.1609374809
 N   -2.4462667560   -0.1428221102   -0.0336671752
 C   -3.4751534110   -1.1990585103    0.0303035650
 C   -2.7016168619   -2.5490261256   -0.0152564500
 N   -1.3637657051   -2.1010710492    0.3814184682
 H    1.0165061464    1.8225427179   -0.0364991438
 H   -0.6550053813    1.8007562210   -0.7088769003
 H   -0.4230623410    1.8575268853    1.0253068569
 H   -4.0307634048   -1.0898908425    0.9711370564
 H   -4.1947856705   -1.0881540365   -0.7850658648
 H   -3.1008359984   -3.2951322901    0.6765787681
 H   -2.6995888045   -2.9825580418   -1.0256012412
 H   -0.5363254329   -2.6314270391    0.1528560575