16

 O   -0.6748192435    0.7565937378    0.6210517980
 C    0.1248592887    1.0397698112   -0.2344414273
 C    1.3021440145    1.9614096309   -0.0632578344
 C    1.1548450591    3.3529970839   -0.7948778643
 O    0.9772134627    3.7116586415   -1.9247238285
 N    1.3165023633    4.0010450467    0.3975717447
 C    1.4627305496    2.8025247134    1.2103277199
 C    0.9142778158    2.5985776609    2.5816452315
 C    2.4181216932    2.6239081758    2.3475998230
 H    0.0388095992    0.6284396491   -1.2640606563
 H    2.2128692832    1.4549602619   -0.4006813310
 H    1.3319798847    4.9854909632    0.6214222922
 H    0.4698420171    3.4560159663    3.0768124803
 H    0.4282770949    1.6548769298    2.7929158864
 H    2.9697995049    1.6919230106    2.4154116167
 H    2.9701083126    3.4938482170    2.6886546191