19

 C    0.2307221528    1.4783901146   -0.2616074955
 C   -0.0955144576    0.0379609548    0.1312924264
 O    0.0524515592   -0.8584497984   -0.9823533315
 C    1.2562773799   -1.6169682509   -0.8852254217
 C    1.5691656960   -1.7395724458    0.6118212487
 C    2.8625720559   -1.0805581201    1.1461726069
 O    2.9456745840    0.2185014948    0.5552243337
 C    2.1084789897    0.0520247781    1.7071072081
 C    0.7627457633   -0.5658731443    1.2616212400
 H    1.2745341085    1.5801978728   -0.5627162853
 H   -0.4088941570    1.7862882242   -1.0933251777
 H    0.0429822808    2.1552516325    0.5800498875
 H   -1.1560527772   -0.0156565127    0.4073484726
 H    1.0688460859   -2.5813808598   -1.3668448463
 H    2.0782768555   -1.1150162591   -1.4116790412
 H    1.3603304371   -2.7230957676    1.0341050688
 H    3.7904726298   -1.5430582012    1.4612246639
 H    2.3149926347    0.6902417019    2.5583949046
 H    0.1698143487   -0.8766966039    2.1239067177