21

 C    0.1773643955    1.4782945833   -1.5324133608
 O   -0.1202851329    0.1045312660   -1.4235660165
 C    0.9497702763   -0.6983256615   -0.9604141569
 C    1.2192118302   -0.5436412710    0.5391963981
 C    0.6709998158   -2.1721410810   -1.3131123260
 O    1.3689493275   -3.0381754055   -0.8233489106
 C   -0.4207188145   -2.4827269846   -2.2718165781
 C   -0.2015738930   -3.6782542122   -3.1935186357
 C   -1.1583463462   -3.8008948199   -2.0623548567
 H    0.3488220574    1.9505376511   -0.5551761895
 H    1.0654625373    1.6497875364   -2.1606792382
 H   -0.6850798793    1.9570668444   -2.0025541188
 H    1.8689813366   -0.4377825295   -1.5172197064
 H    1.6001761518    0.4528251552    0.7765292536
 H    0.2968841761   -0.7090900108    1.1042337174
 H    1.9575781220   -1.2856991729    0.8475142727
 H   -0.9832026520   -1.6430630543   -2.6507490130
 H   -0.5853261361   -3.5923846016   -4.2036100487
 H    0.7555970661   -4.1767748862   -3.0926831489
 H   -0.8426423710   -4.3813806337   -1.2031135706
 H   -2.2226616875   -3.8018639417   -2.2671223963