12

 C   -0.0051955091    1.5086822402    0.0330876010
 C    0.0131657995   -0.0103781921    0.0198864348
 O    0.6975894438   -0.4634413956    1.1686897860
 C    0.7668849139   -1.8650818258    1.2460266920
 H    1.0144547599    1.9042379883    0.0299601808
 H   -0.5299086599    1.8918405908   -0.8472691148
 H   -0.5126376519    1.8780584257    0.9287542375
 H   -1.0159950694   -0.4099872881    0.0071428235
 H    0.5109314318   -0.3836943515   -0.8921939464
 H   -0.2341584086   -2.3245148878    1.2897777955
 H    1.3012927589   -2.2985366276    0.3848609518
 H    1.3099028713   -2.1181199764    2.1601320584