20

 C   -0.0224510100    1.5161400602    0.1164382773
 C   -0.0323699147   -0.0089907066   -0.0257736774
 C    0.7454962721   -0.5197755029   -1.2417357381
 C    2.2723418402   -0.2240977807   -1.2151847795
 C    2.8801258079   -1.4148470747   -1.9032647326
 C    1.9983221116   -2.4148860493   -2.0375061626
 C    0.6439764949   -2.0547312115   -1.4526965379
 C    2.2743033442   -3.6876699324   -2.6066751865
 N    2.4642904818   -4.7339333853   -3.0670899289
 H    0.9946943444    1.9028794007    0.2391765612
 H   -0.4555117373    1.9979539917   -0.7673216267
 H   -0.6036999247    1.8346784132    0.9868707500
 H    0.3832081826   -0.4683437100    0.8816022706
 H   -1.0699164781   -0.3595748030   -0.0957953717
 H    0.3376238885   -0.0390139043   -2.1400988480
 H    2.5336161902    0.7215708920   -1.7015625166
 H    2.6520717607   -0.1528834604   -0.1842198381
 H    3.9167284248   -1.4629376493   -2.2155141878
 H    0.4915064114   -2.5862323386   -0.5032372933
 H   -0.1864103706   -2.3374918885   -2.1065629235