20

 C    0.0149261048    1.4830275556    0.0677935448
 N   -0.0070199810    0.0280004897   -0.0261778643
 C   -1.3701669629   -0.4726871211   -0.2405545560
 C   -1.4224846981   -1.8439019997   -0.8762526465
 C   -0.9445427578   -2.9534730102   -0.3193945682
 C   -0.2659501634   -3.0016501694    1.0320820140
 C    0.9330965013   -2.0579817641    1.0901674213
 O    2.0635837398   -2.4765527293    1.1634883353
 C    0.6582512730   -0.5504283702    1.1398665153
 H    1.0487401715    1.8290781730    0.1587408111
 H   -0.4089781506    1.9176942263   -0.8422220049
 H   -0.5522173328    1.8767426614    0.9335193113
 H   -1.9461200095   -0.4731871593    0.7090772680
 H   -1.8752401098    0.2376381586   -0.8997679326
 H   -1.8789948222   -1.9044469105   -1.8600762558
 H   -1.0035338948   -3.8927019827   -0.8614144155
 H   -0.9765081566   -2.7110231868    1.8190368755
 H    0.0958717925   -4.0064555173    1.2549197991
 H    1.6337250884   -0.0727540815    1.2551648385
 H    0.0789982084   -0.3595569025    2.0714965096