17

 C    0.1205317125    1.4549542146   -0.0147070287
 C   -0.0549257134   -0.0203957624   -0.0163025812
 C   -1.1549483898   -0.8270426171   -0.1133327400
 C   -0.6886730932   -2.1735174637   -0.0551069236
 C   -1.5361477512   -3.4058854742   -0.1228662338
 C    0.6804339191   -2.0856986850    0.0748798405
 O    1.0621827115   -0.7681373319    0.0980764444
 C    1.7097497924   -3.0984358533    0.1831884900
 O    2.8994574451   -2.8890690227    0.2950702531
 H    0.7617762545    1.7757086284   -0.8428251628
 H   -0.8479266498    1.9490505202   -0.1128901620
 H    0.5930525403    1.7941043447    0.9134996318
 H   -2.1780341342   -0.4976299041   -0.2143746577
 H   -2.1089802042   -3.4333728213   -1.0563430226
 H   -0.9426427956   -4.3202004151   -0.0672796151
 H   -2.2609634126   -3.4255859408    0.6985351252
 H    1.3046323686   -4.1332038261    0.1544028526