18

 C   -1.0991657130    1.0111997529    0.1880519317
 C    0.2534625710    0.3698588282   -0.0335458574
 O    1.1047705573    0.3868716587    0.8377708011
 C    0.4269690097   -0.2850300011   -1.3722382988
 C    1.6737665787   -0.8208676114   -1.9784809186
 C    2.6756012764   -1.4556039598   -1.0007874171
 O    3.4588670176   -0.6786646355   -0.1581471266
 C    1.4748363475   -2.2941748484   -0.4682466317
 N    0.5672531935   -1.7664314704   -1.5558158011
 H   -1.2553173906    1.8154533958   -0.5405588320
 H   -1.8964647013    0.2776202284    0.0236669628
 H   -1.1609160147    1.4146008666    1.1987560813
 H   -0.2892819157    0.0822721299   -2.1040441442
 H    1.8701402610   -0.6162626623   -3.0278023688
 H    3.3597965681   -2.0948119720   -1.5661818471
 H    2.8400107670   -0.1558480007    0.3773966307
 H    1.5816717416   -3.3733608034   -0.5904014519
 H    1.1478917959   -2.0740356453    0.5497084177