13

 N   -0.0190844629   -1.1542867798   -0.0041751514
 C   -0.0130153967    0.0006203117    0.0021067542
 C    0.0008102359    1.4638053560    0.0099169085
 C    1.4212493178    2.0009623952   -0.0007699401
 N    2.0063199300    2.2058790090    1.1802432435
 C    3.2552364459    2.6661591359    1.1031578532
 N    3.9248604623    2.9256279177   -0.0197335922
 C    3.2310698591    2.6857800837   -1.1322315159
 N    1.9806546102    2.2266720236   -1.1903784683
 H   -0.5277533732    1.8276836204   -0.8752353962
 H   -0.5106521676    1.8178404212    0.9090279374
 H    3.7716345415    2.8481058678    2.0427259066
 H    3.7270611577    2.8842537177   -2.0794181493