17

 C   -0.1086375050    1.5738052701    0.3176785513
 C   -0.0600935775    0.0676867934    0.0311387937
 O    0.7326568580   -0.6135729181    1.0073562154
 C   -1.4155082037   -0.5355645228   -0.1059311292
 C   -2.0889337850   -1.2238171420   -1.0511925272
 N   -3.3628556227   -1.5631765032   -0.5954311520
 C   -3.3969916394   -1.0635249905    0.6003232577
 N   -4.4494428366   -1.0501658810    1.4807784201
 O   -2.2722304291   -0.4215742169    0.9898403921
 H    0.9077873709    1.9607189957    0.4262628246
 H   -0.6107464541    2.1104055717   -0.4930121457
 H   -0.6591649252    1.7717019689    1.2434056005
 H    0.4579496298   -0.1034104428   -0.9184257267
 H    0.2690260836   -0.5456150837    1.8493726070
 H   -1.7498135699   -1.5082421411   -2.0350338400
 H   -5.1488135351   -1.7443344267    1.2622507540
 H   -4.1884994090   -1.0342724210    2.4557326044