16

 C    0.0929560295    1.4953354503    0.0085197572
 C   -0.0778379809   -0.0213008069    0.0024650008
 C   -1.5345241860   -0.4604440002    0.0140485219
 O   -2.4617507867    0.3211074279    0.0274133695
 C   -1.7471481305   -1.8962372665    0.0081033562
 C   -1.9158693855   -3.0912782149    0.0032149795
 C   -2.0965281921   -4.5354881427   -0.0024320986
 O   -3.4788247064   -4.8508804873    0.0092097121
 H    1.1534438924    1.7617173918    0.0000957915
 H   -0.3853234801    1.9454561348   -0.8649248517
 H   -0.3691474224    1.9365859726    0.8950921565
 H    0.3981519813   -0.4787594507   -0.8755620208
 H    0.4145019521   -0.4874876831    0.8667966163
 H   -1.5926675695   -4.9451529681   -0.8937005572
 H   -1.5756868308   -4.9542680429    0.8747440129
 H   -3.5569808145   -5.8104579841    0.0041865541