15

 N    0.0378073300    1.3034030696    0.0604235067
 C   -0.0423095995   -0.0625358890    0.0216037445
 N   -1.1351145441   -0.7841042161   -0.0320373493
 C   -0.6216908032   -2.0507201076    0.0944556931
 C    0.7100204711   -2.0617995696    0.2337775854
 C    1.2679448813   -3.4259157952    0.0431159706
 C   -0.1019823531   -4.1944713939    0.1959010565
 O   -1.2099990091   -3.2622620496   -0.0234149217
 O    1.1310226754   -0.7380951913    0.1475208294
 H    0.8889412963    1.6923640080   -0.3181172298
 H   -0.8022182478    1.7574381322   -0.2658549704
 H    1.7250166125   -3.5843177742   -0.9446708238
 H    1.9812861460   -3.7750725800    0.7972113022
 H   -0.2200975177   -5.0127691003   -0.5155378748
 H   -0.1988653080   -4.5816721829    1.2149984715