21

 C   -0.0519713281    1.5042856943   -0.1266311714
 C   -0.1730421590   -0.0151758828   -0.2645988976
 C   -1.4948533279   -0.5628691158    0.2906944914
 C   -1.5981106083   -2.0717494330    0.1639836818
 C   -2.8478837994   -2.8799009409    0.1279427866
 C   -3.9791545903   -2.1479283588   -0.6102993638
 C   -3.0531401334   -2.1272553642   -1.8571265967
 O   -3.2430988124   -1.8440655148   -3.0065060849
 C   -1.9330240114   -2.8124603604   -1.1334331298
 H    0.8998859945    1.8659756812   -0.5273263783
 H   -0.8558765997    2.0155953678   -0.6677462090
 H   -0.1110631183    1.8145413367    0.9227639132
 H   -0.0854578500   -0.2999146244   -1.3202797777
 H    0.6653834593   -0.5001241340    0.2530024704
 H   -1.5853799077   -0.2920202888    1.3517101429
 H   -2.3287062728   -0.0703472852   -0.2211728224
 H   -0.7896897779   -2.5881728501    0.6814380230
 H   -2.9954118203   -3.7480940216    0.7572961901
 H   -4.8428214487   -2.7873268119   -0.8167447515
 H   -4.3319723464   -1.1975077259   -0.2021476918
 H   -1.2530355119   -3.5416787775   -1.5568841344