14

 C   -0.0087363283    1.4376338941   -0.0610449831
 C   -0.0092496818   -0.0169503576   -0.0015643194
 C    0.0014053364   -1.2199666778    0.0618843635
 C   -0.0006801878   -2.6863470024    0.0833401245
 C   -1.4209250375   -3.2522875593   -0.0612402068
 O    0.8793314514   -3.2315997106   -0.8997502642
 H    0.8266785809    1.8083595715   -0.6651395695
 H   -0.9347860745    1.8222435591   -0.5023027395
 H    0.0888014383    1.8738240178    0.9391984768
 H    0.4160819837   -3.0297561398    1.0382626844
 H   -2.0632010259   -2.9063881549    0.7540074730
 H   -1.8671607813   -2.9273184342   -1.0067450330
 H   -1.3811501897   -4.3447047866   -0.0477042900
 H    0.6596006862   -2.8149752192   -1.7404059767