20

 C    0.3241117288    1.3979369170    0.1728963457
 C    0.0589285165   -0.1036985523    0.0260678256
 C    0.5285597616   -0.6336015047   -1.3185032664
 O    1.9632028149   -0.5220703164   -1.4951579740
 C    2.1061051499   -1.9323422670   -1.7943991059
 C    3.1109600965   -2.6271611651   -0.8972515732
 C    0.5888226117   -2.1701274602   -1.5464428372
 O    0.1962585532   -3.0282771304   -0.5062938148
 H    1.3888596844    1.6105844966    0.0426477174
 H   -0.2275122888    1.9706477712   -0.5805850329
 H    0.0191605690    1.7595581333    1.1592334895
 H    0.5723346146   -0.6414550608    0.8336991497
 H   -1.0112449820   -0.3206825166    0.1312505713
 H    0.0018229847   -0.1035509237   -2.1260658650
 H    2.3887055634   -2.0727887632   -2.8472013547
 H    2.8567999094   -2.5162673924    0.1618171108
 H    3.1619147998   -3.6950453617   -1.1317359813
 H    4.1036977156   -2.1916111016   -1.0452323015
 H    0.0415547328   -2.5145750464   -2.4258198540
 H    0.6373385541   -2.7578233654    0.3051615308