19

 C    0.0620225415    1.4245912439   -0.1220543757
 N    0.0045537010   -0.0074718654    0.1140600655
 C   -1.3661656772   -0.5631219474    0.3189526552
 C   -1.1347460271   -1.3539255870    1.6166263508
 C   -0.3751899663   -0.3014440820    2.4791881741
 C    0.6747303810   -0.4690096155    1.3420426278
 C    0.2751134294   -1.9837687185    1.3042283311
 C    0.8305850388   -2.8193932669    2.3509874755
 N    1.2776708723   -3.4969900402    3.1749870369
 H    1.1051143411    1.7339805670   -0.2434574188
 H   -0.4638515549    1.6575041455   -1.0531910677
 H   -0.3869472141    2.0384534903    0.6799766250
 H   -2.1167119750    0.2246791291    0.4623373723
 H   -1.6761253723   -1.1863503434   -0.5267822655
 H   -1.9532754326   -1.9588666920    2.0024863548
 H   -0.8367404279    0.6796400377    2.6095106998
 H   -0.0420250054   -0.6972562668    3.4391098071
 H    1.7130165614   -0.1504456173    1.4225543435
 H    0.3941475963   -2.4653450611    0.3307402886