13

 O    0.0737566188   -0.0868372440   -0.0017246155
 C   -0.0019285893    1.1267851263    0.0094347460
 C    1.1738030506    1.9793065939    0.0033143027
 C    1.3377601934    3.3683380845    0.0133232114
 C    2.7325575719    3.6310041829   -0.0005719636
 C    3.3719073415    2.4069979704   -0.0180080640
 N    2.4250886416    1.4313061236   -0.0155157331
 C    0.2902126835    4.3221471812    0.0333743091
 N   -0.5638619299    5.1044667335    0.0496870186
 H   -0.9714479151    1.6596928948    0.0249878915
 H    3.2002431043    4.6020418695    0.0021927854
 H    4.4234557670    2.1691658651   -0.0319619781
 H    2.5635158217    0.4319211984   -0.0255317804