21

 O    0.1423298920    1.2417789514   -0.0852473001
 C   -0.0105776489   -0.1219585673    0.2151182270
 C   -0.8769247028   -0.5354015689    1.3876949566
 C   -1.3943798716   -0.6571989237   -0.0368234467
 O   -2.3415592202    0.2914373917   -0.4402316428
 C   -1.6312677882   -1.9864061380   -0.7029177031
 C   -0.7266748412   -3.2173844101   -0.4111102948
 C   -1.9940787189   -4.1125142194   -0.4898001855
 C   -2.8569274608   -2.8415956917   -0.2688572845
 H    0.5355987761    1.6819658837    0.6749614125
 H    0.8520022053   -0.7379322601   -0.0328955312
 H   -0.5881234227   -1.4168225853    1.9503590916
 H   -1.3238631790    0.2600152210    1.9753498181
 H   -1.8584337534    1.1245093547   -0.5386220979
 H   -1.6745522998   -1.8076598745   -1.7830671058
 H    0.0916512975   -3.4195806171   -1.1066264227
 H   -0.3203763792   -3.1996378092    0.6049223640
 H   -2.1324294707   -4.5283304408   -1.4919471427
 H   -2.0845650343   -4.9235411992    0.2364472697
 H   -3.0850311992   -2.6876108930    0.7904610506
 H   -3.7783735901   -2.7347387741   -0.8444377523