17

 C    0.0050786108    1.4127583580   -0.0526713745
 C    1.4493347624    1.9476733904    0.0553502493
 C    2.0938292986    0.7047121184    0.5969877542
 O    3.4243755584    0.4846364126    1.0182954644
 C    2.3607682624    0.3388742918    1.9868567314
 C    1.8565429638   -1.0696632075    2.1891850714
 O    1.4382679784   -1.5336863487    0.9007683301
 C    1.3951639000   -0.4845196471   -0.0356998911
 O    0.0966434817    0.0045873800   -0.3316702015
 H   -0.5348073360    1.5712807685    0.8912801930
 H   -0.5684259832    1.8802098072   -0.8574525454
 H    1.8544062825    2.2037771449   -0.9293607716
 H    1.5338378480    2.8183644165    0.7080066087
 H    2.3690938611    1.0565018795    2.8019386529
 H    2.6184279907   -1.7595270722    2.5675842470
 H    1.0137175653   -1.0576987136    2.8951826054
 H    1.8370007651   -0.8763666288   -0.9588824237