14

 N    0.0870426470   -1.1341888241   -0.1276707230
 C    0.0584619183    0.0205749013   -0.0385258400
 C    0.0157402670    1.4343969535    0.0848831578
 N    0.2044017315    2.3368825148   -1.0901478237
 C    1.1327901178    2.4232201008    0.0463067474
 C    0.4775198214    3.2390063324    1.1956001015
 C   -0.9299416585    3.6627145247    0.8634575953
 C   -0.6641732368    2.2335802501    1.2423944040
 H    0.6540665836    1.7905408715   -1.8246885996
 H    2.1913483926    2.2328050549   -0.0696373690
 H    1.0465050268    3.6468969646    2.0192618229
 H   -1.4132579710    4.2407144208    1.6446916274
 H   -1.2049818579    3.9270908162   -0.1489323899
 H   -1.0985051319    1.7381421186    2.0992619290