20

 C   -0.2433675682    1.5443798711    0.0146593248
 C    0.0134605989    0.0308180685   -0.0076813793
 C    0.9242644929   -0.3938360519   -1.2017557460
 C    2.3134474395   -0.5324055214   -0.6094987360
 O    2.7197147530    0.5919794777    0.1860026810
 C    2.2174666182   -0.5772200606    0.8534998141
 C    0.7702888056   -0.4728864377    1.2369022265
 C    0.3018272988   -0.2509974719    2.6236213085
 N    0.2876056320   -1.6095188582    2.0468964249
 H    0.7003339681    2.0902793112    0.0779476752
 H   -0.7644777368    1.8580397433   -0.8964584283
 H   -0.8658811006    1.8309783193    0.8681472752
 H   -0.9524734320   -0.4836176561   -0.0754922114
 H    0.6187462467   -1.3652700461   -1.6078656551
 H    0.8885701502    0.3302642988   -2.0218118795
 H    3.1105568677   -1.0205276173   -1.1645561981
 H    2.9137799296   -1.1058702017    1.4979614080
 H    1.0177522596   -0.1014383823    3.4276139814
 H   -0.6450875056    0.2637424233    2.7652060778
 H   -0.6600197676   -1.8519768776    1.7666199764