18

 C   -0.0371821807    1.5050421573    0.0121097346
 C   -0.0197227937    0.0108874623   -0.0461753046
 C    0.5890202709   -0.8676016452   -1.1844050644
 C    0.9654527770   -2.1565140338   -0.4617174057
 C    1.0565175633   -1.8624308737    1.0221387829
 N    0.0450059981   -0.8054220300    1.1849672364
 C   -1.0521846047   -1.0304603900    0.2216581921
 C   -0.4565860952   -1.9166048856   -0.9194928401
 O   -1.1670805287   -2.6552196171   -1.8376719223
 H    0.9789157838    1.9074532198    0.1020588921
 H   -0.4863404273    1.9278531160   -0.8928531406
 H   -0.6137381362    1.8434183594    0.8769732828
 H    1.0225525694   -0.5303191365   -2.1149133388
 H    1.5713527388   -2.8937355332   -0.9745576336
 H    0.7981779439   -2.7223748926    1.6498611346
 H    2.0358261479   -1.4827282400    1.3312044417
 H   -2.0861584844   -0.9677652716    0.5403809371
 H   -1.3781379721   -3.5094151558   -1.4432361941