16

 C    0.1402111761    1.5775433158   -0.1622876010
 C   -0.0309374533    0.0765147314    0.0541682685
 O    0.4792643073   -0.6497338492   -1.0782018030
 C    1.4347963025   -1.6178864961   -0.6725827530
 C    1.5712758197   -1.4437144894    0.8076937732
 C    0.7375468936   -0.4876109632    1.2289481848
 C    0.5623045065   -0.0743745870    2.6227534956
 O   -0.2183891902    0.7753187252    2.9925269469
 H    1.2000733879    1.8355372066   -0.2495891058
 H   -0.3668014322    1.8784755846   -1.0829584094
 H   -0.2919325143    2.1243140424    0.6792978925
 H   -1.1037808886   -0.1461953346    0.1619711111
 H    1.0932961530   -2.6346945901   -0.9298593842
 H    2.3877714516   -1.4599460865   -1.2020982205
 H    2.2440549991   -2.0279441027    1.4249312953
 H    1.2102637713   -0.6146066973    3.3478362790