19

 C    0.0287764040    1.5496785748   -0.0216593569
 C   -0.0340207549    0.0266669809   -0.0152223048
 C    0.7244214289   -0.5835379648   -1.2048630418
 C    0.6331239061   -2.0415756900   -1.2447604879
 N    0.5524927388   -3.1934816419   -1.2773742951
 O    0.6038092250   -0.5069368340    1.1568521439
 C   -0.1345642194   -0.6130207750    2.2873010716
 C    0.6766417109   -1.2839239532    3.3642051114
 N   -1.3280738062   -0.1854550123    2.3373082513
 H    1.0662904699    1.8953549914    0.0288706575
 H   -0.4269316499    1.9473473977   -0.9339952788
 H   -0.5207508274    1.9411623336    0.8356375235
 H   -1.0757432754   -0.3038542255   -0.0205551854
 H    0.3222756338   -0.1768782478   -2.1386673506
 H    1.7804553964   -0.2963610843   -1.1508856422
 H    0.1095008399   -1.3548735436    4.2934123177
 H    0.9675185589   -2.2877633662    3.0403913946
 H    1.5978428784   -0.7225372091    3.5469303685
 H   -1.7355998880   -0.3622103607    3.2519668634