23

 C   -0.7522158196    1.2869994228    0.0203965929
 C    0.0134894760   -0.0333428011   -0.0336863448
 C    1.0510680936   -0.1449507453   -1.1638728985
 C    1.9310664399   -1.3075263816   -0.6976233374
 C    3.4111968968   -1.1940178541   -1.0462010679
 O    4.1623554364   -2.2254260392   -0.4407623776
 O    1.8252292736   -1.3396141093    0.7376692360
 C    0.8610869955   -0.3885592417    1.2103633865
 C    1.5715753205    0.7831868353    1.8885660702
 H   -0.0758003742    2.1424553575    0.1116497044
 H   -1.3434735537    1.4270982057   -0.8901315400
 H   -1.4440749144    1.3134032229    0.8691430852
 H   -0.7095377064   -0.8485591315   -0.1656426541
 H    0.5969102572   -0.3292341948   -2.1405159879
 H    1.6376776995    0.7794801268   -1.2392335612
 H    1.5531283238   -2.2662757947   -1.0818197221
 H    3.5531175273   -1.2829696645   -2.1293672819
 H    3.7729500169   -0.1977983070   -0.7389750785
 H    3.8894634608   -2.2298270500    0.4850762348
 H    0.2453078167   -0.9032820158    1.9589245673
 H    2.1535879841    1.3750519908    1.1747758116
 H    0.8556280268    1.4465342151    2.3842257330
 H    2.2602151630    0.3992269135    2.6462772099