21

 C   -0.0424063016    1.3245563720    0.0385225627
 O   -0.1522943576   -0.0635394604   -0.1715581677
 C    0.7096974679   -0.5322441327   -1.1843514135
 C    0.4889977942   -2.0333499565   -1.3135639533
 C    1.3378496537   -2.6719346297   -2.3889774317
 O    1.9700601558   -2.0163012152   -3.1937010843
 C    1.4184674344   -4.2011528168   -2.4561202613
 C    0.0377427916   -4.8567923383   -2.5960024519
 O    2.2480836829   -4.5839188209   -3.5190287620
 H    0.9743820991    1.6114206439    0.3500181425
 H   -0.2961950506    1.8961510542   -0.8680556347
 H   -0.7436786897    1.5913749892    0.8327385308
 H    0.5031531260   -0.0337777892   -2.1434128782
 H    1.7619896620   -0.3194225436   -0.9357652074
 H    0.6761156990   -2.5306259552   -0.3540917782
 H   -0.5670982240   -2.2277515377   -1.5419977199
 H    1.8594453831   -4.5261174463   -1.4957127797
 H    0.1700772481   -5.9358847648   -2.7046261695
 H   -0.5899789278   -4.6728601147   -1.7193599827
 H   -0.4750959644   -4.4856791224   -3.4885978796
 H    2.5742922278   -3.7519356948   -3.8994684506