17

 C    0.1588189084    1.6153718818   -0.0936392397
 C    0.0202036541    0.1001386310    0.0875742716
 C    0.4652894950   -0.6726328260   -1.1705719673
 C    0.7799698684   -0.3642107883    1.2912735972
 N    1.6153415145    0.2887382269    2.0371360578
 C    2.0288475124   -0.6302131874    2.9954309541
 C    1.4091559479   -1.8098032919    2.7720276244
 O    0.6013242189   -1.6577346096    1.6793304773
 H    1.2034410913    1.8917672839   -0.2609320810
 H   -0.4297576542    1.9440777574   -0.9553009639
 H   -0.1860416171    2.1547856709    0.7916878296
 H   -1.0370292777   -0.1403930606    0.2656554249
 H    1.5137118329   -0.4593353937   -1.4035728343
 H    0.3587969083   -1.7515377104   -1.0314742420
 H   -0.1418513806   -0.3748709382   -2.0308171030
 H    2.7354226571   -0.3690734996    3.7670195183
 H    1.4118394705   -2.7789974263    3.2398148760