18

 O   -0.1862881705    1.3039189667    0.0342476838
 N   -0.0120189735   -0.0974897007    0.0186030728
 C   -1.1319873020   -0.6912217224    0.0035869922
 C   -2.5561616768   -0.1565579483    0.0013343443
 C   -3.2726208126   -1.5305863381   -0.0287963540
 O   -4.6616354178   -1.5544818472    0.0331231004
 C   -2.4793996963   -2.3377973842    1.0280056252
 C   -1.3237221352   -2.1838736381   -0.0202021994
 C   -2.4449302195   -2.3080019062   -1.1062594974
 H    0.7237265999    1.6184438658    0.0480045984
 H   -2.7877703843    0.4282331995    0.8967819068
 H   -2.7630128195    0.4654407946   -0.8769980662
 H   -5.0093592218   -0.9343448983   -0.6167139647
 H   -2.3420144634   -1.8998109924    2.0199279402
 H   -2.8305585812   -3.3687079621    1.1029481792
 H   -0.4375807495   -2.8122731026   -0.0146910455
 H   -2.7943082142   -3.3356947172   -1.2226617234
 H   -2.2722874519   -1.8404875887   -2.0798454928