17

 C   -0.2873856022    1.4080321788    0.1026713350
 C   -0.0368036868   -0.0560313627   -0.0080852102
 N    0.7095204185   -0.5698507164   -0.9494062984
 O    0.6728393549   -1.9473845719   -0.6798002399
 C   -0.0988165010   -2.1041988776    0.4027818013
 C   -0.3125873049   -3.4856597978    0.9158347394
 C   -1.2111857278   -3.5218293603    2.1475024876
 O   -1.3249039553   -4.8844365586    2.5211700362
 N   -0.5673546144   -0.9843548326    0.8667227287
 H    0.0613312257    1.7798652897    1.0707868857
 H    0.2301927510    1.9416520779   -0.6956037835
 H   -1.3599258308    1.6145967444    0.0390711244
 H   -0.7494546995   -4.1037860523    0.1229998829
 H    0.6568390406   -3.9384669063    1.1540612406
 H   -0.7673999381   -2.9115560839    2.9468691845
 H   -2.1876597693   -3.0785654901    1.9057959846
 H   -1.8880525507   -4.9367412105    3.2986347512