17

 C   -0.2378634444    1.3833847401   -0.0703801018
 C    0.0520899304   -0.0924206847    0.0387243391
 C    1.4427966515   -0.6602267393   -0.1639541268
 C    2.5853927691    0.1796357890   -0.3399624501
 C    3.5607621042    0.8836506859   -0.4074059525
 C    0.7991859180   -0.6387342947    1.2438372096
 O    1.2892618022    0.2399799549    2.1997343996
 C    0.3737174902   -1.9594289020    1.7860700507
 O   -0.1115604939   -2.8397129669    1.1161252836
 H    0.5507568413    1.9802876587    0.3904175028
 H   -0.3269476077    1.6812706597   -1.1197659738
 H   -1.1800620434    1.6226912848    0.4318996283
 H   -0.7260310645   -0.7636028604   -0.3138231314
 H    1.4921608333   -1.6467123231   -0.6151899905
 H    4.4164736277    1.5034351113   -0.5173445762
 H    2.2056712041    0.4563716081    1.9800415013
 H    0.5424372721   -2.0628673114    2.8789264982