17

 O    0.0180896942    1.3451859366    0.2457833703
 C    0.0030756489    0.0036107226    0.0436042031
 C   -0.1259158483   -0.8168042335   -1.0529120767
 N   -0.0726587378   -2.1499225820   -0.6655263288
 C    0.0806189647   -2.1133116180    0.6313596382
 C    0.2802449907   -3.0899830502    1.7505910389
 C    0.0683600465   -2.1922550487    3.0048313206
 C    0.3636031526   -0.7358656853    2.5464421511
 N    0.1238320062   -0.8317923662    1.1186590657
 H   -0.1034896194    1.7800944147   -0.6037983189
 H   -0.2642196794   -0.5282858005   -2.0840913736
 H   -0.4191569970   -3.9286710348    1.7165255117
 H    1.2925548508   -3.5130749300    1.7285613538
 H   -0.9740322686   -2.2586304823    3.3287430240
 H    0.6960912065   -2.4849977159    3.8486072391
 H   -0.2940612598   -0.0009319962    3.0175842268
 H    1.4007193292   -0.4397188803    2.7461607846