19

 O   -0.0599596038    0.0730274427   -0.2703574272
 C   -0.0213966512    1.2319231251    0.0414187347
 C   -1.1488689307    2.2908453738    0.2450924284
 C   -0.0629019232    3.3513822404   -0.0218487311
 C    0.9535827514    3.2943648017    1.0573259289
 C    1.0631247331    2.2594692124   -0.0512444341
 C    2.0002743002    2.5250029970   -1.2092215878
 C    1.6378420881    3.9813068218   -1.6451404330
 C    0.1501070162    4.2212716782   -1.2424196144
 H   -1.8952723559    2.1889572801   -0.5478126333
 H   -1.6585148766    2.3409524809    1.2111012956
 H    1.7442151435    4.0372377580    1.0567498694
 H    0.6532567720    2.9784393943    2.0513660503
 H    3.0635194990    2.4309125490   -0.9683418591
 H    1.7848259684    1.8098804808   -2.0101156139
 H    2.2813206985    4.6959683422   -1.1219197805
 H    1.8033678830    4.1440318976   -2.7136133735
 H   -0.5204945532    3.8814223505   -2.0405117703
 H   -0.0569216887    5.2847173035   -1.0814699091