16

 C   -0.1493931591    1.5827620932   -0.0636760514
 C    0.0692213355    0.0890420189    0.0524685086
 O    1.1112084293   -0.4364498451   -0.8305148089
 C    1.7240164792   -1.1596695711    0.2429213831
 C    2.9091630194   -0.4467718950    0.9655518106
 O    2.6301731289    0.9501386043    0.9818478276
 C    1.9677084235    0.1362835992    1.9492477383
 C    0.7531349116   -0.5641979179    1.2848866591
 H    0.7667313569    2.1355579112    0.1396517626
 H   -0.4930243657    1.8284120097   -1.0739013107
 H   -0.9286019335    1.8981066133    0.6396404305
 H   -0.8697195636   -0.4389524415   -0.1675466960
 H    1.8438679792   -2.2301833228    0.0575182923
 H    3.9489579348   -0.7432590700    1.0495945368
 H    2.1041260896    0.4004686646    2.9918295387
 H    0.1532940439   -1.1863768510    1.9469975988