16

 O   -0.0794003422    1.3978867302   -0.0525372937
 C    0.0520378610    0.0220213224   -0.0400896058
 C    0.8736430602   -0.8034638992   -1.0289494005
 C   -0.1199820273   -1.9875918166   -0.7731106443
 C    0.3861914325   -2.8597748754    0.3752706630
 O    0.5273170487   -1.9519340021    1.4776429746
 C   -0.2709714873   -0.8260689819    1.1796407415
 C   -1.0855708411   -0.9965859538   -0.0620516883
 H    0.6265171574    1.7745556069    0.4849831909
 H    0.7715502451   -0.4059165321   -2.0416669035
 H    1.9317659407   -0.9793495454   -0.8035778066
 H   -0.4761998359   -2.5316362464   -1.6464999815
 H   -0.3306129068   -3.6560893794    0.6266169498
 H    1.3630123705   -3.3134174637    0.1776870925
 H   -0.6751116921   -0.3247445027    2.0513616819
 H   -2.1575379134   -0.8964190409   -0.1632882702