21

 C   -0.0519183298    1.4703376781    0.0872124423
 C    0.0232811666   -0.0446294698   -0.0062436151
 C    0.6733456629   -0.5239746699   -1.2997181675
 O    0.7048752850   -1.9416060642   -1.3777349668
 C    1.0193317198   -2.5988699711   -0.1846714622
 C    2.3091730987   -2.3809725278    0.5789505436
 C    0.9828896778   -1.8932077493    1.1427679659
 C    0.3667998643   -2.5228027977    2.3667324170
 O    0.8013786856   -0.4960378977    1.1030957020
 H    0.9455435280    1.9112015901   -0.0054989409
 H   -0.6898133937    1.8764323782   -0.7034245662
 H   -0.4651764757    1.7657768174    1.0549020516
 H   -0.9881662528   -0.4787941121    0.0523886990
 H    0.1055855661   -0.1885536459   -2.1728908014
 H    1.6892585799   -0.1028833889   -1.3658857661
 H    0.6364267601   -3.6139929367   -0.2256396660
 H    2.7924758458   -3.2470223067    1.0191132902
 H    2.9836023829   -1.6036586523    0.2387402279
 H    0.5526354409   -3.6007857341    2.3896024178
 H    0.7936533610   -2.0830628049    3.2744645813
 H   -0.7163972634   -2.3604800446    2.3876095236