13

 C   -0.0568272403   -1.1860652636   -0.0519281299
 C   -0.0328402774    0.0136440243    0.0029861859
 C   -0.0113459799    1.4418132194    0.0640024646
 C    0.4861897777    2.1632033818    1.2804860151
 C    1.3597665561    2.1910662321    0.0255550365
 C    2.5700368212    1.4092507360    0.0177096996
 N    3.5391108815    0.7802434162    0.0206356121
 C    1.3996977404    3.4123598196   -0.7394466691
 N    1.3958336981    4.3959246797   -1.3464940446
 H   -0.0697981067   -2.2474382365   -0.1011056833
 H   -0.7767282261    1.9518707351   -0.5126904135
 H    0.0110343643    3.0976328586    1.5522794728
 H    0.8634561111    1.5651715371    2.1003038038