16

 O   -0.2037784089    0.2889424748    0.7281349621
 C    0.1184258427    1.0542023114   -0.1513066382
 C    1.3054668553    1.9537786231   -0.0742524915
 C    1.8197465952    2.2761878213    1.3222782475
 C    2.5666416493    1.2928562580    0.4939083609
 C    1.4720055597    2.9862719839   -1.1458626825
 O    1.0149806817    2.6520733291   -2.4594472063
 C    0.3458620321    3.7047455350   -1.7566634939
 H   -0.4481675818    1.1073747313   -1.1020426069
 H    2.2437291370    3.2631441202    1.4726896848
 H    1.2138317344    1.8940723585    2.1356148829
 H    2.4753392365    0.2431628473    0.7470388419
 H    3.5109205883    1.5873714989    0.0487438136
 H    2.4383785246    3.4943702738   -1.1290912411
 H   -0.6717775126    3.4814601190   -1.4379639354
 H    0.4943957664    4.7043182943   -2.1619553981