18

 C   -0.0578834649    1.5245636763   -0.0054110246
 C    0.0067563903   -0.0081134095    0.0443585073
 C    0.8400582757   -0.4722770071    1.2487656481
 C   -1.4123468638   -0.6010977899    0.0423970995
 C   -1.4749068893   -2.1171812439   -0.0999799670
 O   -2.8441696673   -2.4812857503   -0.2146996999
 H    0.9447056373    1.9630050927   -0.0476507561
 H   -0.6151062697    1.8722566404   -0.8815285015
 H   -0.5571968695    1.9238167563    0.8855531480
 H    0.5149469548   -0.3507351590   -0.8692819411
 H    1.8336177829   -0.0118009156    1.2370060802
 H    0.3546923902   -0.1880502590    2.1904354731
 H    0.9816065163   -1.5571232199    1.2619847275
 H   -1.9376107883   -0.3122247705    0.9623744022
 H   -1.9853342299   -0.1711221404   -0.7881360468
 H   -0.9052472570   -2.4289371911   -0.9918861592
 H   -1.0115707694   -2.6075349614    0.7696309751
 H   -2.8959572382   -3.4400247481   -0.2656219846