20

 C   -0.6373588320    1.2497499267   -0.0725187055
 C    0.1024144458   -0.0799967970   -0.0759195947
 C    1.4718379451   -0.1771132582   -0.7582369520
 O    1.9654339197    0.3797512951   -1.6974390370
 C    2.0073394211   -1.1221073653    0.3251444668
 C    0.7858599668   -0.6931895224    1.2122851683
 C    1.1928196969    0.3696591541    2.2355493402
 C    0.0143147846   -1.8312537761    1.8739000083
 H   -0.0269370295    2.0527084175    0.3497131777
 H   -0.8937540529    1.5366560536   -1.0966796458
 H   -1.5666158012    1.1893002932    0.5033877582
 H   -0.5359655560   -0.8568677143   -0.5208023832
 H    1.9539653455   -2.1684118287    0.0048711504
 H    3.0138054283   -0.9189524221    0.6999982515
 H    1.7733605465    1.1774702506    1.7770328193
 H    0.3168825178    0.8191481703    2.7151596197
 H    1.8126283065   -0.0752951216    3.0216112843
 H    0.6104574127   -2.3105087417    2.6588136336
 H   -0.9087451650   -1.4655432976    2.3385145226
 H   -0.2606075605   -2.6018587160    1.1455721173