17

 C    0.0727331965    1.5202728932   -0.1628658221
 O    1.4927317385    1.4400018943    0.2157057203
 C    1.1718241925    0.2268372080    0.9461870896
 C    1.6481855971   -1.2599278173    0.8598384414
 C    0.2808279993   -1.8104942427    1.3875222404
 C   -0.7298617176   -1.0594141780    0.9148646367
 C   -0.0383127858   -0.0048117351    0.0439270420
 C    0.6444099879   -0.7228698445   -1.1392042728
 C    1.6471335335   -1.4516817942   -0.6597493180
 H   -0.4898970564    2.1349152639    0.5514599531
 H   -0.0462249921    1.9060144147   -1.1791543202
 H    0.9437774380    0.5009920348    1.9817780237
 H    2.5280082942   -1.5986996207    1.4061620111
 H    0.1997779335   -2.6949042185    2.0056715016
 H   -1.7897207058   -1.2059976262    1.0732078154
 H    0.3098745173   -0.6207380888   -2.1632657171
 H    2.3305442293   -2.0973930328   -1.1941017250