23

 C   -0.0205109668    1.5165945115    0.0057741242
 C   -0.0066270878   -0.0022302068    0.0217870916
 C    0.7301164389   -0.6745771450   -1.1927182007
 C    0.9648271251   -2.1339092502   -0.7087115328
 C    0.3379575723   -2.1447998306    0.7323919917
 C    0.7563076955   -3.3135652663    1.6077481520
 C    0.7162137025   -0.7147710873    1.1917797423
 C   -1.1600620550   -1.9524109726    0.5147746341
 C   -1.3615040811   -0.6998827435    0.0993773090
 H    0.9974711110    1.9212999172   -0.0152841788
 H   -0.5457387872    1.8999125510   -0.8768020615
 H   -0.5236625645    1.9190902737    0.8915941176
 H    0.1348500225   -0.6158229400   -2.1078578511
 H    1.6787506657   -0.1614541284   -1.3850317771
 H    0.4992690624   -2.8816064629   -1.3563836413
 H    2.0336285497   -2.3679396501   -0.6532143290
 H    1.8445094326   -3.3454789204    1.7315055120
 H    0.3068484810   -3.2449566428    2.6043026105
 H    0.4464430704   -4.2693240734    1.1692886906
 H    1.7986020049   -0.5366566056    1.2039481431
 H    0.2918470428   -0.4594549965    2.1673742933
 H   -1.8898693824   -2.7510938098    0.5857415843
 H   -2.2909116226   -0.2574843814   -0.2412607541