22

 C   -0.0949391253    1.5784355403    0.0123900474
 C   -0.0415977132    0.0483178848    0.0031175340
 C   -1.4325720885   -0.5943761945    0.0127492135
 C   -1.3778101512   -2.1149746325    0.0034651618
 O   -2.7026611687   -2.6182895901    0.0133128969
 C   -2.7658729352   -4.0206342084    0.0058893121
 C   -4.2531349670   -4.3966554580    0.0181764920
 C   -4.4561173126   -5.8416662177    0.0117837995
 N   -4.5977807031   -6.9883105589    0.0065826121
 H    0.9097275667    2.0119075781    0.0052936394
 H   -0.6297511144    1.9604821384   -0.8640073012
 H   -0.6129009173    1.9503598063    0.9031448538
 H    0.5122654979   -0.2932068559   -0.8812890522
 H    0.5290515384   -0.3032509414    0.8727938970
 H   -1.9911970821   -0.2693756559    0.8990399654
 H   -2.0080524190   -0.2592420606   -0.8588617732
 H   -0.8428300875   -2.4775772814   -0.8906623366
 H   -0.8257767614   -2.4877885154    0.8829070441
 H   -2.2782972467   -4.4396740493   -0.8888362199
 H   -2.2610419437   -4.4498681600    0.8860976684
 H   -4.7276571875   -3.9664781978    0.9062323185
 H   -4.7448124886   -3.9562755800   -0.8554321128