20

 C   -0.7924364506    0.8789498730   -0.0656346048
 N    0.4886278461    0.1837187994    0.1143536149
 C    0.9888697128   -0.4721745516   -1.0286768923
 C    1.8543511357   -0.0872872637   -2.0309203245
 C    2.0200478821   -1.2064664705   -2.9035553749
 N    2.8503561646   -1.2899987546   -4.0547224192
 C    1.2465187410   -2.2411900443   -2.4193114207
 C    1.0610683957   -3.6266914593   -2.9360049569
 N    0.6132087955   -1.7666332772   -1.2841922343
 H   -0.7681482908    1.6592036484   -0.8423449464
 H   -1.5621067135    0.1537393648   -0.3450569626
 H   -1.0897731712    1.3352731458    0.8835368091
 H    1.1840732779    0.8281727980    0.4695512883
 H    2.3068941768    0.8879949546   -2.1387117102
 H    3.4372111335   -0.4681879879   -4.1329761102
 H    2.3086956888   -1.3533357443   -4.9102642076
 H    1.8633708554   -3.8513640029   -3.6444454590
 H    1.1073300300   -4.3740457177   -2.1338122042
 H    0.1054902671   -3.7731995770   -3.4590717109
 H    0.0622011332   -2.3171478131   -0.6483045138