17

 N   -0.0692077002    1.4381667417    0.0487747190
 C    0.0474298765   -0.0186854038   -0.0223032941
 C    0.7678797534   -0.4942427307   -1.2295866383
 N    1.3345303918   -0.8589998518   -2.1697955230
 C    0.7496028343   -0.5327723214    1.2357144336
 O    1.8842782838    0.2033963887    1.5862433306
 C   -0.0696877946   -1.1747791801    2.3333518874
 C    0.8264998438   -2.0163204032    1.4625275126
 O    0.1839106610   -2.8757070372    0.5706447923
 H    0.8540981891    1.8463659583   -0.0664664643
 H   -0.6370171396    1.7821992003   -0.7193038588
 H   -0.9556354854   -0.4503776128   -0.0625359264
 H    1.5792134519    0.9973709558    2.0418418475
 H    0.2461873053   -1.0006447740    3.3555962637
 H   -1.1391893770   -1.2740960404    2.1841314788
 H    1.7511515524   -2.3819124981    1.9067449019
 H    0.7395064336   -2.9674909713   -0.2130527224