17

 O   -0.2209414710    1.2592784041   -0.1720885290
 C   -0.0520133270   -0.1107103662   -0.1132232984
 C    0.6284728303   -0.9454547612   -1.2694980400
 C   -0.1077944465   -2.0982265802   -0.5739477604
 C    0.5667503195   -2.7875749181    0.3691709888
 C    0.2888854899   -2.1914955003    1.7478525979
 C   -0.3523050069   -0.8635224114    1.3036362983
 C   -1.1293394883   -1.1253698249    0.0777810906
 O   -2.5012588084   -1.1131258692   -0.0379643014
 H    0.5853142631    1.6811289913    0.1449390468
 H    0.2303424951   -0.5897939861   -2.2272290314
 H    1.7189318531   -1.0209751213   -1.3190105173
 H    1.5143032057   -3.2824164133    0.1712944553
 H   -0.3760313283   -2.7474515120    2.4248531467
 H    1.2482971475   -2.0816116447    2.2693665949
 H   -0.7381192829   -0.1480658103    2.0271919891
 H   -2.7297000749   -0.9906717863   -0.9665172207