18

 C    0.4909976963    1.4240992778   -0.2789048392
 C    0.1026081517   -0.0083837292    0.0337089623
 O    0.8151465441   -1.0099151843   -0.7490554774
 C    1.3137818632   -1.7226250000    0.4086413206
 C    2.8173565209   -1.8701669107    0.4337989289
 C    3.5446940370   -2.2135096430   -0.8104359127
 N    3.6664437308   -0.8671895832   -0.2149630241
 C    0.6661504598   -0.6541094100    1.3090346014
 O    0.6370973914   -0.4157399002    2.4763215779
 H    1.5599541313    1.5925949473   -0.1194759646
 H    0.2481336270    1.6649468012   -1.3177911066
 H   -0.0652048095    2.1041073832    0.3735092958
 H   -0.9831398752   -0.1501523993   -0.0605703429
 H    0.8318113554   -2.7053960882    0.5217441074
 H    3.1910491326   -2.2345044365    1.3886375154
 H    4.4424014279   -2.8229439848   -0.7646530796
 H    2.9605849722   -2.3153086780   -1.7207251314
 H    3.0641832329   -0.2423249120   -0.7487286810