19

 C   -0.1258097766    1.4802804496    0.0475782352
 C    0.0057388713   -0.0107712490    0.0713805794
 O   -1.2236731287   -0.7537209919    0.2095265455
 C   -0.3427903766   -1.8748190614    0.5094828166
 C    0.7508465893   -0.9058702977    1.0942721076
 C    1.9912932402   -0.9360138997    0.1857550295
 C    0.9612294521   -0.7907838626   -0.9657599687
 C    0.2294012111   -2.1421369559   -0.9083181887
 O    1.1212243657   -3.2292424281   -1.0442808852
 H    0.8597939256    1.9546450683    0.0158970388
 H   -0.6847593556    1.7996536557   -0.8386271168
 H   -0.6573421135    1.8354195666    0.9353943655
 H   -0.8140584450   -2.6816728955    1.0712510480
 H    0.7586846063   -0.7221932289    2.1677116075
 H    2.5907436825   -0.0317091352    0.3216678028
 H    2.6324686223   -1.8163201330    0.1746860592
 H    1.2282649632   -0.3879390318   -1.9413497143
 H   -0.5980517657   -2.2030806999   -1.6251538492
 H    0.6079143021   -4.0408054696   -0.9860056826