18

 C    0.0011322731    1.3775627656   -0.3472073272
 N    0.0560161854   -0.0743713918   -0.3224015795
 C    1.1931865409   -0.5882506410    0.4410944149
 C   -1.1688132767   -0.6859174407   -0.0618431747
 C   -2.3661881683   -0.1874259316    0.3263008893
 N   -3.2653591884   -1.2661587536    0.3732257299
 C   -2.6586885186   -2.4457811258   -0.0146755185
 O   -3.1479908815   -3.5504434087   -0.1443374909
 N   -1.3319354102   -2.0638548859   -0.2315897789
 H    0.9571821176    1.7662791090   -0.7086291441
 H   -0.7898966653    1.7002013633   -1.0289186305
 H   -0.1922785145    1.8184112094    0.6467778043
 H    1.1671754403   -0.2747797761    1.4983369792
 H    1.2060172236   -1.6795054536    0.4138155333
 H    2.1217459529   -0.2235695864   -0.0075441195
 H   -2.6487401194    0.8083055742    0.6146909639
 H   -4.2566833764   -1.2099814429    0.5216677704
 H   -0.6909370747   -2.6695505333   -0.7137544314