17

 C    0.0866651113    1.4084801458    0.2420184394
 N    0.0928689597   -0.0338999438    0.0970098770
 C    0.1579414019   -0.7326891910   -1.0904640281
 C    0.0663024658   -2.0736045302   -0.8121486120
 C   -0.0766810240   -2.2155644275    0.5987352693
 C   -0.0561306165   -0.9410618286    1.1132242496
 O   -0.1800004505   -0.4645845023    2.3871656940
 C    0.5438368546   -1.0873179511    3.3598178804
 N    0.3288198705   -0.7952276336    4.5646637944
 H    0.7822579331    1.8500544160   -0.4753552998
 H   -0.9119117210    1.8257808597    0.0712216837
 H    0.4023229610    1.6702876107    1.2522707431
 H    0.2589963432   -0.2049075389   -2.0250142161
 H    0.0959098218   -2.8728622752   -1.5361549265
 H   -0.1997408766   -3.1269473665    1.1614207444
 H    1.2671650193   -1.8013220768    2.9506623420
 H    0.9592049063   -1.3210981666    5.1665518551