18

 C   -1.3792889604    0.9763406971   -0.7552877741
 C   -0.2253969217    0.1528029847   -0.1842640992
 O   -0.6162081800   -1.1482606927    0.2577994587
 C   -1.2868896376   -1.1993221955    1.4957740770
 C   -2.8016706507   -1.0689083826    1.3651431948
 O   -3.5254441030   -0.7768199018    2.2791552087
 C    0.8973275245    0.0122916182   -1.2287456602
 N    1.3663669212   -1.2458852663   -1.4032009665
 O    1.3169954719    0.9912666226   -1.8160198969
 H   -0.9749819508    1.8996671658   -1.1743005466
 H   -1.8853015353    0.4227522988   -1.5517318176
 H   -2.1108333153    1.2328702517    0.0166683517
 H    0.2224065058    0.6955621366    0.6629093452
 H   -1.0887147247   -2.1894699061    1.9290418684
 H   -0.9170704098   -0.4489105871    2.2078890525
 H   -3.1854100052   -1.3022243963    0.3464800085
 H    0.9443018288   -2.0135048284   -0.9108022144
 H    2.0912660124   -1.4024675689   -2.0829111002