21

 C   -0.0652414093    1.6173332683    0.1376564696
 C    0.0600480139    0.1019369294    0.0609159500
 C   -1.2973029610   -0.6260579663   -0.0409187075
 O   -1.1050032517   -1.9003260099    0.5531193992
 C   -0.3091160387   -1.6592794587    1.7063503920
 C    0.7335255415   -0.6010947751    1.2929430668
 C    2.0380197459   -1.1767501955    0.7093799883
 C    1.6996091704   -1.3298589006   -0.7760444824
 O    0.8811694537   -0.2061173895   -1.0726521858
 H    0.9225866994    2.0764586753    0.2315273765
 H   -0.5312553424    2.0077154151   -0.7727789830
 H   -0.6765942485    1.9194173511    0.9932285544
 H   -2.0799252749   -0.0633100442    0.4963003183
 H   -1.6051216603   -0.7667151383   -1.0790303812
 H   -0.9359354549   -1.2795273361    2.5305602428
 H    0.1275018844   -2.6118243899    2.0187104703
 H    0.9297630072    0.0976731981    2.1084975685
 H    2.8544766756   -0.4583295726    0.8324314960
 H    2.3401769101   -2.1154597164    1.1818678739
 H    2.5719181949   -1.2910469046   -1.4350509663
 H    1.1607475349   -2.2695355199   -0.9627715005