20

 C   -0.1911308049    1.4363155403   -0.0168332380
 N    0.0695338405    0.0063580348    0.0127652219
 C    1.0224841787   -0.5090331632   -0.9944057750
 C    2.4171769738    0.0093294978   -0.5290238730
 C    2.2675364699   -0.0082802832    1.0208408965
 C    0.7905903432   -0.5025052601    1.1938851376
 C    0.8204385817   -1.9929270207    0.8427718771
 O    0.8016492261   -2.9312283666    1.5926247253
 C    0.9278001177   -2.0163655616   -0.6930001233
 H    0.7015951195    2.0754642627    0.0857617528
 H   -0.6773106773    1.6896192164   -0.9644569103
 H   -0.8824619181    1.6932896318    0.7917482244
 H    0.7438822423   -0.2282919171   -2.0112660846
 H    3.2309910931   -0.6268930607   -0.8859459096
 H    2.6063273002    1.0188768779   -0.9025757454
 H    2.9805345645   -0.6708590014    1.5176267171
 H    2.3908113252    0.9865461806    1.4552812363
 H    0.3195546022   -0.2745078183    2.1488805710
 H    0.0167929094   -2.4522153781   -1.1134932486
 H    1.7823710022   -2.6128147012   -1.0226285524