16

 N    0.3126558046    0.9912691481    0.6767305369
 C   -0.2007848673   -0.1081024427   -0.1178048145
 C   -1.6670844960    0.0563828498   -0.5425913372
 C   -1.7464863479   -0.8611706465   -1.7784427387
 O   -0.4363292461   -0.8235484289   -2.3712977807
 C    0.4845456525   -0.3664188859   -1.4564027778
 N    1.7020135284   -0.1675850462   -1.7023707072
 C   -2.0996976729   -2.2488949908   -1.4315833365
 N   -2.3907735276   -3.3306257100   -1.1498453116
 H    1.2819105429    0.7923396294    0.9116116212
 H    0.3488263499    1.8306248808    0.1023159559
 H   -0.1062024459   -1.0262759395    0.4772959735
 H   -2.3831410981   -0.2106795058    0.2338702534
 H   -1.8548315130    1.0893806674   -0.8523874687
 H   -2.4553249873   -0.5043146028   -2.5298873860
 H    1.9364511238   -0.4048831064   -2.6672503220