17

 N   -0.1091159275    1.2576113170    0.0236907739
 C   -0.0629266479   -0.0013186326   -0.0016107255
 C   -1.2041577296   -1.0020192755   -0.0249702733
 C   -0.6904396498   -2.0523481605    1.0237864080
 C    0.4229951688   -2.2290779716   -0.0453485147
 C   -0.6845982130   -2.0091271548   -1.1125329770
 N    1.0551649733   -0.8936759281   -0.0165863950
 C    2.3806154274   -0.5864014011   -0.0070079853
 O    2.8304487996    0.5408607600    0.0168894097
 H    0.8372247784    1.6435575591    0.0340648810
 H   -2.2074756712   -0.5865431807   -0.0193096981
 H   -0.3909840434   -1.6946059455    2.0109028249
 H   -1.3491346680   -2.9187475227    1.1006416131
 H    1.1401455328   -3.0482465119   -0.0599567251
 H   -1.3427688101   -2.8716351490   -1.2279713450
 H   -0.3797936479   -1.6117812753   -2.0827202178
 H    3.0188823483   -1.4918201868   -0.0237068936