16

 O    0.1541291612    1.3253088176   -0.2950968982
 C   -0.0133873681   -0.0601242307   -0.2634678176
 C   -1.4277603358   -0.4438543025    0.1331037384
 O   -2.2466392237    0.4185377934    0.3769738252
 C   -1.7548895516   -1.9147688206    0.1353931313
 C   -3.2181395634   -2.3241032142    0.4356223600
 N   -3.2933889184   -2.8317339017   -0.9424176357
 C   -2.0269367416   -2.4823724148   -1.3093493056
 O   -1.3903468622   -2.5624166560   -2.3221904471
 H   -0.7089971637    1.6936344735   -0.0501674820
 H    0.1885311865   -0.5231185674   -1.2446790430
 H    0.6848646116   -0.5312522061    0.4491183294
 H   -0.9841696088   -2.4923563556    0.6511213908
 H   -3.3372932946   -3.0956837352    1.2006803612
 H   -3.8728114694   -1.4740905645    0.6373413403
 H   -4.0520084578   -3.2216252953   -1.4816039372