19

 C   -0.1239282047    1.4987962068    0.0195138522
 C    0.0612524525   -0.0045526349    0.0650250424
 C   -1.1398419015   -0.7481582091    0.6393671103
 C   -0.9147780562   -2.2534107163    0.9109790488
 O    0.0691828433   -2.4905771924    1.8864568571
 C   -2.1794108895   -2.8566871033    1.3706137857
 N   -3.1897842212   -3.3108365705    1.6970967493
 C    0.9619983964   -0.6266719863   -0.9413850035
 N    1.3871600466   -0.5253340052    0.4697095823
 H    0.7522191230    1.9939732258   -0.4115468640
 H   -0.9939436023    1.7674237963   -0.5889257687
 H   -0.2856570959    1.9018218568    1.0253806702
 H   -1.4219046113   -0.2826794472    1.5908947902
 H   -1.9902014959   -0.6284429837   -0.0421487997
 H   -0.6678004798   -2.7570174534   -0.0400868809
 H    0.8321507827   -1.9500001463    1.6005014194
 H    0.7992807400   -1.6388102244   -1.2985145744
 H    1.4381008062    0.0281970072   -1.6657154901
 H    2.0564091377    0.2281065201    0.5988826834