19

 C   -0.1587359421    1.5622158020    0.3995142640
 C    0.0119159555    0.0525231307    0.1297147628
 C    0.8337082999   -0.5958017089    1.2633138895
 C   -1.3450515675   -0.6425640129   -0.0360393144
 O   -2.1020645909   -0.5220125832    1.1751101273
 C   -3.3633319787   -0.0551107920    1.1016479251
 O   -4.0631458835    0.0647798050    2.0608620672
 C    0.7942878223   -0.1013848914   -1.1661282214
 O    0.3881346643   -0.6434364028   -2.1621756282
 H    0.8137848548    2.0624223895    0.4456188186
 H   -0.7508638644    2.0459080278   -0.3844133783
 H   -0.6617824337    1.7170543522    1.3573736107
 H    0.3090100628   -0.4799637399    2.2146264859
 H    0.9850904023   -1.6652280045    1.0847422330
 H    1.8166268682   -0.1224894712    1.3529211433
 H   -1.8980786575   -0.2090783931   -0.8767902153
 H   -1.2063717384   -1.7076871744   -0.2416240446
 H   -3.6654198181    0.2002317007    0.0670606631
 H    1.8154494847    0.3447045666   -1.1289205684