25

 C   -0.2337930641    1.3356765099   -0.3294331245
 C   -0.1459317174   -0.1916748413   -0.2908013483
 O    0.4832243912   -0.6873106633   -1.4773269984
 C    0.5762080661   -0.7089367701    0.9514202567
 C   -0.0656950558   -0.6111561276    2.3808732585
 C   -1.5848007652   -0.4724182427    2.4759796773
 C    0.4642321775   -2.0485370136    2.6681834378
 C    0.7780755639   -2.2482572773    1.1548280154
 C   -0.1739155183   -3.1846121417    0.4132818089
 H    0.7697553327    1.7793492429   -0.3058801583
 H   -0.7285137153    1.6620208126   -1.2484190112
 H   -0.7904525625    1.7320466002    0.5251550756
 H   -1.1583051607   -0.6072281801   -0.3370107823
 H    1.3952796509   -0.3756015741   -1.4710247570
 H    1.5596516039   -0.2180049660    0.9794910183
 H    0.3920037237    0.1642258038    3.0031439571
 H   -2.1085718836   -1.2271559734    1.8810621662
 H   -1.9050433286   -0.6000639770    3.5161902181
 H   -1.9317092530    0.5120151110    2.1447614636
 H    1.3565931997   -2.0580381539    3.2996564746
 H   -0.2651980769   -2.7433638079    3.0965428977
 H    1.8042834128   -2.5716940066    0.9551677343
 H   -1.2247584207   -2.9545170018    0.6185352867
 H   -0.0214312560   -3.1178483601   -0.6669672642
 H   -0.0037413344   -4.2206310422    0.7271875973