13

 N    0.0738889615    1.3514150405    0.0073819790
 C   -0.0807303646    0.0190889735    0.0010066980
 C   -1.1758123562   -0.7906438799    0.0032963175
 C   -0.7826513299   -2.2005681058   -0.0070424841
 O   -1.5189443473   -3.1635972004   -0.0075653260
 C    0.7548104630   -2.2669963917   -0.0166887447
 C    1.1727948140   -0.8129367522   -0.0112351120
 O    2.2822759159   -0.3320867638   -0.0155261915
 H    1.0175494905    1.7065633791    0.0036650851
 H   -0.6978225345    1.9929981529    0.0158555593
 H   -2.2137283282   -0.4837731900    0.0114344015
 H    1.1394615558   -2.8001673836    0.8586556810
 H    1.1288308799   -2.7905684286   -0.9023668530