16

 O    0.4523821108    0.9405047816   -0.8568229322
 C   -0.0077516154    0.4331067272    0.3825034962
 C   -1.2892149666   -0.3791903748    0.2244582843
 C   -1.1874152181   -1.8442049142   -0.2442741626
 C   -1.8080274852   -2.1760261366    1.1269952869
 O   -1.8157297488   -0.7780833450    1.5192054931
 C   -2.3628067119    0.4428250239   -0.4836077109
 O   -2.9095751862    0.1232923838   -1.5056683743
 H    0.6676423171    0.1962864384   -1.4290794254
 H    0.7470068723   -0.1773612500    0.8998384042
 H   -0.2154245771    1.3031608265    1.0152011039
 H   -1.7978244331   -2.0732866697   -1.1173630275
 H   -0.1692160259   -2.2107170056   -0.3912865409
 H   -2.8209280688   -2.5919608131    1.0984317787
 H   -1.1916157303   -2.7742231183    1.8059172604
 H   -2.6403128427    1.3682288359    0.0685281660