20

 C    0.4209334930    1.5997866437   -0.1806897701
 C    0.0514164530    0.1184856316    0.0003494112
 C    0.4873579528   -0.7267048655   -1.1746633068
 C    1.5414703928   -1.5026364322   -0.9162694748
 C    2.2712349743   -2.4002615085   -1.8640848641
 C    1.9927900411   -1.3457745557    0.5214915222
 C    0.7917677366   -0.6081495413    1.1796169082
 C    1.1637533813    0.2514991354    2.2976980953
 N    1.4603324983    0.9329343078    3.1835815303
 H    1.4995686774    1.7251736384   -0.3188290981
 H   -0.0779595404    2.0054592344   -1.0663531977
 H    0.1170529793    2.1950321507    0.6849852605
 H   -1.0307564233    0.0569035177    0.1654492853
 H    0.0094728625   -0.6385633640   -2.1451334664
 H    1.8266020587   -2.3788256649   -2.8624095990
 H    3.3249064205   -2.1064794823   -1.9536106874
 H    2.2681600421   -3.4387493801   -1.5096366552
 H    2.1991387788   -2.3001881150    1.0176973182
 H    2.9174884826   -0.7573898872    0.5833433072
 H    0.1092285185   -1.3700242031    1.5711564611