19

 C   -0.1431282652    1.4400315981    0.0390592882
 N   -0.0183765412    0.0005615839    0.0308452589
 C   -0.0669576012   -0.8036232713   -1.0866793142
 C   -0.0077094301   -2.1354609047   -0.7079397455
 C    0.0588607652   -2.1226316929    0.7076416912
 C    0.0261481550   -0.8214842359    1.1320581694
 C    0.2779529010   -0.7174344313    2.6032531919
 C    0.0191163808   -2.2079136930    2.9989559490
 N    0.2996212157   -3.0172811749    1.7786764556
 H    0.6010621367    1.8861368349    0.7064407244
 H    0.0296558605    1.8211002319   -0.9694737688
 H   -1.1387582778    1.7627027665    0.3677903694
 H   -0.1717931691   -0.3620885687   -2.0658244571
 H   -0.0066981114   -2.9814704428   -1.3774112638
 H    1.3130638100   -0.4228126079    2.8335223514
 H   -0.3808440994   -0.0420214549    3.1598647653
 H    0.6486765546   -2.5350436068    3.8308628305
 H   -1.0326126600   -2.3104703613    3.3041474621
 H   -0.2632368739   -3.8595362191    1.7507978821