17

 C   -0.0770255321    1.5015609775    0.1037348744
 N    0.0035837860    0.0599777506    0.1891638137
 C   -1.1918080387   -0.6888400739    0.6255818567
 C   -0.2491522578   -1.6567318036    1.3697643477
 C    0.8088988216   -0.5386007725    1.2723718121
 O   -0.6462859764   -2.0177306073    2.6822054976
 C   -0.6582566044   -3.3233306407    3.0186786711
 O   -0.9798879241   -3.7073499676    4.1014548416
 H    0.9060602760    1.9124939210   -0.1484827348
 H   -0.7733925132    1.7864245012   -0.6917929788
 H   -0.4169024992    1.9734271913    1.0448600846
 H   -1.8199843725   -0.1424348332    1.3476724052
 H   -1.8199181052   -1.0819147862   -0.1802205604
 H    0.0057600228   -2.5475076037    0.7881135412
 H    1.8348601018   -0.8074243311    1.0012980699
 H    0.8179106394    0.0556418732    2.2004730984
 H   -0.3403603637   -3.9824562953    2.1870954397