20

 O    0.0358427281    1.5263074292    0.0496444248
 C    0.0814076251    0.1214939160   -0.0085568207
 C    0.2415821891   -0.5920344987    1.3595802975
 N   -1.2272387500   -0.7617068598    1.3947564331
 C   -1.7670248210   -1.9645970324    1.9893315536
 C   -3.3070449336   -1.9381175496    1.9911153023
 C   -3.8855580465   -3.1325343410    2.5916493074
 C   -4.3342609905   -4.1277887721    3.0944653560
 C   -1.2998138534   -0.5819697888   -0.0737497455
 H   -0.5945772245    1.7653450584    0.7390803368
 H    0.8021459314   -0.1315303289   -0.7863659229
 H    0.7892904494   -1.5447097440    1.2707263028
 H    0.6667491463   -0.0055755826    2.1814879047
 H   -1.4209399222   -2.8780178051    1.4683129379
 H   -1.4088094102   -2.0307472223    3.0226451982
 H   -3.6417104633   -1.0416563903    2.5263688412
 H   -3.6688582308   -1.8344051507    0.9598282714
 H   -4.7437146557   -5.0021705174    3.5359830895
 H   -2.1409551938    0.0167397001   -0.4390688283
 H   -1.2600378941   -1.5330448704   -0.6312207899