19

 C    0.0688643873    1.6260813768    0.0431202139
 C    0.0777870594    0.0988416280   -0.0644747317
 C    0.8308159099   -0.5265234560   -1.2204844294
 C    2.3473430919   -0.3950143235   -1.2365450052
 C    1.6975671418   -1.6056704774   -0.6297089584
 C    1.8639364877   -3.0070119222   -1.1369796789
 O    1.5751598083   -1.5459394955    0.7904446770
 C    0.7182182382   -0.5547175817    1.1713665425
 O    0.5367700025   -0.2737069613    2.3199041413
 H    1.0837682157    2.0317629208   -0.0051232460
 H   -0.5124486775    2.0692585853   -0.7701332760
 H   -0.3726473232    1.9270596269    0.9965160288
 H   -0.9623426493   -0.2537762071   -0.0829632705
 H    0.3182821730   -0.6842931780   -2.1622217583
 H    2.8394126777   -0.5147038275   -2.1956069356
 H    2.8261015637    0.3136026673   -0.5679301236
 H    1.9290614172   -3.0071333806   -2.2285265399
 H    2.7782780015   -3.4592680226   -0.7400454601
 H    1.0165408342   -3.6328527515   -0.8398376301