16

 C   -0.0163531731    1.5217746752   -0.0403364844
 C    1.4141300940    2.0726085843    0.0238878041
 C    2.1054543108    1.6527739997    1.3299694852
 C    1.8609295850    0.2016783880    1.6581095817
 C    0.9296827192   -0.5425087184    1.0618776617
 C   -0.0160188908   -0.0135332490    0.0135801376
 H   -0.5890219818    1.9115768615    0.8114038082
 H   -0.5248137262    1.8689185401   -0.9463212732
 H    1.9868852242    1.6827747569   -0.8277790833
 H    1.4135848618    3.1638968923   -0.0706682351
 H    3.1849198574    1.8397837290    1.2634870220
 H    1.7537198904    2.2808509059    2.1626730038
 H    2.4937018578   -0.2417802689    2.4239160097
 H    0.8252304164   -1.5909084912    1.3329350217
 H   -1.0300218867   -0.3851711452    0.2093919262
 H    0.2586674818   -0.4263340002   -0.9691359661