19

 C   -0.1935661236    1.5390656070    0.0361948157
 C    0.0656085433    0.0345641483    0.0627389559
 C    0.8342140519   -0.5150259190   -1.1597918614
 C    1.4656199286   -1.8558710779   -0.6920188697
 C    1.2547079528   -1.9034644370    0.8464867189
 C    0.9104071430   -0.4615442172    1.2473449685
 O    2.0752408094    0.3600360052    1.3122641981
 H    0.7497841395    2.0907302752    0.0318479433
 H   -0.7625990728    1.8214930697   -0.8558728013
 H   -0.7674207178    1.8608433158    0.9121284691
 H   -0.8969736151   -0.4911109015    0.1328012453
 H    0.1835583794   -0.6362212117   -2.0305604495
 H    1.6183019241    0.1952729913   -1.4388635249
 H    0.9975124799   -2.7176932724   -1.1758250809
 H    2.5278359545   -1.8937179165   -0.9461297780
 H    0.4137932186   -2.5577721518    1.1037387761
 H    2.1270975473   -2.2827544128    1.3899408470
 H    0.3577823456   -0.4124467264    2.1978632257
 H    2.6655176113   -0.0159722281    1.9719358021