19

 C   -0.0595798654    1.5946047000    0.0010922300
 C    0.0702332485    0.0828369592    0.0243161519
 C    1.1517985234   -0.6231893230   -0.8371155248
 O    2.4092952808    0.0672738297   -0.7020573681
 C    2.8873194941   -0.3348600953    0.5754305101
 C    2.7438749831   -1.8612227343    0.5451090069
 C    1.2560001386   -1.7494826657    0.2538784706
 C    0.7473255549   -0.6261917587    1.2281160779
 O    1.9624866165    0.0639486661    1.5793391553
 H    0.9077527728    2.0625014116    0.1909506471
 H   -0.4247632043    1.9411582231   -0.9717044382
 H   -0.7645309308    1.9386667072    0.7655908244
 H   -0.8942482287   -0.4056726178   -0.1652847225
 H    0.9769376323   -0.8395868607   -1.8922586274
 H    3.8539054504    0.1275342680    0.7654084831
 H    3.3221424429   -2.3218001033   -0.2581869669
 H    2.9766551425   -2.3243779412    1.5058945379
 H    0.6427140837   -2.6378364149    0.1324744602
 H    0.1874653147   -0.8454501600    2.1387282223