15

 O    0.0074157021    1.4196924380   -0.0499714573
 C    0.0372746898    0.0074383175   -0.0294567653
 C   -1.3548329598   -0.5499808827   -0.0878784189
 C   -1.9193372974   -2.0010867382    0.0642347947
 C   -3.1760831950   -1.0704108900    0.0530466374
 N   -2.4151365924   -0.0623356715    0.9157292336
 C   -2.4868434874   -0.3668398293   -1.1322860177
 O   -2.6869358749    0.0215197049   -2.2341357348
 H   -0.7369568510    1.6928516421    0.5007478346
 H    0.6091804174   -0.3221882740   -0.9039949062
 H    0.5546906884   -0.3781066275    0.8661451362
 H   -1.7755827963   -2.7198161100   -0.7480482472
 H   -1.7198652839   -2.4446232068    1.0443576710
 H   -4.2183113542   -1.3209107692    0.2365385098
 H   -2.2165051551   -0.5255159634    1.8097292402