14

 C    0.0700793918    1.4396295820   -0.1132875338
 N   -0.0166356097   -0.0069072579   -0.1144106606
 C   -1.1308777760   -0.5749424391    0.0687271427
 N   -1.1621065123   -1.9844020276    0.0585803529
 C   -2.2569944184   -2.7740562684    0.2358224158
 O   -2.2867706799   -3.9674640185    0.2277808526
 O   -3.4344335021   -2.0524088047    0.4438377977
 C   -3.3831181885   -0.6967302286    0.4500551170
 N   -2.3691649511    0.0461060971    0.2859496299
 H    0.7809125379    1.7508580105    0.6609016394
 H    0.4867533756    1.7698356203   -1.0718576874
 H   -0.8865957547    1.9446583403    0.0546623628
 H   -0.2829026225   -2.4580182348   -0.0960155630
 H   -4.3723556599   -0.2822777408    0.6226975739