12

 O    0.0191947557    0.0594400720    0.0132063588
 C    0.0011345297    1.2538158599    0.0805999484
 C   -1.0604804274    2.3052074434    0.0686626655
 C   -0.4479155151    3.5204999083    0.7069611518
 C    0.9540910022    3.1978596903    1.2071586271
 C    1.0441814311    2.3632011354   -0.0871834792
 N   -0.1157183113    3.2282452841   -0.7097318032
 H   -2.1145452223    2.2294431810   -0.1642661147
 H   -1.0776768890    4.3632308824    0.9711269510
 H    1.5892187762    4.0857651988    1.1586128333
 H    1.0934220132    2.6880158856    2.1647087451
 H    1.9692468868    2.2021719088   -0.6338978639