16

 C    0.0719104252    1.5079569521   -0.0357455516
 C   -0.1323110354    0.0396003097    0.1299243069
 C   -1.4216066596   -0.7838752145    0.0261640713
 C   -0.7999863830   -1.8253930991    1.0344612312
 O   -0.5957853587   -3.1341136808    0.6097197860
 C    0.4574087703   -0.9234178558    1.0990325468
 O    0.9338838741   -0.8465232470   -0.2579293876
 C    1.3908208203   -0.7361060341    2.1633077241
 N    2.1089941536   -0.5899671205    3.0583674238
 H    1.0772817994    1.7938509944    0.2824331238
 H   -0.0537440780    1.7924756464   -1.0859004380
 H   -0.6607448000    2.0650816434    0.5554791907
 H   -2.2999555886   -0.2792490820    0.4348338490
 H   -1.6452275174   -1.1692206238   -0.9710909665
 H   -1.3411138345   -1.8648287133    1.9815748934
 H   -0.0220806078   -3.0903413652   -0.1662671631