24

 C   -0.0043958953    1.6005267562    0.0450520323
 C    0.0005307997    0.0708183489    0.1063553592
 C   -1.3997923240   -0.5404259486   -0.0152637075
 C   -1.4018704500   -2.0712437027    0.0473182954
 C   -2.8139561472   -2.6606503674   -0.0796767744
 N   -2.8629848975   -4.1120460206   -0.0275584882
 C   -2.6376473078   -4.7809069888    1.2421286302
 C   -3.1324346986   -4.8532876545   -1.1399305176
 O   -3.1838738860   -6.0647359822   -1.1909104586
 H    1.0077154813    2.0069736045    0.1343365932
 H   -0.4241130986    1.9576353855   -0.9019812412
 H   -0.6071364357    2.0274459499    0.8543778968
 H    0.6385140591   -0.3271684822   -0.6934933312
 H    0.4571203297   -0.2577332077    1.0492976956
 H   -2.0398288300   -0.1412720545    0.7841774416
 H   -1.8572110897   -0.2121739612   -0.9593489042
 H   -0.7754816870   -2.4817104657   -0.7547813732
 H   -0.9490558011   -2.3970464952    0.9919661350
 H   -3.4564721322   -2.2550912387    0.7147204486
 H   -3.2550285604   -2.3461567790   -1.0324182718
 H   -3.3170268224   -4.3862727253    2.0072330076
 H   -2.8286096270   -5.8439340234    1.0944450551
 H   -1.6078973568   -4.6498920319    1.5933883901
 H   -3.3094759825   -4.2086060853   -2.0238951929