16

 N   -0.0956755378    1.7404114064   -1.5183700857
 C   -0.0509067614    0.6560194636   -0.8769737449
 C   -1.2843175961   -0.2165433714   -0.7536948516
 C   -2.1912150486    0.2051456990    0.3868988765
 C   -3.0213296224   -0.7649732520    1.1083753417
 O   -1.8315900360   -0.2321336214    1.7021389769
 O    1.1467475276    0.2173735719   -0.3324474309
 C    1.2174327284   -0.6256858502    0.7502707755
 O    2.2683799380   -1.0617088783    1.1023620699
 H    0.8101573872    2.2126351045   -1.4944995738
 H   -1.8377475441   -0.0900044622   -1.6882738786
 H   -1.0200280457   -1.2727944657   -0.6535809604
 H   -2.5212796563    1.2421971273    0.3395975265
 H   -3.9522285463   -0.4441666870    1.5713867787
 H   -2.9743776878   -1.8182552459    0.8362947478
 H    0.2499694014   -0.8057523883    1.2388543722