24

 C   -0.0004994233    1.6887868021    0.8623784568
 O   -0.2989367442    0.3163522114    0.7995114475
 C    0.7334401527   -0.4433554274    0.2110341148
 C    0.2925338295   -1.9028532200    0.1881617268
 N    1.3483779860   -2.7108840547   -0.4052244186
 C    2.2726475219   -3.4027406729    0.4930920444
 C    1.3030983084   -4.1769261274   -0.3389545848
 C    0.1503981484   -4.8914739997    0.3433635619
 C    1.7916813001   -4.8587704041   -1.6026415231
 H    0.1588964154    2.1202065603   -0.1389286143
 H   -0.8517364783    2.1898471241    1.3302778539
 H    0.9015150924    1.8850000171    1.4643931267
 H    0.9444605212   -0.1009874038   -0.8145900864
 H    1.6697873282   -0.3414827365    0.7865985568
 H    0.0223793973   -2.1984741525    1.2139692807
 H   -0.6108492046   -1.9899541932   -0.4259840763
 H    3.3262528985   -3.3573992479    0.2265354991
 H    2.0755627093   -3.3436242727    1.5637693977
 H   -0.1511955273   -4.4117111532    1.2765511484
 H   -0.7252229277   -4.9375972333   -0.3149847643
 H    0.4361544905   -5.9224263701    0.5781683626
 H    2.1606936995   -5.8678052718   -1.3859085497
 H    0.9799733892   -4.9491768778   -2.3339088508
 H    2.5972486267   -4.2823400759   -2.0632412497