21

 C   -0.2588064984    1.4553314469   -0.2205870136
 C    1.2004330398    1.1966836216    0.0546859990
 C    0.2275977065    0.0416241544   -0.0098199969
 C   -0.1342774296   -0.7123183947    1.2383501592
 C   -1.3601592777   -1.6835487885    1.2307741645
 C   -0.5370678793   -2.7110732407    2.0639459970
 C    0.7124489933   -1.9177717502    1.6785634686
 C    1.9685917392   -2.4066725511    1.1069515765
 O    1.9082856616   -1.8462466846    2.4285074289
 H   -0.8520439879    1.9078859452    0.5673864491
 H   -0.5483845770    1.7562936983   -1.2212430658
 H    1.9070865951    1.3217045682   -0.7582761702
 H    1.5922803147    1.4696057516    1.0286918952
 H    0.2846933952   -0.5774172536   -0.9024262268
 H   -0.2154557374   -0.0161844712    2.0827631082
 H   -2.2862267412   -1.3126606676    1.6726938776
 H   -1.5735889579   -2.0499290953    0.2228405995
 H   -0.7401663921   -2.6341019952    3.1362176456
 H   -0.5836001719   -3.7621160609    1.7699545891
 H    2.1623945885   -3.4781869891    1.0639734991
 H    2.5027286166   -1.8053901436    0.3728599763