18

 O    0.2064550514    0.4552547306    1.0014258515
 C   -0.1213042710    0.1835294032   -0.3522110237
 C   -1.4618610765   -0.5081025916   -0.3626478934
 C   -1.9234908495   -1.5113421769   -1.3749403332
 C   -0.7980969700   -2.4398686448   -1.8496476137
 C   -0.5097184247   -2.8513701779   -0.3713391538
 C   -1.6613994424   -1.9402738272    0.0939285368
 C   -2.6061778520   -2.2811275840    1.1053294502
 N   -3.3721454693   -2.5772264177    1.9219315425
 H    1.0208993130    0.9668696872    1.0183562901
 H   -0.2009914472    1.1099963420   -0.9427621455
 H    0.6488107986   -0.4372308492   -0.8308793298
 H   -2.2667627435    0.1339586499   -0.0136974447
 H   -2.8863052420   -1.4072494975   -1.8599364304
 H   -1.1815551942   -3.2778174923   -2.4341992134
 H    0.0157201629   -1.9726599182   -2.4109595365
 H   -0.7172995230   -3.9054572748   -0.1853306589
 H    0.4716369893   -2.6066129008    0.0420782359