20

 C   -0.4503264547    1.6684057538    0.3379036312
 C   -0.3002753660    0.2164087049    0.0017621792
 C   -0.9340162160   -0.9046597001    0.7934520624
 C   -1.9680801909   -1.9798045726    0.4727854994
 O   -2.6809235431   -2.2108342332    1.6835936977
 C    0.5601011235   -0.8921183852    0.5981821857
 C    1.0103829817   -1.1939655516   -0.8387675354
 C   -0.0574528984   -1.4395338401   -1.8318362043
 N    0.2126582237   -0.0522257710   -1.4095736173
 H    0.4370197433    2.2297142621    0.0290164067
 H   -1.3133054194    2.0987297576   -0.1846209517
 H   -0.5992589489    1.8097729305    1.4124168848
 H   -1.1685903087   -0.5124837534    1.7827028399
 H   -2.6543144403   -1.6421293256   -0.3203332502
 H   -1.4814575110   -2.9036962959    0.1291082258
 H   -3.3347129182   -2.8968674473    1.5184391550
 H    1.2605648636   -0.8504661007    1.4232200267
 H    2.0603372799   -1.3019862628   -1.0925469401
 H    0.2702665534   -1.6121302544   -2.8545382921
 H   -0.9912315036   -1.9249647150   -1.5892018436