20

 C   -0.1244658239    1.5945861271   -0.0971475544
 C   -0.0301102338    0.0935286373    0.1266063508
 C    0.5225976863   -0.7904144923   -0.9978178264
 N    1.9508580972   -0.4065310196   -1.1774464750
 C    1.5736750561   -1.3687708086   -0.1157946041
 C    2.1836699693   -2.7405827255   -0.0747209266
 O    2.2648875985   -3.3272387270   -1.3687565734
 C    1.1385564774   -0.4630695334    1.0509886013
 O    2.1044380200    0.4357749526    1.5179489361
 H    0.7940221712    1.9824340489   -0.5443496284
 H   -0.9550241281    1.8373725490   -0.7687435972
 H   -0.2893031953    2.1189306537    0.8491199971
 H   -0.9855096551   -0.3051221678    0.4840740315
 H   -0.0202711310   -1.2474032073   -1.8179333401
 H    2.3188590332   -0.9735620152   -1.9419211143
 H    3.2150776431   -2.6828514954    0.2921395271
 H    1.6256247711   -3.3801856707    0.6254535110
 H    1.3696638294   -3.5522158136   -1.6427086733
 H    0.7562194957   -1.0082660459    1.9177327633
 H    2.5573146689    0.7550823435    0.7246299849