14

 O    0.5705758515   -0.1725976788   -0.0254633393
 C    0.2048307470    0.9689753190   -0.0730239690
 C    1.1564493054    2.1638271310    0.0702338394
 O    2.4546339132    1.7821899886    0.4427708337
 C    3.1502003116    1.5752216675   -0.7623920689
 O    2.7246129762    2.6143332391   -1.6366907469
 C    1.3951559714    2.9428543800   -1.2817755094
 C    0.4439183463    2.5878175487   -2.3495027133
 N   -0.3159977316    2.3278995776   -3.1799829837
 H   -0.8626007854    1.2468845657   -0.2096291304
 H    0.7508481996    2.8352634921    0.8348537456
 H    4.2211797421    1.6859081101   -0.5821249294
 H    2.9153378042    0.5908402745   -1.1890370598
 H    1.3339887584    4.0241244551   -1.1201984586