18

 O   -0.1897918997    1.3269850077   -0.4036219614
 C   -0.0907756968   -0.0464199932   -0.1766264569
 C   -0.3244196284   -0.5862501653    1.2161343507
 C   -1.3667700265   -0.7736193261    0.1433027942
 C   -2.6883954888   -0.0242761171    0.1607935179
 O   -3.4523627712   -0.5866419226   -0.9209066267
 C   -2.9319507347   -1.7854077439   -1.3203737179
 N   -3.4105803269   -2.5066398452   -2.2386944525
 C   -1.7036722626   -2.1094358954   -0.4926980237
 H    0.5743484166    1.7557052084   -0.0046070353
 H    0.6284338471   -0.5673536748   -0.8095048959
 H    0.2418884186   -1.4503415649    1.5488461586
 H   -0.5356192154    0.1464767308    1.9896610244
 H   -3.2387412991   -0.1802349843    1.0976255802
 H   -2.5705736185    1.0457779308   -0.0169466295
 H   -4.2482301724   -2.0734343320   -2.6316150497
 H   -0.9125937948   -2.5304508668   -1.1153325165
 H   -1.9664559667   -2.8614282761    0.2617298000