16

 C   -0.0729413725    1.5368406992    0.0217165311
 C   -0.0253248244    0.0370991020    0.0076367832
 C    0.3930107039   -0.7622116775   -1.2488651675
 C   -0.5815514219   -1.7994918671   -0.7287894617
 C   -0.5117870289   -1.8112784064    0.7637099256
 C    0.5077441396   -0.7815603977    1.2069413244
 N   -1.3662007650   -0.7909031052    0.0637810122
 H    0.9403717207    1.9533949732   -0.0219818638
 H   -0.6355976096    1.9180917421   -0.8363412545
 H   -0.5534612268    1.9040306700    0.9341150399
 H    0.0149116820   -0.2903537994   -2.1602419520
 H    1.4497638340   -1.0223227010   -1.3758886985
 H   -1.0850926025   -2.5823234491   -1.2851250168
 H   -0.9618105610   -2.6031652202    1.3521673412
 H    1.5715520962   -1.0428302921    1.2307875841
 H    0.2165936663   -0.3243824710    2.1569089332