15

 O    0.2913189617    1.2244494956    0.0137650566
 C    0.0019451172   -0.0805870263   -0.4322042252
 C   -1.4154173165   -0.4938949773   -0.0670616930
 C   -1.6824549073   -1.8578515582    0.4411600588
 O   -1.5790603759   -0.7671872539    1.3451245427
 C   -2.4848138409    0.2453340371   -0.6848273791
 C   -3.3531791750    0.8649818093   -1.2517935232
 C   -4.4171847065    1.6039090963   -1.8829522964
 O   -4.4076380222    1.9624301079   -3.0377023141
 H    0.1798514862    1.2311309087    0.9714481686
 H    0.1215229068   -0.0748008668   -1.5196302829
 H    0.6936073640   -0.8249447256   -0.0104532784
 H   -2.6780868092   -2.2802330531    0.3238652069
 H   -0.8627975872   -2.5748666892    0.4639027308
 H   -5.2714720653    1.8249829655   -1.2117326822