14

 C   -0.0023386890    1.5080398567    0.0966292336
 C    0.0162093009    0.0225808421   -0.0277810191
 C   -0.0003325314   -0.7973976693   -1.1540911817
 C    0.0321766687   -2.1204694511   -0.6319206149
 N    0.0657846090   -2.1306149678    0.6905101963
 N    0.0552793986   -0.8214186416    1.0298627395
 C   -0.0404673641   -0.3855499437   -2.5039392602
 C   -0.0746947566   -0.0356896764   -3.6566012928
 H    0.8898261711    1.8843628444    0.6098976254
 H   -0.0330616407    1.9534907381   -0.8995265100
 H   -0.8790499568    1.8586860741    0.6529197567
 H    0.0316849367   -3.0469226391   -1.1860743133
 H    0.0762878012   -0.5744893308    2.0053438733
 H   -0.1047908376    0.2672628643   -4.6734719929