23

 C    0.0933657532    1.5169140781   -0.0725701630
 C    0.0410976514    0.0625566097   -0.0194073905
 C    0.0029852574   -1.1425030207    0.0188798976
 C   -0.0240186450   -2.5756766363    0.0523609802
 C   -0.5225905092   -3.3329869593    1.2883319467
 C   -0.9368191804   -2.6068688055    2.5481186543
 C   -1.3424254924   -3.3599473122    0.0215041266
 C   -2.6511944657   -2.5999671505   -0.0643666325
 C   -1.3332442066   -4.6488840811   -0.7798460901
 H    0.7875994321    1.8595668141   -0.8482922415
 H   -0.8892704560    1.9457645424   -0.3000793216
 H    0.4277553328    1.9444340390    0.8796888341
 H    0.8004118766   -3.0463788414   -0.4780555254
 H    0.0294957908   -4.2505033741    1.4812208734
 H   -1.3579645325   -1.6223916490    2.3348782513
 H   -1.6805416673   -3.1837621402    3.1091140161
 H   -0.0717270757   -2.4541264193    3.2024107931
 H   -2.6038850003   -1.6307189167    0.4340351708
 H   -2.9159883658   -2.4155576450   -1.1118112885
 H   -3.4659836884   -3.1794603886    0.3854574280
 H   -2.1068074915   -5.3381923474   -0.4200274111
 H   -1.5291175179   -4.4561006083   -1.8412065741
 H   -0.3698158895   -5.1631205876   -0.7050260639