16

 O   -0.0486792908    1.4333491343   -0.0573364364
 C    0.0069753141    0.0386913754    0.0046953411
 C    0.0031510998   -0.6673430975    1.4163318001
 C   -1.4636652137   -0.1619202227    1.4854242140
 O   -2.2319261165    0.3090222436    2.2578301153
 C   -1.3848152765   -0.6584088962    0.0181865438
 C   -0.6247469693   -1.8511976434    0.6477030762
 C   -0.0463399352   -3.0883280086    0.1027793438
 N   -1.1645918144   -3.1103982778    1.0905793178
 H    0.8269101173    1.7866402723    0.1298855013
 H    0.7202690314   -0.3995991346   -0.7018376444
 H    0.7867350096   -0.6850276457    2.1715816554
 H   -2.1371592311   -0.6697608375   -0.7652523542
 H   -0.3162059310   -3.4400553305   -0.8889678126
 H    0.9445891408   -3.3866393382    0.4362273871
 H   -0.8190844745   -3.3564319729    2.0153828317