19

 C    0.1481581728    1.2931157438   -0.1539964354
 O   -0.1579611485   -0.0515177099    0.1991769904
 C    0.5912471212   -0.5201425690    1.2479484015
 C    2.0484571806   -0.9942060228    1.0697420094
 C    2.6983813865   -1.0059294610    2.4514135889
 C    1.3140734574   -1.4837790166    2.9690408792
 C    0.9587618183   -1.9573507166    1.5050387328
 C    0.3689624071   -0.2633981451    2.7246943638
 O    0.7307474729    1.0155080331    3.2010282632
 H    1.1918376847    1.3890540602   -0.4827481109
 H   -0.5163411456    1.5615974453   -0.9781929869
 H   -0.0173105618    1.9740513837    0.6890099401
 H    2.5115687064   -0.9333604501    0.0930212649
 H    3.4526499459   -1.7933426098    2.5360847172
 H    3.0798733625   -0.0652889599    2.8599953312
 H    1.2166109258   -2.0799871333    3.8738403248
 H    0.5751731314   -2.8745868352    1.0856705705
 H   -0.6649816083   -0.5188207889    2.9948467027
 H    0.4639382508    1.0865731322    4.1231080925