15

 N    0.0874043070    1.4299623089    0.0836224711
 C    0.0228915138    0.0208263506    0.0041510043
 C   -1.0748767122   -0.8191142002    0.0185977632
 N   -0.6351518173   -2.1103486070   -0.0004471215
 C    0.7532514456   -2.1238450051   -0.0409835742
 C    1.5118884106   -3.3037392871   -0.0584801020
 N    2.1597705419   -4.2686427476   -0.0676640095
 C    1.1834589018   -0.7987904044   -0.0316987052
 N    2.4818661113   -0.3072702755   -0.1046369277
 H    0.5374577185    1.8298438609   -0.7344512925
 H   -0.8294885390    1.8496472802    0.1749387205
 H   -2.1275143638   -0.5864930153    0.0484557175
 H   -1.2119294027   -2.9316346245    0.0010706162
 H    3.1932836700   -0.9892923497    0.1235086947
 H    2.6005904244    0.5372279158    0.4426225951