22

 C   -0.0037010631    1.3276798342   -0.4614488164
 C    0.1441053106   -0.0833365581    0.0651049477
 O   -0.8261974685   -0.9603168317   -0.4536850951
 C    1.5091159375   -0.6740382633    0.3527281425
 C    0.5379488208   -0.3903023832    1.4928833321
 C    0.8710608525    0.7505528716    2.4444380265
 C   -0.1519012361   -1.5204774168    2.2093910501
 C   -0.0212222575   -2.9486629689    1.8632426378
 N    0.6252910162   -2.4296577842    3.0848892900
 H    0.7570972241    2.0034037919   -0.0658964524
 H    0.0948719756    1.3310435503   -1.5545020940
 H   -0.9914669343    1.7300116540   -0.2145696348
 H   -0.6734442151   -1.0371970799   -1.4021432908
 H    1.6731619793   -1.6998821798    0.0418353882
 H    2.3825439853   -0.0343518441    0.2702248452
 H    1.4384682652    1.5490865232    1.9610750201
 H   -0.0402986751    1.1912364514    2.8643409343
 H    1.4711839270    0.3784196817    3.2815679335
 H   -1.0897167478   -1.2139354520    2.6710588714
 H   -0.8599382803   -3.6170185122    2.0368204441
 H    0.6033462269   -3.2296671442    1.0220607064
 H    1.6156956866   -2.2901904499    2.8895146037