16

 C   -0.0630435545    1.5501466241    0.0910446339
 C    0.0714358072    0.0627259731    0.0448720236
 N   -0.8473096710   -0.8848012382    0.6971660314
 C    0.6064873916   -0.9343752040    0.9996835775
 C    1.3183751472   -1.7018183683   -0.1549963654
 N    0.3249381003   -2.1353325284   -1.1422022686
 C    0.7750697573   -0.7147387794   -1.1414291061
 C    1.4179231096   -0.1104567897   -2.2529264306
 N    1.9353880954    0.4075158303   -3.1513669409
 H    0.8599924869    2.0389736321   -0.2369587301
 H   -0.8727109626    1.8928770028   -0.5629378812
 H   -0.2815606283    1.8852936216    1.1100730851
 H   -1.2888585387   -0.3792748398    1.4661522595
 H    0.9946801263   -0.8083320534    2.0013949871
 H    2.3155527502   -2.1192161970   -0.1129759245
 H    0.8297642031   -2.6027052258   -1.8970773106