16

 O    0.1103862157    1.3708208817   -0.1185028069
 C   -0.0029633170   -0.0082945447    0.0103941710
 C   -0.4336852901   -0.7011677462    1.2782337982
 C   -1.1899159019    0.1597939955    2.2700097444
 O   -2.1532716560    0.8926460897    1.4931577187
 C   -2.5460565962    0.0649503614    0.3936198741
 C   -3.0511449688    0.9309109721   -0.6816362184
 N   -3.4739740119    1.5745926114   -1.5419432595
 C   -1.3150526080   -0.7554752378    0.0316653981
 H   -0.6246863415    1.7870602228    0.3503919356
 H    0.7922951196   -0.4920938861   -0.5467652505
 H    0.0947399676   -1.5725120082    1.6474162820
 H   -1.6934801830   -0.4597465843    3.0250471690
 H   -0.5741596206    0.9059349591    2.7806567406
 H   -3.3654794715   -0.6083258115    0.6897291093
 H   -1.4611684664   -1.6554179548   -0.5532872957