16

 C   -0.3701476255    1.0024536129    0.6134245049
 C   -0.1027698985   -0.3550748870    0.1598094018
 C    0.1372821665   -1.4733170091   -0.2203894695
 C    0.3671937157   -2.8456202671   -0.6886421107
 N   -0.8366661793   -3.6775577989   -0.8187188392
 C   -1.5513585651   -3.8345315745    0.4467144556
 C   -2.7657178548   -4.6321760638    0.2636236893
 N   -3.7367361044   -5.2410113160    0.1205575678
 H    0.3430642429    1.7107112122    0.1779652753
 H   -1.3757865717    1.3265448053    0.3243504531
 H   -0.2951481286    1.0824396861    1.7032709079
 H    0.8586287387   -2.8294247897   -1.6677826285
 H    1.0583037115   -3.3607483282   -0.0087292348
 H   -1.4606856746   -3.2546514409   -1.4993318143
 H   -0.8968401605   -4.3583336187    1.1549019971
 H   -1.8327461323   -2.8798241726    0.9223072843