15

 C    0.0067095065    1.5822604446   -0.0488746498
 C    0.0591764410    0.0733448194   -0.0810431953
 C    0.6407310606   -0.7613754869   -1.2224654670
 C    1.9149182728   -0.1361777062   -1.6916453103
 N    2.3974909212    0.1647997099   -2.8028848622
 O    2.4621250161   -0.0233522368   -0.4040075888
 C    1.3150967918   -0.7169929879    0.1484695592
 C    1.5359891070   -1.7265580397    1.1280000121
 N    1.6894174751   -2.5406826720    1.9352882766
 H    0.9359496810    2.0246996928   -0.4120938125
 H   -0.8155477558    1.9445197897   -0.6727970564
 H   -0.1611035078    1.9331703129    0.9737122280
 H   -0.8101180353   -0.4251089644    0.3439695945
 H    0.1025527211   -1.5620897143   -1.7079220173
 H    3.3355250546    0.5590593388   -2.7180683609