16

 C   -0.0304163617    1.4944917517   -0.0219557288
 C    0.0729412485   -0.0146127723    0.0048104593
 O    1.1378385341   -0.5937117294    0.0590753596
 N   -1.1377684277   -0.7139139690   -0.0333698842
 C   -2.4363622955   -0.1809253337    0.0314148067
 N   -3.3357926437   -1.1091651970    0.0695258498
 C   -2.6530978081   -2.3177832279    0.0266417336
 C   -1.3022177972   -2.1108196915   -0.0387109571
 N   -0.2360030205   -2.9714064488   -0.1851946792
 H    0.9806685986    1.8991735303   -0.0319841675
 H   -0.5737360711    1.8365333601   -0.9074111434
 H   -0.5607867006    1.8649866921    0.8605262239
 H   -2.6110749275    0.8818163011    0.0520782708
 H   -3.1748599130   -3.2616366356    0.0360251958
 H   -0.4116511895   -3.9041620499    0.1559958685
 H    0.6527605546   -2.5796891201    0.0951415722