21

 O   -0.1143800429    1.2389172816   -0.9178906597
 C   -0.2741037611    0.1933202976    0.0226356641
 C   -1.7114667107   -0.3002196776    0.0625168653
 O   -2.0256051978   -0.7587994679   -1.2471332857
 C   -3.3937784693   -0.9288526654   -1.4665032540
 C   -4.3163766407    0.2264515479   -1.7264790404
 C   -3.5814668204    1.3310738582   -2.4995395750
 C   -3.2352381463    0.3049789602   -3.6248874962
 C   -3.9551206808   -0.7965978413   -2.8381979614
 H   -0.4597746895    0.8941593962   -1.7494522175
 H    0.3943964268   -0.6526764353   -0.2017051681
 H    0.0067219184    0.5931860561    1.0023405236
 H   -1.8272521575   -1.1125605347    0.7978296538
 H   -2.3844308995    0.5215864151    0.3444375214
 H   -3.8350769554   -1.7303453043   -0.8712258677
 H   -5.2455054342    0.3510005329   -1.1821219356
 H   -4.2519642468    2.1178292843   -2.8500123338
 H   -2.7380264597    1.7935379840   -1.9789522610
 H   -3.7408526348    0.5412984503   -4.5631824063
 H   -2.1763858802    0.1271635477   -3.8322666504
 H   -4.5592904176   -1.5826797655   -3.2765290355