20

 C   -0.0765576401    1.4840073457    0.0654767842
 C   -0.0029837168   -0.0294344408    0.0292098521
 C    1.0328987446   -0.6357478335   -0.9599984259
 C    1.7190030557   -1.2365681148    0.2601692306
 N    0.7459609748   -0.5659268998    1.2344370813
 C    0.7826548034   -2.0169203403    1.0781624057
 C   -0.3273961293   -3.0007772641    0.7097780213
 O    0.0897887126   -3.8853329609    1.7716010883
 C    1.1022694315   -2.9602341316    2.2309817318
 H    0.9238531082    1.9162286799    0.1698032387
 H   -0.5267196556    1.8701437025   -0.8554113385
 H   -0.6792352918    1.8204501783    0.9145938611
 H   -1.0116818654   -0.4529784832   -0.0438885784
 H    0.6747838085   -1.3398781225   -1.7176046260
 H    1.6294384487    0.1355419265   -1.4523382206
 H    2.7894163678   -1.2497018203    0.4456673427
 H   -1.3506225311   -2.6313187761    0.8621941162
 H   -0.2583876536   -3.4767694340   -0.2764436985
 H    2.1012795375   -3.4128243041    2.2354042236
 H    0.8769560705   -2.5533409867    3.2242646302