18

 O    0.1864571073    1.0390904442    0.7051206046
 C    0.0341093394    0.0186121890   -0.2671639872
 C   -1.3592094242   -0.5862597584   -0.2501877301
 C   -1.6380177660   -2.0866044395   -0.1519036024
 C   -0.5130479422   -3.0380738192    0.2545454641
 C   -0.3074866154   -2.7297731600    1.7564467332
 O   -0.8874487578   -1.4396802820    2.0038412210
 C   -1.8762197504   -1.1915539460    1.0271985714
 H    0.0350498634    0.6070431256    1.5549581017
 H    0.2218005261    0.4877408080   -1.2381559740
 H    0.8008740503   -0.7583963428   -0.1400523985
 H   -2.1005333650   -0.0326075765   -0.8205585293
 H   -2.4647238998   -2.4841630049   -0.7282845282
 H   -0.8181116632   -4.0770452622    0.1043282582
 H    0.4037566870   -2.8841386485   -0.3217096835
 H   -0.8096240336   -3.4806712636    2.3826759783
 H    0.7441517573   -2.6824439527    2.0528838209
 H   -2.8549484433   -0.9539003005    1.4314105096