20

 C   -0.0377047468    1.5374768587   -0.0173045276
 C   -0.0179972307    0.0039934489   -0.0182877117
 C   -1.4481469670   -0.5630055278    0.0289588169
 C    0.7206389263   -0.5119051564   -1.2634449297
 O    0.9477448758   -1.9030596232   -1.1759221633
 C    1.8698879871   -2.2119028086   -0.1478860670
 C    1.5985000997   -1.5264856535    1.1907792683
 O    2.1489700630   -1.8975196871    2.2105035534
 N    0.7494652600   -0.4608142573    1.1451341501
 H    0.9781014706    1.9431027179   -0.0275920644
 H   -0.5753879970    1.9179068393   -0.8913105957
 H   -0.5479012523    1.9171923076    0.8746920542
 H   -2.0544826251   -0.1629562548   -0.7904787567
 H   -1.4240087763   -1.6518991026   -0.0558925851
 H   -1.9369505619   -0.2984775891    0.9719377268
 H    0.1121621412   -0.3445194774   -2.1561966212
 H    1.6731518977    0.0301093800   -1.3832255583
 H    1.8349676570   -3.2910402081    0.0133478942
 H    2.8980256127   -1.9493234450   -0.4478128805
 H    0.5466481260   -0.0500599818    2.0472192474