20

 C    0.1976014719    1.1304014409   -0.2925946210
 O    0.1763626344   -0.2394275910    0.0741818292
 C    0.6261839612   -0.4886125137    1.3687537477
 C    0.5394555687   -1.9928127838    1.6341761227
 C    1.8956303559   -2.4858546618    1.1117242881
 C    2.7955635138   -1.2849554294    1.3116730289
 O    2.0139526999   -0.1622189890    1.5125873311
 N    4.0521079115   -1.2986754182    1.3129001029
 C    4.7948775400   -0.0627892588    1.4957683288
 H    1.2183513819    1.5286870801   -0.3017445866
 H   -0.2273511124    1.1964219433   -1.2959758686
 H   -0.4116983024    1.7347190412    0.3959475268
 H    0.0942314799    0.1444134581    2.0919424654
 H    0.4460528771   -2.1674264944    2.7096094944
 H   -0.3227231806   -2.4287323495    1.1295020922
 H    2.2921259353   -3.3601767453    1.6277989817
 H    1.8420828162   -2.7202377279    0.0439166438
 H    5.4153028654   -0.1480654358    2.3955967466
 H    5.4823745760    0.0668334488    0.6520542129
 H    4.1718351663    0.8342130162    1.5838763731