25

 C   -0.1082815228    1.5618270326    0.0941798916
 C    0.0317776527    0.0313838368    0.0447206170
 C    0.6655729291   -0.5015285144    1.3403549795
 C   -1.3399045913   -0.6152595919   -0.1742323618
 O    0.7817690132   -0.3835192648   -1.1077409407
 C    2.1219676393    0.0448440487   -1.2323962453
 C    2.6668898766   -0.5359409943   -2.5323889576
 C    4.1163353418   -0.1456839242   -2.7875906946
 O    4.5149335200   -0.7371626905   -4.0151018701
 H    0.8461333616    2.0559504063    0.2982201180
 H   -0.4959417208    1.9380634908   -0.8573558469
 H   -0.8033488830    1.8534050566    0.8876543727
 H    0.0072924012   -0.3064147139    2.1926117884
 H    0.8235957896   -1.5818680653    1.2686676354
 H    1.6267658167   -0.0250544744    1.5543285319
 H   -1.7796185641   -0.2588929796   -1.1098959024
 H   -1.2382491714   -1.7021430951   -0.2387199840
 H   -2.0212886999   -0.3750576747    0.6471319955
 H    2.1907816480    1.1438059866   -1.2555042955
 H    2.7332121030   -0.2994291109   -0.3833518850
 H    2.5876676230   -1.6277309678   -2.5024194138
 H    2.0489335971   -0.1934171173   -3.3690440611
 H    4.2079757102    0.9526098964   -2.8276607048
 H    4.7507763555   -0.4927038805   -1.9549486046
 H    5.4304514346   -0.4949089953   -4.1812707718