16

 N    0.0459163259    1.2851250093    0.0549554576
 C   -0.0541422979    0.0223115915    0.0635782917
 N   -1.2586214440   -0.6729870663   -0.0139816402
 C   -1.2687164072   -2.1323450437   -0.0256028208
 C   -2.7536863074   -2.4504786053    0.0216739753
 C   -3.5612181510   -1.9136879507    1.1383117481
 N   -3.5085996542   -1.1997991531   -0.1635323652
 C   -2.5514185430   -0.1198398656   -0.1217304253
 O   -2.8395666831    1.0377699618   -0.1749448790
 H    1.0274662006    1.5495585754    0.1241116930
 H    0.7881514882   -0.6785215178    0.1345198844
 H   -0.8223295163   -2.5242883154   -0.9478619430
 H   -0.7120856327   -2.5459278255    0.8234653606
 H   -3.1056086821   -3.3086756558   -0.5402097182
 H   -4.5267033317   -2.3517879030    1.3680011187
 H   -3.0473481440   -1.4580219457    1.9811495324