23

 C   -0.0967764167    1.5614679838    0.1663899195
 C   -0.0415809811    0.0334513638    0.0228939980
 C   -1.4576487658   -0.5585935039    0.0325688700
 C    0.7126912776   -0.4125324075   -1.2428598374
 C    2.2029313017   -0.0555278283   -1.2642609066
 C    2.8958593702   -0.5540065576   -2.5460378527
 O    2.3304154430    0.0173940944   -3.6947811240
 C    4.3804950529   -0.2629511067   -2.4925438779
 O    4.9353961595    0.3878280143   -3.3453926775
 H    0.8992161018    2.0079471720    0.2404200767
 H   -0.6018941099    2.0144883491   -0.6952403824
 H   -0.6522339729    1.8490036128    1.0651827645
 H    0.4964255317   -0.3692281918    0.8942381556
 H   -2.0390442162   -0.1943857934   -0.8228734675
 H   -1.4343047910   -1.6520469832   -0.0232623467
 H   -1.9979168559   -0.2796841810    0.9432009413
 H    0.6153583649   -1.5022129997   -1.3457238055
 H    0.2346182608    0.0229369729   -2.1284899220
 H    2.3414430806    1.0300938399   -1.2066094317
 H    2.7061873266   -0.4952844193   -0.3918944432
 H    2.7979258043   -1.6564528185   -2.5803627969
 H    3.0646333210    0.4487437287   -4.1599429987
 H    4.9323810429   -0.6764504407   -1.6233041851