21

 O    0.0319242890    0.0168951332   -0.0186797033
 C   -0.0157166932    1.2080956169   -0.1191601794
 C   -1.1424461681    2.2448130688    0.0120573058
 C   -0.1928222570    3.2869268468   -0.6614089853
 C   -0.0513061448    4.6459630061    0.0181078991
 C    0.9728014629    5.5439388307   -0.6443867328
 C    0.5868630313    6.3898229111   -1.8333780167
 C    0.8865602488    7.0416776428   -0.5050411300
 C    1.0015609320    2.2843365825   -0.5301467041
 H   -2.0851108334    2.0001248597   -0.4841344957
 H   -1.3539807196    2.4753358249    1.0632267653
 H   -0.4574075798    3.4265346088   -1.7137327223
 H   -1.0261952070    5.1521800693    0.0198607638
 H    0.2156247064    4.4928798376    1.0741109432
 H    1.9789063782    5.1316229754   -0.6685147079
 H    1.3003685171    6.5111486603   -2.6408355476
 H   -0.4484640573    6.3621161563   -2.1586084096
 H    0.0529886070    7.4504556660    0.0571345534
 H    1.8069066331    7.6060782739   -0.4036132704
 H    1.6790998373    2.5289906709    0.2970278135
 H    1.6031758470    2.0659694480   -1.4159390491