20

 C    0.0784075478    1.5467460859   -0.0037745170
 C    0.0384337093    0.0135846762   -0.0275594736
 C   -1.3976323135   -0.5158315960    0.0797510326
 C    0.6945366230   -0.5460093891   -1.2858177307
 O    2.0754822419   -0.1427190689   -1.2846248900
 C    2.8120192113   -0.5230283048   -2.3408427879
 N    2.3307759039   -1.2106366583   -3.2990089280
 C    4.1706122618   -0.0603370863   -2.2368474333
 C    5.3155667976    0.3038998030   -2.1971706380
 H    1.1036962670    1.9147906227   -0.0880345914
 H   -0.5008414447    1.9641470142   -0.8364556733
 H   -0.3502771862    1.9333962209    0.9261726830
 H    0.6121027898   -0.3609710348    0.8306990103
 H   -2.0043469151   -0.1845914858   -0.7712758681
 H   -1.4248734079   -1.6102301866    0.1044086665
 H   -1.8784606746   -0.1473739870    0.9909127397
 H    0.6452745990   -1.6398177005   -1.3197738593
 H    0.2124925784   -0.1692579034   -2.1958560058
 H    3.0468748180   -1.3939156739   -3.9979984336
 H    6.3267306930    0.6280745225   -2.1595653622