19

 C    0.1286879962    1.5473757501   -0.0686502838
 C    0.1009372171    0.0458093191    0.0295295733
 C   -1.2469536601   -0.7366166712    0.1163954215
 C   -0.4596430883   -1.8253829682    0.8391976356
 C    0.9296748121   -1.9012877283    0.1877972145
 C    0.6239899235   -0.8560893003    1.2346601437
 C    0.9793412827   -0.8339306106   -0.9123095159
 C    0.5434591329   -1.1508444964   -2.3194663010
 O   -0.3006301341   -0.5486703968   -2.9368364536
 H    1.1509335150    1.9362675496    0.0000811920
 H   -0.2902671901    1.8681470331   -1.0283769705
 H   -0.4602845985    2.0088036455    0.7313153405
 H   -1.9351806890   -0.2339531359    0.8026503027
 H   -1.7615464959   -0.9678541416   -0.8197484369
 H   -0.8395885114   -2.6604626188    1.4138564163
 H    1.5581766970   -2.7758744791    0.2939688180
 H    1.1029019308   -0.6309206782    2.1766214832
 H    2.0021549859   -0.4332041299   -0.9697622153
 H    1.0848366643   -2.0089841321   -2.7865868244