17

 O    0.3500065511    1.3359276445    0.1400583882
 C    0.1119465687   -0.0553374730    0.0709195006
 C    0.3117150939   -0.8121830773    1.3986470469
 N   -1.0625136681   -1.4285752026    1.3239380976
 C   -2.0463587792   -0.3366930706    1.3394891023
 C   -1.9444962889    0.9374485820    2.1737316248
 C   -2.0904421556    0.6777613475    3.6065594511
 N   -2.2026637398    0.4699034587    4.7375902227
 C   -1.3278930247   -0.5813311064    0.0705095923
 H    0.1879529454    1.7227244495   -0.7267235866
 H    0.6901987106   -0.5101762244   -0.7422020714
 H    1.0667656931   -1.5975382217    1.3523778609
 H    0.4932318331   -0.1972510245    2.2837367151
 H   -3.0480874166   -0.7609906743    1.3615723138
 H   -1.0113505040    1.4716762920    1.9891003621
 H   -2.7499042665    1.6133212644    1.8627232130
 H   -1.8321705226   -0.9985855739   -0.7963416835