15

 N   -0.0933694597    1.3179181453    0.3745102101
 C    0.0029192883    0.0831401295    0.1086798896
 C   -1.1787507654   -0.8226240940   -0.1896061383
 C   -0.6084327769   -2.2627752937   -0.1438564025
 C   -1.1057084827   -3.1605584400   -1.1711580734
 C   -1.5319829596   -3.8824159773   -2.0308897632
 C    0.9278229977   -2.0620481951   -0.1978015047
 O    1.7786561913   -2.8977191530   -0.3428912925
 N    1.1472953896   -0.7098410776    0.0058158197
 H    0.8187998932    1.7521537031    0.5255483773
 H   -1.9884579777   -0.6497105258    0.5193470938
 H   -1.5571547173   -0.5916972848   -1.1889543268
 H   -0.8005782306   -2.7061557990    0.8427647671
 H   -1.8990887152   -4.5310244662   -2.7874754794
 H    2.0872729852   -0.3488885614    0.0849562732