25

 C   -0.4164329300    1.4973119098    0.0318397711
 C    0.0183309595    0.0236053588   -0.0032585153
 C    0.7739830544   -0.3287691750   -1.3058106887
 C    2.2835352699   -0.0742244599   -1.2252143805
 C    2.9415180299   -0.9780863036   -0.1691211593
 C    4.4434921411   -0.7016790414   -0.0280348378
 C    2.2279912773   -0.8847483333    1.1728860513
 C    1.9393213533    0.4580710039    1.7945207613
 C    0.8018393719   -0.3824878999    1.2537597479
 H    0.4391097357    2.1759444612   -0.0506860997
 H   -1.0973761493    1.7206794931   -0.7967121101
 H   -0.9327007054    1.7340750125    0.9677944742
 H   -0.9012659254   -0.5742605645   -0.0003571629
 H    0.6224557709   -1.3927310648   -1.5299102207
 H    0.3362165049    0.2281008651   -2.1426099465
 H    2.7479715467   -0.2663230869   -2.1994460005
 H    2.4856815794    0.9816968215   -1.0005561442
 H    2.8226165771   -2.0133692388   -0.5235145315
 H    4.6205968731    0.3204518839    0.3243183759
 H    4.9077208742   -1.3848488625    0.6914150760
 H    4.9602081824   -0.8223244235   -0.9866125841
 H    2.4974779572   -1.6770331835    1.8673665960
 H    2.0329931241    0.5626715798    2.8701399029
 H    2.2256107184    1.3490141236    1.2458370606
 H    0.1866356888   -0.8470993055    2.0193110550