14

 N   -0.0983656704    1.3688341776   -0.0533418400
 C   -0.0723015063    0.0103211906   -0.0035318423
 N   -1.1458787409   -0.6889612456    0.0256839642
 C   -1.0650901232   -2.0688783675    0.0103210860
 N    0.0186818233   -2.8514490346   -0.0529734322
 N   -0.4939632862   -4.0756906844   -0.0302200686
 N   -1.8273009357   -4.1770332282    0.0392119450
 C   -2.2026169369   -2.9077817605    0.0656028817
 O   -3.4890552971   -2.5269705951    0.1360839240
 H    0.7319352857    1.8843315505    0.1810769257
 H   -0.9825314329    1.8250101039    0.1107935933
 H    0.9295020126   -0.4271847064   -0.0281118449
 H    0.0878453185   -4.8940374332   -0.0740479516
 H   -3.4759296007   -1.5597402772    0.1334448996