22

 C   -0.0070825421    1.7417830797   -0.1830570147
 C   -0.2831599204    0.2344859240   -0.2104633350
 C    0.7165762435   -0.5208685291   -1.0799477501
 C    2.1578677557   -0.6804739246   -0.5053481752
 N    1.9865773760   -2.1304966824   -0.5712945702
 C    2.9272148249   -3.0981818023   -0.5120934814
 O    4.0871185768   -2.9155319666   -0.1992433784
 C    0.6299681915   -2.0912672082   -1.1442710380
 C   -0.4416568361   -2.8155533246   -0.3388438606
 H    0.9929823665    1.9576105561    0.2082694675
 H   -0.0692289903    2.1731734727   -1.1881643585
 H   -0.7299531937    2.2642160558    0.4503943621
 H   -0.2581645512   -0.1589359583    0.8129267447
 H   -1.2992215031    0.0567140768   -0.5845392191
 H    0.7224608835   -0.0863062805   -2.0835059922
 H    2.9753187944   -0.3120400711   -1.1329095135
 H    2.3017968688   -0.3010450650    0.5127963846
 H    2.5160682144   -4.0953173824   -0.7754289119
 H    0.6112701411   -2.4569540072   -2.1793037031
 H   -0.4405846648   -2.5016486424    0.7080539497
 H   -1.4337409007   -2.6236798301   -0.7606624136
 H   -0.2738756546   -3.8968941204   -0.3662146631