15

 C   -0.0368829180    1.4414890446    0.1094552969
 N   -0.0267683160    0.0178339903   -0.1683006563
 C   -1.1549802375   -0.7384336723   -0.0576743563
 C   -1.3036443606   -2.1313464083   -0.0053460049
 C   -2.7108114411   -2.3331920515    0.0553156848
 N   -3.3810294026   -1.2007048976    0.0467390411
 N   -2.4088102227   -0.2357996707   -0.0180722198
 C   -0.2473676766   -3.0611358203   -0.0047503417
 N    0.6535295952   -3.7929923742   -0.0012665682
 H    0.9770868883    1.8280560426   -0.0013407782
 H   -0.6670334533    1.9697097399   -0.6159739636
 H   -0.3929973212    1.6807116217    1.1222315818
 H    0.8270871945   -0.4796199017    0.0311788628
 H   -3.2324559904   -3.2771135092    0.1057771916
 H   -2.6861132580    0.7295795067   -0.0458309500