17

 C   -0.0354290564    1.4197063137    0.1180922393
 C    1.4156583445    1.9618416920    0.0288990722
 N    2.3171012026    1.3999332792    1.0377478814
 C    1.9922233589    0.0714245434    1.3455191695
 C    0.9311003261   -0.5951122233    0.7877791872
 N    0.9800460026   -1.8673701311    1.3305284020
 C    2.0567620575   -1.8921972076    2.1710465664
 N    2.6881930810   -0.7374783175    2.2078315720
 N   -0.1052400367   -0.0481278268    0.0103935803
 H   -0.4726529142    1.7072931616    1.0814233307
 H   -0.6486967972    1.8587108367   -0.6738306504
 H    1.8101943277    1.7181672720   -0.9675660735
 H    1.4166330917    3.0520517497    0.1176336466
 H    2.4147359424    1.9775424458    1.8635079450
 H    0.3351564771   -2.6167448369    1.1464247302
 H    2.3424859013   -2.7824611861    2.7102810129
 H   -0.0486512789   -0.3308920950   -0.9647127618