18

 O    0.0003935412   -0.0145753379    0.0593358664
 C    0.0070406924    1.1901051913   -0.0243398655
 N   -1.0926329961    2.0177874642   -0.0951910688
 C   -0.7381008234    3.4371250951   -0.0579413670
 C    0.6470020798    3.3826800075   -0.7365355009
 C    1.2227798062    2.1530470185   -0.0142708025
 C    1.4483241918    2.5154245817    1.4426736403
 C    0.6120864699    3.3454680628    2.0712644197
 C   -0.5851963023    3.9618865220    1.3854301506
 H   -2.0013340940    1.6683185755    0.1683879843
 H   -1.4695565762    4.0291502761   -0.6142581448
 H    0.5407860745    3.2079163788   -1.8106244022
 H    1.2343928438    4.2881196325   -0.5709588469
 H    2.0968852960    1.6977403398   -0.4770839446
 H    2.2779067602    2.0521401512    1.9664832500
 H    0.7667065155    3.5924209538    3.1182672006
 H   -0.4962512487    5.0575578484    1.3732121285
 H   -1.4991078708    3.7454943386    1.9565084928