18

 O   -0.1306085036    1.3439911876   -0.1470256599
 N    0.0001186210   -0.0592246000   -0.1066326341
 C   -1.1321882679   -0.6289946001    0.0656837025
 C   -2.4677014781   -0.0482873468    0.2366733098
 C   -3.3718135987   -1.0115880342    0.4734268281
 C   -2.7668933861   -2.3869208367    0.4951464722
 C   -2.9629411929   -3.2404451378   -0.8008374113
 C   -1.5364910222   -2.8381366844   -1.2669174534
 C   -1.2738962270   -2.1315428137    0.1068248092
 H    0.7816767520    1.6258729626   -0.2694762867
 H   -2.6573305808    1.0138604239    0.1748533874
 H   -4.4334392536   -0.8415847699    0.6222016922
 H   -2.9712681878   -2.9158879312    1.4310618083
 H   -3.0649276283   -4.3079850275   -0.5908438795
 H   -3.7888762678   -2.9360695400   -1.4480967513
 H   -0.8650374228   -3.6714874775   -1.4826753615
 H   -1.5126605796   -2.1508424323   -2.1149165643
 H   -0.5089145057   -2.6142040519    0.7147748722