16

 O   -0.2383117129    0.4466043267   -0.7075355575
 C    0.2169742056    1.0807267242    0.2160017705
 C    1.4019290097    1.9554942053    0.1034386850
 O    1.8191670720    2.5777890818    1.2893623486
 C    2.4573881945    3.8117423406    0.9226328295
 C    2.8078395865    3.6124434001   -0.5459664042
 N    3.6801202978    2.3688193544   -0.6092980340
 C    2.4624984446    1.6092434043   -0.9556125468
 C    1.5966197609    2.8260347693   -1.1199545974
 H   -0.2254743603    1.0527287801    1.2340936028
 H    1.7708623502    4.6586159949    1.0710412685
 H    3.3442611622    3.9386184537    1.5478943747
 H    3.1874065005    4.4863546512   -1.0732942354
 H    4.2512164937    2.4298192693   -1.4499099316
 H    2.4654440416    0.6533209725   -1.4651604558
 H    0.8165190433    3.1130720317   -1.8131013769