18

 C   -0.0608584439    1.4324489384   -0.0066247910
 C    0.0492776028   -0.0779186807    0.0384186478
 C    1.4090113637   -0.6683255636   -0.2224539325
 C    0.7837868880   -0.6805499888    1.1970434312
 C    0.7367196069   -2.2238274761    1.1631871187
 N   -0.5652455657   -2.8769885034    0.9822242813
 C   -0.6291491829   -3.1483261451   -0.2578150410
 O    0.4003470375   -2.8409854171   -1.0966595149
 C    1.3815673156   -2.1949698166   -0.2483452665
 H    0.8413591589    1.9101111393    0.3901196418
 H   -0.2017328572    1.7857541966   -1.0333720946
 H   -0.9115177377    1.7794311031    0.5888871622
 H   -0.8263533707   -0.5941761213   -0.3463577247
 H    2.2227617396   -0.0623220959   -0.6030097762
 H    1.0654499878   -0.0916872496    2.0617097484
 H    1.3082251630   -2.6965890051    1.9640914273
 H   -1.4652477476   -3.6346064352   -0.7498928820
 H    2.3457325417   -2.6803279688   -0.4015248254