19

 N   -0.2133847256    1.4368998277    0.2052698376
 C   -0.0100880405   -0.0033028355   -0.0068209699
 C    0.7143601313   -0.6362145561    1.2214337842
 C   -0.1753839793   -1.8077458380    1.6796823432
 C   -1.5904421310   -1.3259968154    1.3496210783
 C   -1.4382558948   -0.6986239616   -0.0452177478
 O   -2.4643640643    0.1774582819   -0.4294929121
 C    0.7288690290   -0.2721459046   -1.2533994254
 N    1.3049461275   -0.4601994695   -2.2391030894
 H    0.6722320114    1.8833405834    0.4253826077
 H   -0.5511078986    1.8609813567   -0.6548442159
 H    1.7391636282   -0.9346164045    0.9929902028
 H    0.7524488436    0.1286253556    2.0035651948
 H    0.0595878975   -2.7118749378    1.1060529983
 H   -0.0308300782   -2.0475170140    2.7358018742
 H   -2.3474619585   -2.1134420307    1.3617686000
 H   -1.9030356773   -0.5493401193    2.0597370244
 H   -1.4212881105   -1.4875621959   -0.8026632792
 H   -2.4375181298    0.9167204478    0.1919140441