20

 C    0.9579218560   -0.5320790934   -1.0241177781
 N    0.0666688525    0.0482246213   -0.0256010572
 C    0.1003775723    1.5082491885   -0.1071614191
 C   -1.2805149818   -0.4843301457   -0.1247675241
 C   -1.3773133507   -2.0210599326   -0.1101446436
 O   -2.7080398503   -2.3088842255    0.3086418598
 C   -3.0332553687   -1.3958244082    1.3362138688
 C   -2.1982896390   -0.1427975123    1.0696917042
 O   -2.2585212887    0.8804107194    1.6982889510
 H    1.9602620045   -0.1148690443   -0.8904988532
 H    1.0319971624   -1.6156625846   -0.9009463672
 H    0.6403725769   -0.3219038202   -2.0637684500
 H   -0.2254151306    1.8808432879   -1.0977061210
 H   -0.5437478876    1.9403564873    0.6566978342
 H    1.1262821728    1.8499259260    0.0595634937
 H   -1.8152451418   -0.1231845268   -1.0316663550
 H   -1.2370206611   -2.4885473138   -1.0855376865
 H   -0.6378104978   -2.4309287212    0.5967301710
 H   -4.1063372211   -1.1844064111    1.3196445616
 H   -2.7736500882   -1.7817143206    2.3364775207