20

 C   -0.4025838405    0.7391788388    0.8563586846
 C    0.0324355014   -0.6472708580    0.4777101451
 C   -0.7895215195   -1.8518151325    0.9865650719
 C   -0.3024412911   -3.2143270128    0.5485890973
 C    0.5119877129   -2.4134288291    1.5102665196
 N    1.3302035719   -1.2422578063    0.9983073930
 C    1.1343983728   -0.9308087008   -0.4626474168
 C    1.2238087129   -1.8692451666   -1.6648726737
 O    2.0427325132   -3.0094263793   -1.4499544341
 H    0.4046582786    1.4601124677    0.7013752903
 H   -1.2651872907    1.0510243891    0.2549521003
 H   -0.6969581481    0.7781423112    1.9110180824
 H   -1.7293570752   -1.7135759811    1.5048148240
 H   -0.8521076684   -4.0126738634    1.0420763062
 H    0.0487967258   -3.4799568939   -0.4354002775
 H    0.7797526338   -2.7566371703    2.5013213285
 H    1.7273469417   -0.0323294683   -0.6350409730
 H    0.2373425904   -2.2286550436   -1.9717165606
 H    1.6197618757   -1.2773615585   -2.5035614794
 H    2.6723639623   -2.7860419025   -0.7565486281