14

 O   -0.0368365320    0.0378866794   -0.4013407537
 C   -0.0165600763    1.1693723131   -0.0354623841
 O   -1.1194938553    1.8485637471    0.3751703441
 C   -0.7950296064    3.1536701100    0.8191660696
 C    0.0415792093    3.2440268365    2.0570761832
 C    0.6867133822    3.3785199030    0.6911311078
 C    1.2247405885    2.1117109177    0.0494390359
 C    2.3328498253    1.4752642481    0.7553427255
 N    3.2127488497    0.9970039018    1.3306630954
 H   -1.5547632864    3.8773510082    0.5567828310
 H   -0.0343649009    4.1481362389    2.6499418712
 H    0.2068539036    2.3358391106    2.6278747950
 H    1.0961246357    4.3307266683    0.3817945914
 H    1.5406432029    2.3045555172   -0.9827564623