23

 C   -1.3798715135    1.7523341542   -1.0343684216
 C   -1.3066310267    0.2290171393   -1.1087371256
 C   -1.8240344269   -0.4587819736    0.1503086792
 O   -2.2371437949    0.1938849665    1.0878947035
 C   -1.8816116400   -1.9666154099    0.1679664762
 C   -1.0197860099   -2.7743443622   -0.7928267784
 C    0.4675141169   -2.8100998519   -0.4145625064
 C   -2.2133581124   -2.5835448174    1.5128804559
 C   -3.2895304564   -2.4860058105    0.4819569540
 H   -1.0010765084    2.2013294260   -1.9570047194
 H   -2.4086051023    2.0873880966   -0.8811436065
 H   -0.7897328700    2.1302596528   -0.1958181945
 H   -1.8869184258   -0.1523582392   -1.9604965572
 H   -0.2780817960   -0.1036797069   -1.2961853534
 H   -1.4012126178   -3.8020594450   -0.8111895997
 H   -1.1359039729   -2.3986263888   -1.8160932865
 H    0.6057506230   -3.2382481889    0.5832522245
 H    1.0368056761   -3.4180393674   -1.1245074610
 H    0.9128632673   -1.8100346763   -0.4039845819
 H   -1.7858211192   -3.5585149811    1.7205226268
 H   -2.2635382827   -1.9010577959    2.3523047051
 H   -4.0630946147   -1.7420159791    0.6329248153
 H   -3.6059653731   -3.3842277015   -0.0376508783