18

 O   -0.0075038094    1.3827017919   -0.0449908993
 C   -0.0280030514   -0.0093357355   -0.0582197706
 C   -1.4131550112   -0.6865661188    0.0687023993
 C   -1.0588648593   -2.1471905271    0.5294798334
 C    0.4790311837   -2.1228596888    0.6719010292
 N    1.0476669302   -2.0685308805   -0.6998815640
 C    0.7369559971   -0.6876185712   -1.2196344413
 C    0.6965911365   -0.6806336471    1.1162957618
 O    1.2689602653   -0.1318668739    2.0201082303
 H    0.4862224562    1.6371629115    0.7495549904
 H   -2.0092528605   -0.1591306025    0.8181183307
 H   -1.9613819190   -0.6619797080   -0.8761846012
 H   -1.5366307222   -2.3885475898    1.4825862870
 H   -1.3483182627   -2.9019953412   -0.2041344242
 H    0.9197325840   -2.9176900393    1.2699444370
 H    2.0536865203   -2.1905926381   -0.6493751957
 H    0.1394229588   -0.7489739956   -2.1355450214
 H    1.6460748537   -0.1198887159   -1.4397497414