17

 C    0.4574572732    1.6632031333    0.0295257819
 C   -0.0491255826    0.2305284947    0.1113480861
 C    0.2887672607   -0.5627547174   -1.1462863087
 O   -0.3696952787   -1.8401070538   -1.2113287988
 C    0.1545948772   -2.9054623818   -0.5577961890
 O    0.1024199442   -4.0081926238   -1.0065225785
 O    0.7410283297   -2.6386413042    0.6376384698
 C    0.1518924163   -1.6615028039    1.5093899633
 O    0.5557822184   -0.3628621602    1.2589266612
 H    1.5384964245    1.6823742557   -0.1386631955
 H   -0.0342770144    2.2019252332   -0.7851078287
 H    0.2498652092    2.1834269356    0.9672331877
 H   -1.1437216910    0.2188304150    0.2380163868
 H   -0.0674657176   -0.0292347829   -2.0305099318
 H    1.3731650363   -0.6959987715   -1.2221996824
 H   -0.9419238949   -1.7621755737    1.4615714357
 H    0.5225518695   -1.9258733341    2.4997766109