17

 C   -0.1344829436    1.4582162062   -0.0171454653
 N    0.0003899148    0.0017600032   -0.0180270017
 C    0.0561984713   -0.6902519056    1.1842821866
 O   -0.0009057232   -0.1573307570    2.2669556717
 C    0.0685719627   -0.6361661260   -1.2397941633
 N    0.0230962019   -0.0475466190   -2.3665043727
 C    0.1277339935   -1.1024002500   -3.3799085172
 C    0.2443039772   -2.4225836871   -2.5707147334
 O    0.1928109237   -1.9894298402   -1.1903149934
 H    0.7163551971    1.9143047095   -0.5275900103
 H   -1.0474484126    1.7509814687   -0.5399207626
 H   -0.1710322503    1.7739335039    1.0239118928
 H    0.1578327860   -1.7737537019    1.0385769912
 H   -0.7538575535   -1.0929097604   -4.0299240892
 H    1.0014141532   -0.9305450174   -4.0178148276
 H   -0.5837577680   -3.1160683514   -2.7378476882
 H    1.1889344697   -2.9506579356   -2.7236642977