17

 O    0.0520171951    0.1159789514    0.1883453015
 C    0.0516781490    1.3051692704    0.0841747767
 O   -1.0747923118    2.0910957130    0.1288630581
 C   -0.5018017703    3.4050690463   -0.0523623131
 C    0.7107556754    3.3747975037    0.9732349417
 C    1.1977406235    2.3087266655   -0.1020626427
 C    2.2246383592    1.7992057391   -1.1491794316
 C    1.1305279031    2.2157607085   -2.2352923462
 C    0.5997484242    3.2211959881   -1.1556720318
 H   -1.2919542846    4.1535223656   -0.0450123815
 H    1.3111728162    4.2846087237    0.9812136467
 H    0.4728714559    3.0444126633    1.9874027383
 H    3.1180679261    2.4221641338   -1.2238058923
 H    2.5008103831    0.7450098081   -1.0889315159
 H    1.4864807192    2.6445450646   -3.1736923601
 H    0.4535986044    1.3859412187   -2.4472579494
 H    1.1778418225    4.1468357561   -1.2236644285