14

 C   -0.0638525376    1.4591138513    0.0094400646
 N   -0.0316510173    0.0098339644    0.0006615498
 C   -1.1505999177   -0.7958604340    0.0034205107
 N   -2.3382974669   -0.3494579982    0.0139134117
 C   -0.5919533174   -2.2098298369   -0.0086191696
 O    0.8283970372   -2.0518073590   -0.0168296813
 C    1.1470246329   -0.7254790818   -0.0110341591
 O    2.2669147282   -0.3049684162   -0.0160554350
 H    0.9681240843    1.8098208197    0.0021431671
 H   -0.5969832345    1.8293823292   -0.8701058899
 H   -0.5807773876    1.8193181943    0.9027674900
 H   -3.0162188365   -1.1105807395    0.0138756630
 H   -0.8917153563   -2.7725409815    0.8812035848
 H   -0.9031996308   -2.7618682017   -0.9011851368