21

 O   -0.0133679177   -0.1002040770   -0.3370450797
 C   -0.0062984353    1.0907894665   -0.1021890329
 C    1.2828722571    1.8590536088    0.1680985543
 C    2.5355563709    1.0376671872   -0.0111077279
 C    3.2443404719    1.0104381812   -1.3397113070
 C    3.8728539508    1.7164014935   -0.1624807148
 C   -1.2691001278    1.8856047985   -0.0425267250
 C   -2.3876283744    1.4851127414   -0.9952316627
 C   -2.5198462651    1.1758350687    0.4553093962
 H    1.2976035010    2.7474567927   -0.4788663068
 H    1.2091833590    2.2566785931    1.1926355286
 H    2.5250643262    0.1001916554    0.5346287800
 H    3.6752654883    0.0732295202   -1.6727891114
 H    2.8441774620    1.6221455707   -2.1421423302
 H    3.8958634104    2.8016408604   -0.1752380228
 H    4.7369735513    1.2633969742    0.3109100401
 H   -1.1663589227    2.9398371824    0.1899681318
 H   -2.9845447558    2.2834517978   -1.4208872599
 H   -2.1581967028    0.6615170916   -1.6615026473
 H   -2.3790296844    0.1451455427    0.7598092474
 H   -3.2109836129    1.7550545201    1.0567133001