17

 C    0.1454722347    1.4636485514   -0.0776918298
 C   -0.0670857703   -0.0411789838    0.0454646383
 C   -1.5424020329   -0.4354705016    0.0753926939
 O    0.5403377207   -0.6695162353   -1.1254974265
 C    1.3586420503   -1.7075908645   -0.8059742222
 O    1.8094831749   -2.4629667731   -1.6163402052
 C    1.5554313548   -1.7090165062    0.6900449245
 O    2.0928961587   -0.4500950133    1.1404157848
 C    0.6876176419   -0.6567345259    1.2203133534
 H    1.2132615961    1.6902178726   -0.0788022362
 H   -0.2976642682    1.8319498856   -1.0063958481
 H   -0.3261589809    1.9836462151    0.7617344334
 H   -2.0334136736   -0.1167563577   -0.8473506810
 H   -1.6571233117   -1.5195875660    0.1685369382
 H   -2.0486456331    0.0414586247    0.9205359436
 H    1.8851986174   -2.6021249865    1.2072756268
 H    0.2500465215   -0.6759957756    2.2142597322