17

 C   -0.0043774059    1.3785289639   -0.0498632765
 N   -0.0509754745   -0.0682179954    0.0479180787
 C   -1.1639660651   -0.6356754609    0.0009814471
 C   -2.6547661597   -0.2703114809   -0.0687977269
 C   -2.8801430037   -1.7794184421   -0.0073940514
 C   -2.1545661839   -2.4996373124   -1.0807082112
 C   -1.9019109936   -1.9410696055   -2.3781700861
 C   -1.6947761115   -1.4965746769   -3.4760131398
 N   -1.3928623431   -2.0677317778    0.1489389776
 H    0.6287457127    1.6583200782   -0.8988724738
 H   -0.9851984390    1.8606260159   -0.1728598023
 H    0.4731264269    1.7842633302    0.8490793406
 H   -2.9980740054    0.2535457112    0.8267584403
 H   -3.0142101386    0.2507617772   -0.9590991801
 H   -3.6079546195   -2.2823959808    0.6188458983
 H   -2.2707857285   -3.5802717562   -1.0718116996
 H   -1.5036066575   -1.1055840876   -4.4448364948