21

 C    0.0937652229    1.2345944157   -0.1778128274
 O    0.0041174753   -0.0633944577    0.3739731495
 C   -1.2613255126   -0.6768168035    0.1730339005
 C   -1.5961352339   -1.2474865172   -1.2465811579
 C   -1.7462853051   -2.6412805011   -0.6210226456
 C   -2.8098278434   -3.6333174550   -0.9903521877
 C   -0.4438355450   -3.0041471916    0.0322862816
 O    0.8088984860   -2.6437851868   -0.4702549532
 C   -1.3483842698   -2.0667660037    0.7769646839
 H    1.0888680773    1.6204308402    0.0544612531
 H   -0.0407742704    1.2278704383   -1.2688297903
 H   -0.6602939597    1.9047715571    0.2615952098
 H   -2.0521210557   -0.0049281014    0.5327346663
 H   -2.5255426892   -0.8444945901   -1.6552745222
 H   -0.7999294987   -1.1615720469   -1.9917087784
 H   -2.6554186437   -4.0107979412   -2.0086244941
 H   -2.8009547802   -4.4948542863   -0.3144889459
 H   -3.8112516911   -3.1884066267   -0.9515269125
 H   -0.4329801937   -4.0127972011    0.4423542949
 H    0.9766719281   -1.7350018841   -0.1859351704
 H   -1.7327464876   -2.2862914967    1.7668381260