21

 C   -0.0489200352    1.5397521151   -0.0717287561
 C    0.0572867771    0.0201513557    0.0358479754
 C    0.8196409666   -0.6195757811   -1.1220192270
 C    2.3301059862   -0.4585786930   -0.8295902633
 C    2.7861205324   -1.1017528280    0.5055478607
 C    1.7155173255   -1.1205615297    1.5712191333
 C    0.5392809653   -0.5580196591    1.3427655597
 C   -0.9035773672   -0.7524065710    1.7315782849
 O   -1.2769027175   -0.5222697507    0.3432295270
 H    0.9247834053    2.0047116372   -0.2519858749
 H   -0.7128438553    1.7952848630   -0.9043134544
 H   -0.4668789432    1.9709645999    0.8419576356
 H    0.5483742347   -1.6793178462   -1.1725478313
 H    0.5711248296   -0.1626440873   -2.0865391649
 H    2.9131074221   -0.8869650445   -1.6509029807
 H    2.5720401141    0.6101357482   -0.8165414674
 H    3.0803028327   -2.1465154802    0.3292333742
 H    3.6987139319   -0.6053261413    0.8606655090
 H    1.9013678317   -1.7105953554    2.4660538665
 H   -1.1924871984   -1.7485183281    2.0851856696
 H   -1.3419165485    0.0053024364    2.3965281741