17

 C   -0.0723566467    1.4707766655    0.0109948332
 O    1.3109316563    1.9158005956    0.0153003406
 C    2.2193620975    0.7685699257   -0.0916590711
 C    2.2296861118    0.0104849453    1.2552342602
 C    0.9444522949   -0.7844509346    1.0221847110
 C    0.9996603042   -1.5512221361   -0.3138124126
 O   -0.4546912946   -1.2421754774   -0.5798185780
 C    0.1583217209   -0.0141057637   -0.0877269720
 C    1.4249946256   -0.2014809238   -0.9529103508
 H   -0.5615987955    1.7967798874    0.9350309255
 H   -0.6028355692    1.8917594903   -0.8513514091
 H    3.1695151928    1.1676644763   -0.4432598047
 H    3.1145921407   -0.6217544697    1.3872396902
 H    2.1657177492    0.7058856859    2.0956463828
 H    0.3835825847   -1.2238436589    1.8447645305
 H    1.3130307363   -2.5702112718   -0.5409285541
 H    1.3317010511   -0.0555327259   -2.0265443416