18

 O    0.0583549705    1.4894862575   -0.2067007711
 C    0.0603865696    0.0746935948   -0.1423728629
 C   -1.3432511627   -0.4902678629    0.1048305665
 C   -1.3718865039   -2.0211880315    0.1146899142
 O   -0.6006276028   -2.4613012384    1.2160914328
 C   -0.3158861705   -3.7837584834    1.2925825573
 N    0.3503341950   -4.2153051599    2.2703072472
 C   -2.8072770220   -2.5351843690    0.1699534088
 O   -3.2175759229   -3.3230711207    0.9778454228
 H   -0.0517052599    1.8282923415    0.6872600986
 H    0.4278878617   -0.2703413940   -1.1161365139
 H    0.7523298654   -0.3011685892    0.6219695212
 H   -1.7251955313   -0.1320866106    1.0687626372
 H   -2.0175300275   -0.1190030675   -0.6745606925
 H   -0.9428821129   -2.3920845153   -0.8343351323
 H   -0.6957670406   -4.3670213107    0.4454332749
 H    0.4931846638   -5.2187623067    2.1787336586
 H   -3.4597502389   -2.1159090739   -0.6296917273