20

 C   -0.2183899132    1.4045948279   -0.0527377026
 N    0.0036801031   -0.0298825449    0.0556839166
 C    1.3667844644   -0.5150898970   -0.1725314222
 C    0.7657430660   -0.5121277282    1.1848172130
 C    1.3182451572    0.2372008211    2.4321976997
 C    0.9395718013   -1.0179161749    3.2523557160
 C    1.5883243056   -1.5409221776    4.4913517065
 O   -0.4770785225   -1.1754898057    3.0948097962
 C    0.3830195540   -1.6878749315    2.0591847948
 H    0.6352111626    2.0137466213    0.2881405334
 H   -0.4214853608    1.6570936192   -1.0981378706
 H   -1.0951122951    1.6783140812    0.5420803590
 H    1.4534171177   -1.4328607902   -0.7496628137
 H    2.1497517559    0.2190617074   -0.3644647767
 H    2.3929348427    0.4300112863    2.3795943096
 H    0.7931536557    1.1458298180    2.7374188317
 H    1.4041600744   -0.8709122301    5.3389215784
 H    1.1878073035   -2.5261227830    4.7440734638
 H    2.6718619185   -1.6236495985    4.3584693449
 H    0.2827107790   -2.7364655308    1.8018933423