16

 O   -0.0671859119    1.4745845626   -0.1577724781
 C    0.0514831399    0.1205289136   -0.0598051990
 C    0.0370933693   -1.0156825377   -1.0542878369
 C    1.2734890524   -1.6598390416   -0.4344011362
 C    0.9368848053   -0.8606377458    0.8520675848
 C   -0.4017689717   -1.5190469505    1.3337492412
 C   -0.9219176649   -0.9563251039    2.5713734421
 N   -1.3313941108   -0.5215437363    3.5613529952
 C   -1.0290578058   -0.9035959452    0.0761095761
 H    0.6819607779    1.8209324926   -0.6562573601
 H   -0.2835516337   -1.0041294148   -2.0880067279
 H    1.3115481850   -2.7508196750   -0.3426874415
 H    2.1934215914   -1.3020241067   -0.9046046875
 H    1.6966500896   -0.5843660396    1.5782975877
 H   -0.3885661527   -2.6118979400    1.4125209844
 H   -2.0801171793   -0.8014565516   -0.1560502245