21

 C   -0.0324403200    1.5544563570    0.1268856153
 C    1.5154181323    1.4394940610    0.0398897764
 C    1.3378095937    0.1055355985    0.8328498368
 C   -0.0084776668    0.0021014034    0.0476205588
 C    0.3472134450   -0.4558462257   -1.4109011066
 C   -0.1424204971    0.5171361464   -2.5123964282
 C    0.9952486630    1.5903130507   -2.5181369065
 C    1.9439576201    1.0503071049   -1.4190108336
 O    1.7691156828   -0.3646255895   -1.5677272925
 H   -0.3459294672    1.8921542733    1.1187785597
 H   -0.5793940006    2.1303177159   -0.6197230344
 H    2.1322855232    2.2426355792    0.4494421620
 H    2.0793596520   -0.6813157559    0.7075407698
 H    1.1590773769    0.3007222011    1.8926391771
 H   -0.8440377498   -0.5647372164    0.4645477653
 H    0.0607521404   -1.4959055217   -1.5792922914
 H   -0.1854586002   -0.0052214381   -3.4708484944
 H   -1.1331368141    0.9327384469   -2.3145981132
 H    1.5140692102    1.5980183579   -3.4794407503
 H    0.6391563300    2.6045546389   -2.3235015566
 H    2.9980303964    1.2747380724   -1.5942276234