16

 C   -0.0373327512    1.5623182240    0.0868912432
 C    0.0945685805    0.0686874787    0.0544136477
 C   -0.8320522271   -0.8800895269    0.7595734139
 C    0.6361287562   -0.8116107728    1.1523977980
 C    1.5738117645   -1.7853090575    0.4788375154
 C    1.4267385480   -1.4838378745   -1.0175674904
 O    1.9242461839   -2.0589461908   -1.9390573561
 O    0.5959587634   -0.4122447643   -1.1892671466
 H    0.9263135702    2.0432289899   -0.1081221710
 H   -0.7504385922    1.9072173783   -0.6684643227
 H   -0.3953046641    1.8872814849    1.0676717547
 H   -1.5487639838   -0.4571480735    1.4550811066
 H   -1.1871896803   -1.7483449518    0.2128880564
 H    0.8980937469   -0.3951932975    2.1174916003
 H    2.6188359308   -1.6247093346    0.7629281073
 H    1.3500140042   -2.8414353217    0.6544154433