19

 C   -0.1647275130    1.3710529624    0.2139491191
 C   -0.0578290572   -0.0747581900    0.0801955183
 C    0.0361541472   -1.2725837194   -0.0172670113
 C    0.1282901083   -2.7286230697   -0.1835083494
 O    0.8864818901   -3.0404875429   -1.3609866425
 C    0.8103670651   -3.4516231723    1.0150169241
 C   -0.3293052561   -4.0766588054    1.8514575560
 C   -1.4951077454   -4.0824382334    0.8931495783
 C   -1.2592182228   -3.3562502711   -0.1952403388
 H    0.8188275894    1.8509236199    0.1624671512
 H   -0.7865702333    1.8008386262   -0.5791301223
 H   -0.6174025134    1.6454913645    1.1732357418
 H    0.6520440075   -2.3947135500   -2.0357996071
 H    1.4348203114   -4.2348088235    0.5777076476
 H    1.4553309500   -2.7821848898    1.5855939333
 H   -0.0784203569   -5.0778165163    2.2196541827
 H   -0.5617797690   -3.4723656239    2.7385764827
 H   -2.4226100499   -4.6035796447    1.1055740054
 H   -1.9481769619   -3.1712946704   -1.0113778391