21

 C   -0.0278357952    1.4363151021   -0.5181425871
 C   -0.0248601643    0.1200189221    0.2699380844
 C   -1.3783115439   -0.5778015003    0.2802999625
 C   -2.4907581492    0.1903882537    0.9731394937
 N   -1.7202827794   -1.2844612158   -0.9740635170
 C   -1.5076985865   -2.0655459664    0.2660971975
 C   -0.3836631922   -3.0743776146    0.1932730111
 O   -0.7037251125   -4.1082544428   -0.7244946795
 H    0.9792291811    1.8614604797   -0.5628437353
 H   -0.3690990210    1.2644417972   -1.5437222407
 H   -0.6807014269    2.1881974774   -0.0643113421
 H    0.7206404488   -0.5458660210   -0.1707866193
 H    0.2878663917    0.3033658457    1.3063011679
 H   -2.6987648230    1.1383494050    0.4658292772
 H   -3.4186674944   -0.3901904512    0.9915201040
 H   -2.2210849086    0.4227431212    2.0094701746
 H   -2.7144608311   -1.1963619459   -1.1691324999
 H   -2.4034142303   -2.4614907485    0.7440222212
 H    0.5634179201   -2.5890456862   -0.0770799472
 H   -0.2437689647   -3.5567782680    1.1666358879
 H   -0.9149738385   -3.6605660934   -1.5528817738