14

 C   -0.0126929515    1.4435633213    0.0507119728
 C   -0.0147571731   -0.0357843957   -0.0591418122
 N   -0.1488120868   -0.7623280825   -1.1372911251
 C   -0.0732652442   -2.0305643544   -0.6368253847
 C    0.1015598593   -2.0465183994    0.7082308599
 O    0.1440845118   -0.7464754644    1.1191132594
 C    0.1670944674   -3.4032403112    1.1266937880
 C    0.0204815220   -4.0979598696   -0.0465456503
 O   -0.1290714094   -3.2774880504   -1.1458512296
 H    0.9298348971    1.8062989382    0.4743649890
 H   -0.1449796766    1.8710110288   -0.9433108313
 H   -0.8218563474    1.7919398928    0.7013252711
 H    0.2979179142   -3.8311030011    2.1067258362
 H    0.0012325572   -5.1527954424   -0.2619472532