17

 C   -0.1118269297    1.5160707379    0.0644984083
 C    0.1600043811    0.0496910245    0.0098450122
 O   -0.7448437166   -0.8375090435    0.6873962220
 C    0.6552649552   -0.9278845385    0.9970785028
 C    1.3346177040   -1.7840982640   -0.1020995013
 C    0.7862200038   -0.7633902034   -1.1637582349
 C   -0.1057866284   -1.8653444623   -1.8038688400
 C    0.4299054504   -2.8623048916   -0.7500543246
 O    0.2671521804   -4.0290621954   -0.5563430908
 H    0.7787795973    2.0867069101   -0.2174668784
 H   -0.9173311319    1.7850255092   -0.6285791132
 H   -0.4160476912    1.8105159603    1.0723515168
 H    0.9331408362   -0.8337257739    2.0409016045
 H    2.3941831540   -1.9988791424    0.0353491317
 H    1.4692054019   -0.2147529304   -1.8096936617
 H   -1.1860428562   -1.7087084335   -1.7785983748
 H    0.1959446397   -2.1469216331   -2.8177236987