15

 C   -0.0109082508   -1.1835212423    0.0389436577
 C   -0.0040621856    0.0187582686    0.0327635118
 C   -0.0189098007    1.4526445643    0.0508489604
 C   -0.9052914308    2.1870267566    1.0574804299
 O   -0.6288184920    3.5668853345    0.7449154200
 C    0.2936327937    3.4724392528   -0.3020948310
 C    1.3022223376    2.3064154578   -0.0853133104
 O    1.3689913249    2.0667903411   -1.5238024495
 C   -0.0494332770    2.3074629975   -1.2762578050
 H   -0.0072577406   -2.2455020198    0.0337566431
 H   -1.9707281565    1.9747633044    0.9174334203
 H   -0.6323964839    1.9737271711    2.0966414967
 H    0.6201023243    4.4409651209   -0.6717645939
 H    2.2187077528    2.2388661799    0.4994101330
 H   -0.7449568253    2.2411628626   -2.1118780132