21

 C    0.2082040046    1.1572711093   -0.2981590811
 N   -0.2404512057    0.0204489235    0.4843468024
 C    0.6848947573   -0.8544236036    1.0207790044
 O    1.8840401443   -0.6428991522    1.0287667925
 N    0.1168793457   -2.0024549159    1.5584054268
 C    0.9256508075   -2.8661068488    2.3694908433
 C    0.5226783989   -4.3173974194    2.4575053847
 C    1.7770608189   -3.9248568274    1.7130131839
 C    1.8629792405   -4.0495302024    0.2099887585
 H    1.1971238114    1.4382177433    0.0645219181
 H    0.2886253292    0.9310772341   -1.3700848442
 H   -0.4784213880    1.9989760652   -0.1676507940
 H   -1.1480815969   -0.3548574582    0.2582771035
 H   -0.8540923996   -1.9376420820    1.8279940101
 H    1.3390089878   -2.4081014852    3.2658910167
 H    0.6004345258   -4.8151016321    3.4176469800
 H   -0.3277008294   -4.6273720713    1.8578443209
 H    2.7108723203   -4.1189805151    2.2332920035
 H    0.8951774426   -3.8478828891   -0.2566997973
 H    2.5843190384   -3.3331897829   -0.1948906523
 H    2.1751322864   -5.0581903099   -0.0813748104