20

 C    0.1905108941    1.4928534436    0.0155917531
 C    0.0653733843   -0.0016436659   -0.0169248814
 C   -1.2322147641   -0.7306038467    0.4071944137
 C   -0.2895327291   -1.8240579806    0.8696675687
 N    0.8699416484   -0.8762842224    1.0166448871
 C    0.8535952250   -1.9065768139   -0.0901814711
 C    1.8839028281   -2.9954478551   -0.0749793722
 O    3.1898225145   -2.4751752904   -0.2623784364
 C    0.6459376674   -0.8544719658   -1.1665346244
 H    1.2266987697    1.8024366208   -0.1540674940
 H   -0.4313642558    1.9457766028   -0.7655824074
 H   -0.1309601364    1.8933064359    0.9823464997
 H   -1.7062220346   -0.2352271751    1.2592227521
 H   -1.9815055223   -0.9509865314   -0.3604625977
 H   -0.4742253125   -2.5958200115    1.6090414098
 H    1.8064753014   -3.5584538839    0.8689401577
 H    1.7114738996   -3.7013121342   -0.8953356508
 H    3.2915527591   -1.7774611320    0.3965246141
 H    0.0051536961   -1.0781632651   -2.0263218450
 H    1.6100327170   -0.4692855891   -1.5084798656