19

 C    0.1172093019    1.5866236824    0.0218829351
 C    0.0316632349    0.0597725272    0.0249855490
 C    0.6820471646   -0.6156866596   -1.2125367562
 C    1.1774586501   -1.9712264871   -0.7142835442
 C    0.7675356712   -3.2644047258   -1.2782431879
 O    2.0714700509   -2.7296033895   -1.5240937805
 C    1.4513928766   -1.8048988925    0.7516884580
 O    2.1790831798   -0.6015461525    1.0511316362
 C    0.7540697231   -0.5931085037    1.1984846090
 H    1.1634890777    1.9081141072    0.0238072765
 H   -0.3672029084    2.0077244427   -0.8648194193
 H   -0.3709785314    2.0143170597    0.9040398383
 H   -1.0224445858   -0.2437639446    0.0882419740
 H   -0.0046820975   -0.7028678273   -2.0573071259
 H    1.5468942254   -0.0330568104   -1.5431218610
 H    0.7384980994   -4.1548664674   -0.6502708858
 H    0.0965691649   -3.2820752813   -2.1364387455
 H    1.6652220172   -2.6604577075    1.3861223332
 H    0.3902290253   -0.4656192803    2.2157352971