17

 O    0.0301245086   -0.1055776359   -0.1338384781
 C   -0.0136049388    1.1031640629   -0.0395732932
 C   -1.3275623267    1.8688745181    0.0756525686
 C   -1.3217177439    3.2121598464   -0.6676606174
 C   -1.8767320665    4.4270454522    0.1099832251
 O   -0.5466605397    4.9350447926    0.3596767640
 C    0.0145114368    3.9845701898   -0.5842947755
 C    1.2182563293    3.2492753994   -0.0950770447
 C    1.2172776363    1.9235653145    0.0815010253
 H   -2.1412464940    1.2186470000   -0.2526146492
 H   -1.4683256314    2.0444001465    1.1510459070
 H   -1.7051065286    3.0906650103   -1.6821409471
 H   -2.4681852502    5.1247227689   -0.4973404041
 H   -2.4144978018    4.2115308661    1.0403068683
 H    0.2677112197    4.4986047703   -1.5244805863
 H    2.1257857073    3.8316337706    0.0496451588
 H    2.1209114936    1.3762581474    0.3327910286