23

 C    0.0374002874    1.4237571073    0.3493492786
 C   -0.0040765431   -0.0026220683   -0.2141099259
 C   -1.3693623125   -0.6461329811   -0.0642915825
 C   -1.6894488668   -2.1332116857   -0.1026061784
 C   -2.6809437129   -2.7203282454   -1.0657551250
 C   -0.5827295334   -2.9314501608    0.6073321211
 C   -0.8380041388   -2.1171750079    1.9180784174
 C   -1.9111509563   -1.3161396802    1.1730471800
 O   -3.1293655845   -0.9619901930    1.7360672689
 H    1.0233696945    1.8792684751    0.2132826113
 H   -0.6975441624    2.0677209761   -0.1467302959
 H   -0.1878325011    1.4302824768    1.4217049239
 H    0.2697441337    0.0173403183   -1.2772344512
 H    0.7618966266   -0.6077625456    0.2820004231
 H   -2.1622481932   -0.0814990594   -0.5570481587
 H   -2.2327043960   -2.8954189729   -2.0514951325
 H   -3.0654501777   -3.6803408018   -0.7020839754
 H   -3.5360139352   -2.0506098308   -1.2024714310
 H   -0.8424838310   -3.9872607665    0.7201395726
 H    0.4210580665   -2.8691202918    0.1759016482
 H   -1.2801093615   -2.7360759859    2.7019458622
 H    0.0040841880   -1.5602456115    2.3437774405
 H   -3.0761097601   -0.0459005052    2.0281199685