13

 O   -0.8589543253    1.2983762141    0.1907137987
 C    0.2605054413    0.9587154189   -0.0900760175
 C    1.4698970570    1.8948616653   -0.2341366460
 O    2.5302868902    1.3718975054   -0.5246280938
 C    1.3060918230    3.3284068774   -0.0239965103
 C    0.1728258394    4.0299026196    0.3039851393
 O    0.4472242488    5.3408828970    0.4055714846
 C    1.7832078993    5.5016545183    0.1396638685
 C    2.3578230663    4.3092631826   -0.1288984672
 H    0.5471817740   -0.0967909732   -0.2803734361
 H   -0.8436077868    3.7281104868    0.4843151298
 H    2.1436005855    6.5153315621    0.1865160615
 H    3.3881884971    4.1105505057   -0.3734135417