21

 C    0.0271865936    1.5335710970   -0.2137002722
 C    0.0689091501    0.0286228680   -0.0212634675
 C   -1.1674639159   -0.6951679804   -0.5186285631
 C    1.3861648244   -0.6690952411   -0.0529081019
 N    0.6414755723   -0.5490420831    1.2041549793
 C    1.1910361862    0.3122029820    2.2502813036
 C    1.7522641904   -0.5676274358    3.3673013908
 O    2.7495348038   -1.4561775267    2.8954979176
 H    0.9494597646    2.0242105338    0.1040931174
 H   -0.1287529299    1.7711808363   -1.2713389658
 H   -0.8054621663    1.9758548583    0.3461816070
 H   -1.2980388706   -0.5511507667   -1.5972029629
 H   -1.0947180267   -1.7659960630   -0.3149008836
 H   -2.0668554422   -0.3166999132   -0.0191037260
 H    1.4725559582   -1.6717912984   -0.4666736824
 H    2.2803503532   -0.0575595609   -0.1665416550
 H    1.9864263429    0.9788464289    1.8821573065
 H    0.3883100934    0.9394965468    2.6580198739
 H    2.2262395673    0.0575867842    4.1316912439
 H    0.9245209097   -1.1158071108    3.8424740854
 H    2.3147254316   -2.0242969051    2.2501733748