20

 C    0.0688125896    1.5779420746    0.0215974321
 C    0.0109434854    0.0483738585   -0.0209587307
 C    0.6772260832   -0.5204138431   -1.2834489064
 C    0.4544350042   -2.0348258157   -1.4003049279
 C    0.8454445288   -2.7650427327   -0.1356978670
 O    2.1096939157   -2.4124122007    0.4314672807
 C    0.9194052863   -2.0506667830    1.1504215502
 C    0.6280779130   -0.5639556086    1.2533477816
 H    1.1071620747    1.9298867377    0.0142906541
 H   -0.4381658632    2.0188346339   -0.8431620126
 H   -0.4077454621    1.9710038241    0.9263142529
 H   -1.0477259895   -0.2507151655   -0.0513607340
 H    0.2773056565   -0.0219885844   -2.1736169766
 H    1.7531098234   -0.3109702812   -1.2557088773
 H   -0.6051057950   -2.2451745469   -1.6013977056
 H    1.0194217669   -2.4448305431   -2.2463503200
 H    0.6352120546   -3.8360738849   -0.1221324411
 H    0.7811309873   -2.6276565347    2.0655003284
 H    1.5726280676   -0.0555046778    1.4888865038
 H   -0.0384591674   -0.3863949564    2.1054469056