18

 C   -0.1914036464    1.4728156428    0.0271784899
 C   -0.0186707888   -0.0088385383   -0.0395612408
 C    0.0889611158   -0.8026159158   -1.1002215116
 C    0.1979866202   -2.2382443750   -0.6851646737
 O    0.2754272127   -2.2004454199    0.7426885939
 C    0.0228602388   -0.8811598086    1.2154294306
 C    1.1120099642   -0.4956159881    2.2249874725
 C   -1.3077090870   -0.8433241541    1.8847800826
 N   -2.3435669136   -0.7904443959    2.3949506856
 H    0.6441121877    1.9522832160    0.5506610009
 H   -0.2569532520    1.9057615800   -0.9735551512
 H   -1.1040537780    1.7351299708    0.5754479429
 H    0.0819083974   -0.4850665375   -2.1356141712
 H   -0.6721518947   -2.8321028413   -1.0052582414
 H    1.0972554512   -2.7373650763   -1.0707460333
 H    2.0780114710   -0.4764831029    1.7144360846
 H    0.9135162270    0.4854865391    2.6644522314
 H    1.1484574844   -1.2357159548    3.0274992983