16

 C   -0.0171684859    1.5568751210    0.0152158534
 C    1.5316319110    1.5279758357    0.0157604301
 O    2.1145928394    1.3623340174    1.3261035800
 C    2.0728508063   -0.1065360675    1.2126008766
 C    0.9619002312   -0.7196578223    2.0277141376
 C   -0.1934085590   -0.6611384001    1.3604287390
 C   -0.0331821526   -0.0250833236    0.0020775452
 C    1.5121057041    0.0017115291   -0.2224284124
 H   -0.4921285994    2.0492108817    0.8657888383
 H   -0.4096476604    1.9753557016   -0.9166888935
 H    2.0712700485    2.2657265688   -0.5827143389
 H    3.0706896111   -0.5222879400    1.3771886980
 H    1.0933551398   -1.0784420255    3.0415715629
 H   -1.1583946664   -0.9658674398    1.7520628260
 H   -0.6589050276   -0.4637486682   -0.7772045540
 H    1.9700437899   -0.5330420582   -1.0516273883