21

 C   -0.0489451766    1.4646685066    0.0326046126
 C   -0.0383394213    0.0097470929   -0.0169267118
 C   -0.0282668223   -1.1949321041   -0.0366066254
 C   -0.0420743632   -2.6583900622   -0.1232924651
 O   -1.3664902160   -3.1613985944   -0.2966209874
 C    0.9232186999   -3.1606009585   -1.2201063776
 C    1.0602249541   -4.6662700247   -1.2531739024
 C    0.0873201281   -5.5157894991   -2.0263606226
 C    1.5060378671   -5.3644876665   -2.5151685624
 H    0.5937479365    1.8368810463    0.8380162998
 H    0.3086373223    1.9015682870   -0.9062575828
 H   -1.0594921615    1.8470181845    0.2139899199
 H    0.2841599800   -3.0782274696    0.8374344062
 H   -1.7731003688   -2.6503606410   -1.0049690796
 H    0.5681112235   -2.7906796306   -2.1911283434
 H    1.9014624199   -2.6933399903   -1.0500068235
 H    1.4263786159   -5.0966597060   -0.3235074059
 H   -0.2168158131   -6.4667968222   -1.6038181728
 H   -0.6982384141   -5.0066977572   -2.5732784499
 H    1.6790347920   -4.7544989833   -3.3962290665
 H    2.1782905977   -6.2108123576   -2.4262507493