19

 C    0.1181434699    0.9180333863   -0.4254195417
 O   -0.3909213075   -0.0017665540    0.5120623054
 C    0.5063252311   -0.3133587388    1.5617126116
 C   -0.2744431382   -1.0818012863    2.6285842459
 O   -0.2308701703   -2.4484179854    2.2304043764
 C    1.0557601335   -2.6825301478    1.6652379390
 C    1.5937648715   -1.3339833023    1.1437913459
 C    1.9511111314   -3.3279038740    2.7250887179
 O    3.1290085307   -3.1186252540    2.8552972163
 H    0.9977514899    0.5326257005   -0.9628379368
 H   -0.6751436933    1.1089546939   -1.1519969755
 H    0.4002978382    1.8693630116    0.0528916721
 H    0.9448844401    0.6115962501    1.9636307317
 H    0.1903805753   -0.9410459431    3.6171163943
 H   -1.3202498424   -0.7730426065    2.6724330322
 H    0.9262529799   -3.4274787342    0.8682244630
 H    1.7237070319   -1.3373442986    0.0608280403
 H    2.5635550455   -1.1209955604    1.5998372401
 H    1.3984612926   -4.0290930370    3.3890103521