21

 C   -0.8436903052    1.0659414864   -0.0649406901
 C    0.1337117804   -0.0989480425   -0.0187911387
 C    1.5034069268    0.0295632850   -0.7578300838
 C    2.2192625443   -0.6338053343    0.4669321833
 C    2.5048103346   -2.1220531954    0.2978857542
 O    3.3370194139    0.0505589688    0.9988564555
 C    0.9381161198   -0.3565388701    1.2609856006
 C    0.8474608838    0.2862241929    2.5698512492
 O    0.5123335631   -1.1013955349    2.3859417586
 H   -0.3554721131    2.0022315809    0.2258529435
 H   -1.2492388058    1.1988361407   -1.0735724120
 H   -1.6889000659    0.9003123253    0.6121522825
 H   -0.3733371785   -1.0236885120   -0.3175489082
 H    1.5994169209   -0.4714252432   -1.7239098924
 H    1.8150216140    1.0729078097   -0.8526229442
 H    3.3347272331   -2.2767833285   -0.4033070388
 H    2.7663611569   -2.5654062598    1.2624669293
 H    1.6350541720   -2.6550720193   -0.0971127264
 H    4.1302358349   -0.2817341564    0.5655916510
 H    1.7602351742    0.4749337533    3.1301149720
 H    0.0057307258    0.9386316833    2.7972436749