15

 C    0.0002980886    1.5428261161    0.0615030262
 C   -0.0052519698    0.0040125913    0.0012234323
 O    0.7035036639   -0.4258380738    1.1655493061
 C   -1.3867061155   -0.5120285808    0.0128673314
 C   -2.5076659062   -0.9428455539    0.0464971527
 C    0.6731121096   -0.4679180046   -1.2190326367
 C    1.2495191562   -0.8672646355   -2.2051041602
 C    1.8967049530   -1.3114227598   -3.3162520850
 C    2.4714756003   -1.7070299249   -4.3015496005
 H    1.0341309562    1.8941172592    0.0685213994
 H   -0.5219746568    1.9603374504   -0.8007031685
 H   -0.4980144009    1.8606215410    0.9797079794
 H    0.6974846430   -1.3901578577    1.1727213891
 H   -3.4990235957   -1.3239439667    0.0716420703
 H    2.9765332141   -2.0520203304   -5.1695162159