15

 O    0.0651419193    1.3749085862    0.0725819399
 C    0.0762985838   -0.0058231072    0.1131493432
 C   -0.4792596952   -0.7617131260    1.2835458506
 C   -1.2632769452   -0.7318088946   -0.0369558477
 O   -2.3257074528    0.1823672361   -0.1194962795
 C   -1.3710030221   -1.9146568912   -0.8258001745
 C   -1.4830118867   -2.9227023348   -1.4876303501
 C   -1.5762706768   -4.1273496087   -2.2637023112
 O   -2.5411303384   -4.4513949290   -2.9194078453
 H   -0.8630165057    1.6487980559    0.0654631564
 H    0.9280398023   -0.4274089161   -0.4095547720
 H   -0.0195502391   -1.6988341220    1.5752010302
 H   -0.9160777102   -0.1765692942    2.0860216421
 H   -3.0767441815   -0.1659118590    0.3738292198
 H   -0.6679626518   -4.7627661354   -2.2152999218