24

 C    0.1905225045    1.4883072714    0.3034953084
 C   -0.0196754866   -0.0275173969    0.3144795953
 C   -1.3197282635   -0.4597005436   -0.3768446369
 C   -1.5083784927   -1.9609908667   -0.3534674105
 N   -2.0407984049   -2.5541275510    0.8859211652
 C   -2.8228819107   -2.6579113629   -0.3570827106
 C   -4.1534059159   -1.9543321154   -0.4009507440
 O   -5.1491537214   -2.8799412142   -0.0150243723
 C   -6.4394074865   -2.3215677957   -0.0112908165
 H    1.1245964770    1.7657983535    0.8019507500
 H    0.2315359140    1.8766767598   -0.7205701119
 H   -0.6271928466    2.0044031822    0.8188570364
 H    0.8318093770   -0.5200512638   -0.1745339091
 H   -0.0357881910   -0.3951179850    1.3475204328
 H   -2.1687555666    0.0263187117    0.1154196658
 H   -1.3161777098   -0.1136609763   -1.4198992223
 H   -0.7021341184   -2.5060019708   -0.8469004049
 H   -1.5833763751   -3.4366468630    1.0955538469
 H   -2.8510330673   -3.6282095594   -0.8510818446
 H   -4.1482686044   -1.0871551001    0.2758278923
 H   -4.3551201582   -1.5836301108   -1.4221838885
 H   -7.1366241895   -3.1077138128    0.2891257238
 H   -6.5219184113   -1.4836207123    0.6993816690
 H   -6.7300046123   -1.9516925878   -1.0083995436