17

 C   -0.0620935135    1.5347910076    0.1028384299
 C    0.0148494030    0.0109296372   -0.0201163031
 C    0.7182984804   -0.4506651385   -1.2543632584
 N    1.2178054525    0.3426071366   -2.1455910841
 O    1.7830272729   -0.5092127925   -3.1313338267
 C    1.5953063262   -1.8141299558   -2.7837624818
 O    1.9572698586   -2.7723376075   -3.4100242391
 N    0.9097751275   -1.7725835122   -1.5753187267
 C    0.5089800989   -2.9623057177   -0.8539151586
 H    0.9367551613    1.9762728642    0.1259240418
 H   -0.5952341228    1.9692219468   -0.7457743040
 H   -0.5862045544    1.8085377448    1.0217713262
 H    0.5281278376   -0.4186461063    0.8505416120
 H   -0.9928938569   -0.4255454156   -0.0138950675
 H    0.8482806374   -3.8148358753   -1.4448502102
 H    0.9741356521   -3.0021299378    0.1355292717
 H   -0.5782510307   -3.0113450779   -0.7423484213