20

 N    0.0129224142   -1.2224439030    0.0647422030
 C   -0.0204197211   -0.0680828736    0.0239079233
 C   -0.0359948685    1.3921494570   -0.0267946734
 C    1.3833960709    1.9987138355    0.0013077304
 C    1.3723747221    3.5279484745    0.0017283066
 C    2.7852236357    4.1626033594    0.0802730387
 C    2.7052649841    5.3763751117   -0.8802880885
 O    1.3454804723    5.4881028799   -1.2872196048
 C    0.8047501321    4.1823878760   -1.2717643543
 H   -0.5699714144    1.6986774378   -0.9333465765
 H   -0.6219292720    1.7626616778    0.8228604299
 H    1.9047247932    1.6301652881    0.8910788818
 H    1.9474577896    1.6319862111   -0.8646083440
 H    0.7784197271    3.8806203526    0.8537197234
 H    3.0346999149    4.4591989487    1.1014665532
 H    3.5516889303    3.4542252888   -0.2492525224
 H    2.9887921825    6.3232216002   -0.4132891391
 H    3.3526604259    5.2210909503   -1.7565369487
 H    1.1154360475    3.6101239344   -2.1657015297
 H   -0.2847137964    4.2737886427   -1.2842787989