19

 C    0.0680182875    1.5685403567    0.0219461876
 C    0.0045359424    0.0404948761   -0.0019301771
 C   -1.4353532815   -0.5240520368    0.0098046559
 C   -1.4460094118   -2.0624090463   -0.1240038826
 C   -2.8677607554   -2.6558168461   -0.1683477988
 C   -2.8483369192   -4.1056420130   -0.3451911439
 N   -2.8104813792   -5.2513152319   -0.4896005615
 C   -2.1512361092   -0.1076256910    1.2217891776
 N   -2.7140338633    0.2019705781    2.1831278312
 H    1.1067272590    1.9095364011    0.0023507042
 H   -0.4416652142    2.0012385201   -0.8457152936
 H   -0.4014909009    1.9725316873    0.9238256922
 H    0.4956628761   -0.3419691574   -0.9039524499
 H    0.5500626021   -0.3737477868    0.8535129575
 H   -1.9801616827   -0.0954149067   -0.8431673103
 H   -0.9112443448   -2.3270358237   -1.0411511042
 H   -0.8929332345   -2.5054926254    0.7099745844
 H   -3.4074179602   -2.4192958885    0.7554136111
 H   -3.4410211204   -2.2134566257   -0.9919120799