21

 C   -0.0464413771    1.6548846867    0.1818286272
 C   -0.0328920087    0.1334682444    0.0968290423
 C   -1.3892994723   -0.4827614972   -0.2391070671
 C   -1.9417049443   -0.0752636530   -1.6009522548
 O   -3.1123636525   -0.8499873498   -1.8285898653
 O    0.9851021592   -0.3196440756   -0.8531616229
 C    1.8095023396   -0.8604804130    0.1949740915
 C    0.7261179734   -0.5734751297    1.2559715381
 O    1.0604773445    0.2735807735    2.3285850990
 H    0.9256305572    2.0326478830    0.5029554973
 H   -0.2774156805    2.0809218419   -0.7983540494
 H   -0.7972886346    1.9996295830    0.8992391069
 H   -1.2928609802   -1.5743047692   -0.2378222508
 H   -2.1115656072   -0.2209060332    0.5441486765
 H   -2.1753928536    0.9999584407   -1.6181363260
 H   -1.1773825490   -0.2640562302   -2.3688438504
 H   -3.4513656502   -0.6270293492   -2.7002743328
 H    2.0724943061   -1.9099198428    0.0156321977
 H    2.7251922987   -0.2748709729    0.3518370680
 H    0.2073862424   -1.4740303254    1.6070574611
 H    1.4537259291   -0.2578161920    3.0269997540