14

 O    0.5410894299   -0.1572470954    0.4159031476
 C    0.2417550601    0.8632491573   -0.1438143710
 C    1.0376266483    2.1542160807   -0.0014885984
 C    1.1111910498    2.9429567921   -1.3043551637
 O    0.1773948318    2.9786699171   -2.0726867864
 C    2.4103564240    3.6848848367   -1.5988119052
 C    2.1769256113    5.0156545371   -2.3022726207
 O    2.8295741488    5.9996214204   -2.0783335840
 H   -0.6411039557    0.9409056764   -0.8083792769
 H    0.4965521686    2.7913931085    0.7151817040
 H    2.0183770696    1.9402670259    0.4289829374
 H    3.0304112260    3.8370634454   -0.7126298325
 H    2.9799436586    3.0470078708   -2.2923868706
 H    1.3524544989    5.0037126670   -3.0420211996