18

 O   -0.0275351594    1.3217012865    0.1093736120
 N    0.0489089759   -0.0821439603    0.1123658605
 C   -1.0990038503   -0.6341325192    0.0019280963
 C   -2.4513604718    0.0476596542   -0.0401542750
 N   -3.3824453533   -0.5508834043    0.9251201253
 C   -3.6348468528   -1.9724396205    0.6796807069
 C   -2.3982440488   -2.8114424585    0.3410831790
 N   -1.9520800358   -2.7369759389   -1.0568965783
 C   -1.1186656089   -2.1170704579    0.0036474378
 H    0.8950055380    1.5708934077    0.2254358703
 H   -2.3419751586    1.1109643616    0.1716778656
 H   -2.8804518823   -0.0583399812   -1.0434851872
 H   -2.9936116256   -0.4377743327    1.8565123656
 H   -4.1258720469   -2.3817544305    1.5680466227
 H   -4.3423219318   -2.0605252862   -0.1541465164
 H   -2.3174625908   -3.7741657334    0.8418689401
 H   -1.5280104853   -3.6142545974   -1.3473323360
 H   -0.1747810814   -2.5880373789    0.2605754309