21

 C   -1.3976778113    0.5465214029    0.4915325452
 C    0.0370447831    0.2662084447    0.0306150825
 C    0.8557968962   -0.4884045252    1.0752158404
 C    0.6362062053   -1.9762173458    1.4152053725
 C    1.1583934027   -2.9226569345    0.3812804248
 C    1.1647962171   -2.7620055699   -1.1271391865
 C    2.1629444611   -2.2587326302    1.3166575734
 C    2.3622308193   -0.8261000797    0.9008859575
 O    3.3252861162   -0.1518839837    0.6638977048
 H   -1.4097176477    1.1437814215    1.4101533943
 H   -1.9575465675    1.0963147000   -0.2711861658
 H   -1.9387706463   -0.3841314652    0.6946878335
 H    0.0125292201   -0.2869661370   -0.9125642180
 H    0.5512972791    1.2122365105   -0.1792309805
 H    0.8226978605    0.0810426296    2.0169444916
 H   -0.0166140995   -2.3210679708    2.2076762277
 H    0.9954716861   -3.9567126314    0.6829771923
 H    1.4927886431   -1.7708134480   -1.4452352820
 H    1.8535682494   -3.4874131332   -1.5730011975
 H    0.1700407982   -2.9460179901   -1.5477219225
 H    2.8197196249   -2.8386428043    1.9534467524