20

 C   -0.1067335316    1.4023369995   -0.3201372863
 C   -0.0321908539   -0.1035512125    0.0161954328
 N    0.6824837777   -0.4260409924    1.2468937738
 C   -1.4513661335   -0.6397634273    0.1390794351
 O   -2.0343051018   -0.8056431186    1.1808330696
 O   -1.9859622376   -0.8731171082   -1.0777417245
 C   -3.3355839182   -1.3090275849   -1.0974831569
 C   -4.3803882486   -0.3267978697   -1.5325988287
 C   -3.9371493982   -1.4468212951   -2.4555264679
 H    0.9047427031    1.8098872297   -0.4165841792
 H   -0.6333573090    1.5760967195   -1.2635336965
 H   -0.6228913105    1.9481278924    0.4765718325
 H    0.4417734298   -0.6183329063   -0.8279777783
 H    1.4535941884    0.2193119667    1.3820292279
 H    0.0431686053   -0.3110924058    2.0287436738
 H   -3.5627060513   -2.0199837432   -0.3135480535
 H   -5.3573294238   -0.3790179928   -1.0657599482
 H   -4.0433300461    0.6743478584   -1.7757648834
 H   -3.3113485869   -1.1745124583   -3.2976882374
 H   -4.6073149634   -2.2791804111   -2.6370588546