15

 N    0.0120365355    1.3938898790    0.1580155849
 C   -0.0323823026    0.0038318287    0.0468481038
 C   -1.1109922210   -0.8409817924    0.0373609604
 N   -0.5552613660   -2.1261334045   -0.0121881372
 C    0.7804476255   -1.9630972863   -0.0304994487
 O    1.5609366923   -3.0671162046   -0.0867986129
 C    2.9163633827   -2.8947195569   -0.0054309350
 N    3.6459252722   -3.9162550944   -0.0907638597
 N    1.1521645405   -0.7091236292   -0.0001297467
 H    0.8785443830    1.7612789386   -0.2127834063
 H   -0.7790821678    1.8587757514   -0.2659756286
 H   -2.1736416756   -0.6795191667    0.0666612809
 H   -1.0413256121   -3.0058835825   -0.0306409174
 H    3.2002220681   -1.8500878182    0.1293724788
 H    4.6241405952   -3.6454128920   -0.0084671463