17

 O    0.0525602938    0.3059424207   -0.9543963996
 C    0.0346186464    1.2594094346   -0.2248127993
 C   -1.3218532997    1.8709635558    0.1672050749
 C   -1.4653687187    2.9322395448    1.2678834471
 C   -0.6793190095    4.1831469262    0.9355427086
 O    0.1392805845    4.7562741332    1.9573159281
 C    0.7831695074    4.0903315900    0.8652956257
 C    1.4171449839    2.7559217289    1.1878823367
 O    1.2327819353    1.7840317387    0.1487470780
 H   -1.7060313019    2.2779434660   -0.7773648575
 H   -1.9593986805    1.0096012066    0.3844824062
 H   -2.5284078800    3.1726254692    1.3735539614
 H   -1.1413926740    2.5486501997    2.2385190123
 H   -1.1769076933    4.9159150769    0.3005763410
 H    1.3331147395    4.7433205133    0.1898093771
 H    2.5022305684    2.8450171720    1.2744478172
 H    1.0351179084    2.3859737534    2.1427362920