21

 C   -0.1051853556    1.5191084605   -0.0181213059
 C   -0.0147891508    0.0110354271    0.0674317316
 C    1.2822687044   -0.7106126644   -0.2139052058
 C    0.7187678051   -0.6771823522    1.1912259188
 C    1.4158660197    0.0648555075    2.3391658909
 C    1.8790321590   -1.0479065910    3.3165685647
 C    0.9072820628   -2.1863823589    3.0684691231
 O   -0.4681467634   -1.7765878463    3.0430895324
 C    0.2208773069   -1.9576683323    1.7920763803
 H    0.8220276863    1.9972717331    0.3117682281
 H   -0.2942842193    1.8409911165   -1.0481298435
 H   -0.9182876155    1.9055668902    0.6061403329
 H   -0.9110760947   -0.5031152815   -0.2733363638
 H    1.2520672657   -1.6445260457   -0.7670661282
 H    2.1644054346   -0.1081254800   -0.4101601621
 H    2.2482922671    0.6858593975    2.0004067708
 H    0.6999513991    0.7190730953    2.8442712494
 H    2.8911497600   -1.3940844888    3.0739859580
 H    1.8860799450   -0.7136099271    4.3584234016
 H    1.0911808887   -3.1783380647    3.4742973402
 H   -0.1572078852   -2.7584967149    1.1602141465