16

 O    0.1099126611   -0.0464314942    0.3778057351
 C    0.0472682689    1.1360680947    0.1596312283
 N   -1.1376386700    1.8097205942   -0.0107613337
 C   -1.3528458876    3.2503474317   -0.0064297340
 C   -0.0291180570    3.9543746289    0.1832338111
 C    0.0375996886    5.3948499235    0.4359899788
 O    0.2452069335    4.4583886002    1.4952052105
 C    1.1026556689    3.2055919456   -0.4655283291
 O    1.1852513578    1.8763916623    0.0559290233
 H   -1.9383786309    1.2089696964    0.1026802178
 H   -1.8078371142    3.5646269123   -0.9566335590
 H   -2.0282751730    3.5430509322    0.8051932715
 H    0.9165477414    5.9590015814    0.1264774494
 H   -0.8848446563    5.9720913378    0.4911744763
 H    0.9658346450    3.1686819949   -1.5551736180
 H    2.0623399739    3.6745034780   -0.2420959983