20

 C    0.1763641043    1.5423795520    0.1918630836
 C   -0.1219665680    0.0672492225   -0.0711865223
 N    0.5579296226   -0.4202246625   -1.2663607565
 C    0.0392020185    0.1428023821   -2.5314129219
 C    0.1228019791   -1.0260531861   -3.5060368725
 O    1.5282317570   -1.4316038883   -3.5812230002
 C    1.2554686326   -2.4477618908   -2.6181476598
 C   -0.2394679021   -2.2854988342   -2.6804872277
 C    0.5085456967   -1.8639600503   -1.4330280055
 H    1.2549297056    1.7044196323    0.2745598476
 H   -0.2002616207    2.1787965213   -0.6151503159
 H   -0.3013874423    1.8688034739    1.1207963725
 H    0.2327899459   -0.5266976946    0.7786947990
 H   -1.2188809789   -0.0826472972   -0.1293730752
 H   -1.0092003739    0.4771260712   -2.4321212481
 H    0.6443688115    0.9877324328   -2.8738753289
 H   -0.3131785741   -0.8653221423   -4.4921221545
 H    1.9025005433   -3.3172876782   -2.5938240605
 H   -1.0666610061   -2.9710180903   -2.8032801214
 H    0.4537966391   -2.4569389231   -0.5277698417