13

 O   -0.0175094651    0.1103148977   -0.7056860711
 C   -0.0674770532    1.0348351307    0.0401916797
 O   -1.1315253178    1.8371189245    0.1226131944
 C   -1.2904496871    2.7543510261    1.2165435762
 C   -0.3583125166    3.9473279150    1.0944546232
 N    1.0445917151    3.6633215544    1.3140710246
 C    1.5377502001    2.5148151693    1.2288196253
 O    0.9899734551    1.2837165684    0.8966696955
 H   -2.3328117336    3.0729689308    1.1523875635
 H   -1.1420312191    2.2295363338    2.1661611048
 H   -0.4794210593    4.4046509056    0.1044527208
 H   -0.6608468923    4.7079274569    1.8245103811
 H    2.5872661537    2.3453074568    1.4570423720