16

 N   -0.1889737982    1.3930861516    0.0841536633
 C    0.0332004666   -0.0500153794   -0.0079201083
 C    0.7000903776   -0.4668558369   -1.2628943963
 N    1.2352794019   -0.7518045956   -2.2476485545
 C    0.8340300665   -0.5363662391    1.2047220044
 C    0.0479923299   -0.4975287467    2.5303111442
 O   -0.0445612009   -1.9379238048    2.5625767465
 C    0.8400376632   -2.0634728111    1.4307370494
 H    0.6926182950    1.8871811734   -0.0253746920
 H   -0.7916366039    1.7070359272   -0.6705558250
 H   -0.9488795841   -0.5387389461    0.0153750916
 H    1.8143249974   -0.0539035993    1.2163959672
 H    0.6100193129   -0.1031630987    3.3859379198
 H   -0.9329306028   -0.0120753121    2.4910906945
 H    0.4099096745   -2.6776866724    0.6302347961
 H    1.8145949946   -2.4807725001    1.7123967591