15

 C   -0.0696645405    1.4125549252    0.0883934120
 O    1.3897414818    1.4598116082    0.0423927136
 C    1.4452431659    0.2086634953   -0.7276852956
 C    2.1700824677   -1.0524157280   -0.2968874270
 N    2.0071194255   -1.4678804539    1.1071875308
 C    1.0883789298   -2.0322098646    0.0819558751
 C   -0.2046387247   -1.2662359730    0.1418517200
 C    0.0233831484   -0.0378398178   -0.3195093253
 H   -0.4649161097    1.6269198131    1.0861243424
 H   -0.5096355689    2.1001373464   -0.6459682344
 H    1.6512375302    0.4375505449   -1.7818968381
 H    3.0524166232   -1.3802919857   -0.8352155702
 H    2.7345443275   -2.1508309402    1.3132989352
 H    1.1529798391   -3.0883392011   -0.1576172882
 H   -1.0603056053   -1.6051101286    0.7132492597