18

 C    0.0383374064    1.4837507768    0.1122365739
 C    1.3586832611    0.7503921766    0.0636434696
 C    0.0663339193   -0.0238856817    0.0906373056
 N   -0.0190437824   -0.8804426489   -1.0965637149
 C    0.0545686010   -0.4211040212   -2.5018789376
 C    0.2743135532    1.0134122581   -2.9370083822
 O    1.4582375617    1.4749757345   -2.2907093700
 C    1.9258052991    0.4934223751   -1.3515004407
 C    1.2774446553   -0.8420724975   -1.7792423205
 H   -0.2447138369    1.9252918675    1.0629991545
 H   -0.2588212399    2.0668305551   -0.7456268659
 H    2.0428659146    0.7885508930    0.9035302624
 H   -0.2695064768   -0.5441158000    0.9811861393
 H   -0.4839854014   -1.0676696410   -3.1893670064
 H    0.4301682046    1.0228092458   -4.0251407361
 H   -0.5695787316    1.6798082254   -2.7192809361
 H    3.0172782718    0.5070371847   -1.3767890039
 H    1.8454813109   -1.7538191922   -1.9353062910