23

 C    0.3226373684    1.5432439897    0.0753368090
 C    0.1885570386    0.0466478929   -0.0505815584
 C   -0.0441010296   -0.6118200912   -1.1962182968
 C   -0.2220942065    0.0195598338   -2.5536787253
 C   -0.1404493289   -2.1330787688   -1.2121881151
 O    1.0601984745   -2.8119738317   -0.8695047835
 C    1.2559219161   -2.9904631072    0.5177277886
 C    1.5282955734   -1.7024704330    1.2968924659
 C    0.3622318713   -0.6966452278    1.2683337956
 H    1.3056891696    1.8078967318    0.4874450784
 H    0.2019988245    2.0803909786   -0.8655716908
 H   -0.4199486283    1.9354722154    0.7830420269
 H    0.5512718824   -0.3375791272   -3.2466111858
 H   -1.1855825068   -0.2720902372   -2.9929580390
 H   -0.1832457862    1.1090180513   -2.5433096418
 H   -0.9579623414   -2.4734394444   -0.5534813582
 H   -0.3842546322   -2.4688419762   -2.2251281834
 H    0.3782409691   -3.4988763873    0.9562855152
 H    2.1089638169   -3.6710460628    0.6111136122
 H    1.7349734993   -1.9867031660    2.3371537753
 H    2.4354088591   -1.2272214480    0.9062413615
 H    0.5126494247    0.0369686048    2.0670142891
 H   -0.5671955979   -1.2270380295    1.5247470306