20

 C    0.1166518667    1.3463824530   -0.2266581074
 C    0.0054631427   -0.0906101652    0.2959318859
 C   -1.3896716295   -0.6544386947    0.1282221438
 C   -1.8902471998   -1.3249308489   -1.1044983368
 O   -0.8270948202   -2.0657083794   -1.7537537963
 C   -0.7394825539   -2.9102489310   -0.6302388779
 N   -0.0718709861   -3.9511592883   -0.4573885781
 C    0.7973329838   -4.4247384458   -1.5251372160
 C   -1.7501191114   -2.1487595232    0.1602979249
 H    1.1269913930    1.7396700758   -0.0800077182
 H   -0.1106362768    1.3934740407   -1.2965640658
 H   -0.5792144562    2.0154735851    0.2918213249
 H    0.7216292176   -0.7298530507   -0.2280522770
 H    0.2743462246   -0.1241143671    1.3584775231
 H   -2.1708997807   -0.0700413894    0.6150045787
 H   -2.7497837222   -1.0703366742   -1.7099826650
 H    1.8346005365   -4.4162096880   -1.1719049533
 H    0.5473639552   -5.4666490702   -1.7523913828
 H    0.7355140005   -3.8362324378   -2.4477772794
 H   -2.4832038638   -2.5696662206    0.8327490830