15

 C   -0.0045601308    1.5074391443    0.1770020440
 C   -0.0711390067   -0.0013582160   -0.1158677069
 C   -1.4617950222   -0.5355302366   -0.1195797164
 N   -2.1231840976   -1.0549057992   -1.1136153633
 C   -3.3568786949   -1.3714313889   -0.5812724216
 O   -4.3206851039   -1.9388967031   -1.3300272362
 C   -3.3978812915   -1.0266145132    0.7285915557
 O   -2.1652200641   -0.4828658616    1.0296879733
 H    1.0343687612    1.8488559044    0.1811210327
 H   -0.5488123471    2.0773029551   -0.5817492577
 H   -0.4433115926    1.7348607415    1.1521664632
 H    0.3600856428   -0.2251207664   -1.0944379031
 H    0.5178160092   -0.5446578073    0.6332049388
 H   -3.9525640042   -2.0457605997   -2.2153981146
 H   -4.1229325076   -1.0830827332    1.5183645421