19

 O    0.1867438683    1.3704122940    0.1842924761
 C    0.1285389253   -0.0451617396    0.1224490215
 C   -1.3398394402   -0.4488491615    0.0873151015
 C   -1.5338088775   -1.9668235765    0.0221295376
 C   -3.0038973993   -2.3796171024   -0.0196513138
 C   -3.6979856997   -2.0760790653   -1.3452104582
 O   -4.8894245076   -2.1331302810   -1.5018060960
 C   -3.2265101028   -3.8674408507    0.2775657391
 O   -2.3515241475   -4.6305420727    0.5855364373
 H    1.1109208590    1.6344212309    0.2109426636
 H    0.6407363445   -0.4287947125   -0.7754513065
 H    0.6179323608   -0.5061854261    0.9961012209
 H   -1.8327159072   -0.0447304813    0.9802994164
 H   -1.8105293613    0.0434030874   -0.7732770872
 H   -1.0265333157   -2.3759217832   -0.8620246743
 H   -1.0605616222   -2.4516935239    0.8816209794
 H   -3.5944724483   -1.8543891371    0.7466473352
 H   -3.0102400685   -1.8366530609   -2.1871617073
 H   -4.2858633802   -4.1852328274    0.1858093147