17

 N    0.4687755890    0.3656484463    1.5285481304
 C   -0.0203600633   -0.1294043945    0.4781773260
 O   -0.9852446704   -1.0704050766    0.5713028839
 C   -1.4779439447   -1.6049558931   -0.6556871224
 C   -2.6263193246   -2.5373352783   -0.3302044427
 C   -2.5944895838   -3.3659639536    0.9169306013
 N   -3.5318235554   -2.2522998989    0.8039238106
 C   -3.3210609937   -3.0986909639   -1.5222130812
 O   -2.9256261162   -2.9591628308   -2.6539196730
 H    1.1754796965    1.0591492153    1.2931325320
 H    0.2488579498    0.1201213946   -0.5565216581
 H   -1.8294516148   -0.7990434138   -1.3122406995
 H   -0.6895691430   -2.1512318445   -1.1868032830
 H   -3.0453973376   -4.3546050046    0.9179008518
 H   -1.7162855786   -3.2477925817    1.5437730219
 H   -3.1548432097   -1.4511347764    1.3077702550
 H   -4.2471208797   -3.6620491457   -1.2791453128