17

 C    0.0389405941    1.6091298470    0.0392985199
 C    0.0642938240    0.0781771080   -0.0462773560
 C    0.8091725214   -0.5479800304    1.1481480088
 N    0.8016548305   -1.9958273433    1.0436889551
 O   -1.2830414874   -0.4395673406    0.0634002076
 C   -2.1199555014   -0.3963896237   -1.0035457427
 O   -3.2620136363   -0.7258629805   -0.9112662422
 C    0.6999545734   -0.3498242023   -1.3102615536
 N    1.2169688697   -0.6158852371   -2.3085153157
 H    1.0563911556    2.0084100954    0.0324168943
 H   -0.5029139848    2.0390754613   -0.8062702901
 H   -0.4594121296    1.9078282882    0.9645753137
 H    1.8441294818   -0.1929290064    1.1228569599
 H    0.3371706671   -0.1382279848    2.0561120339
 H    1.4322234983   -2.4074552150    1.7213631711
 H   -0.1284910843   -2.3549005141    1.2290349463
 H   -1.6352119523   -0.0505648618   -1.9319658906