17

 O    0.4083828607    1.1999927795   -0.5322909376
 C    0.1655760823   -0.0899388442   -0.0469715388
 C    0.1955883294   -0.1856981127    1.4921818242
 N   -1.1657169692   -0.8145019581    1.5447300022
 C   -2.2469120585    0.1929132652    1.8107420389
 C   -2.3805477993    0.5388198467    0.3053222474
 C   -1.3268392118   -0.5702544796    0.0463612119
 C   -1.7112036562   -1.6764533743   -0.8095343051
 N   -1.9964358352   -2.5392289331   -1.5254864102
 H    0.4831730728    1.1648333878   -1.4918671134
 H    0.7925080039   -0.8392700900   -0.5428405132
 H    0.9721193913   -0.8297600563    1.9109134842
 H    0.2489686085    0.7984573142    1.9692205507
 H   -3.1297878467   -0.2899139500    2.2378640828
 H   -1.9369361914    1.0060006123    2.4737528308
 H   -3.3584536281    0.3575358223   -0.1408445364
 H   -2.0208982424    1.5264772101    0.0122843516