10

 O   -0.0172290130   -0.0979581063    0.0035340138
 C    0.0132613538    1.1001067571    0.0055826429
 O    1.1159502418    1.8622977313   -0.0027716044
 C    2.3464497902    1.1123735073   -0.0151095876
 C    3.4515750273    2.0650285220   -0.0193961096
 N    4.3541756428    2.7838565524   -0.0231462404
 C   -1.1800306560    1.9475852754    0.0180281580
 N   -2.1551025630    2.5656189684    0.0280208627
 H    2.3987336245    0.4670235271    0.8669676511
 H    2.3854957215    0.4745753452   -0.9033646164