15

 O   -0.0794433449    1.4475476059    0.0245644538
 C    0.0137546232    0.0377299417    0.1404649057
 C   -1.3663720092   -0.5395157320   -0.1846676889
 C   -1.4028336073   -2.0298896009   -0.0692011347
 N   -0.9321175823   -2.8307923952   -1.0326222213
 N   -1.1196578828   -4.0479155436   -0.5402434064
 N   -1.6747999320   -4.1274701129    0.6597878113
 C   -1.8622920091   -2.8470445361    0.9818155188
 H    0.7896671384    1.8221178768    0.1941823433
 H    0.7539413198   -0.3812500178   -0.5575850876
 H    0.3101208014   -0.2656599935    1.1574280728
 H   -2.0989450625   -0.0952231554    0.4964531342
 H   -1.6381957467   -0.2348355935   -1.1997455360
 H   -0.8676687867   -4.8723381041   -1.0609667621
 H   -2.3108494893   -2.5719808593    1.9233775972