12

 N    0.0284584410    1.3527423005    0.1650958469
 C   -0.0987097215   -0.0011434869    0.0665662603
 C   -1.1700858249   -0.8547139360    0.0383086907
 C   -0.5310848570   -2.1104307424    0.0045164953
 N    0.7770620448   -2.0695824356    0.0082463511
 O    1.0527391907   -0.7013549665    0.0475366748
 N   -1.2083065993   -3.4048003824   -0.0359048898
 O   -2.4328583025   -3.3578301294   -0.0457633134
 O   -0.5241644291   -4.4112633923   -0.0571411421
 H    0.9209832576    1.7269471843   -0.1218198260
 H   -0.7639263973    1.8951554328   -0.1404583486
 H   -2.2231544327   -0.6437543163    0.0455824010