17

 C    0.0030892141   -1.1955239298    0.0959603886
 C    0.0228460935    0.0055031414    0.0476680818
 C    0.0174287885    1.4447644325   -0.0376396255
 C   -1.1860678537    2.0965830927   -0.7184132339
 C   -0.7533282421    3.2670473608   -1.6071030588
 O    0.1445147199    4.1333297246   -0.9371613526
 C    1.3986259881    3.5291712700   -0.7137581459
 C    1.3006578774    2.1909264506   -0.0133746374
 O    0.4823686529    2.1327193149    1.1449313835
 H   -0.0074493806   -2.2562098818    0.1501393269
 H   -1.7203714231    1.3548155703   -1.3188676333
 H   -1.8669378540    2.4448757283    0.0647107161
 H   -0.2881566681    2.8838977590   -2.5311639634
 H   -1.6153806584    3.8757422277   -1.8924218555
 H    1.9405598483    3.3790137236   -1.6646187654
 H    1.9767051637    4.2293377511   -0.1015938626
 H    2.2313244438    1.6253938940    0.0471639274