21

 C   -0.2541248011    1.4735071220    0.0556773082
 C   -0.0402758550   -0.0366092634    0.0666979588
 C    0.8855011294   -0.5644947780   -1.0699884744
 C    2.0702542800   -0.5915605570   -0.0759474620
 C    1.0402256635   -0.5215938838    1.0882113029
 O    1.4449399916    0.3168499014    2.1447156250
 C    2.9930824486   -1.7899260332   -0.0420115099
 C    4.1853178323   -1.6678318454    0.8892453353
 O    2.7682152999   -2.7934091433   -0.6818540805
 H    0.6914736000    2.0164794400   -0.0380799806
 H   -0.8933851598    1.7612487330   -0.7854146127
 H   -0.7345773592    1.8153554603    0.9780760616
 H   -1.0043811524   -0.5471578079    0.1560143182
 H    0.6378484054   -1.5752796442   -1.3994898960
 H    0.9968295541    0.0791426043   -1.9452442923
 H    2.6473082288    0.3381254372   -0.0758970522
 H    0.8022369302   -1.5311275121    1.4520014479
 H    0.8297784187    0.2100932789    2.8773303073
 H    3.8797621297   -1.2346005381    1.8477138049
 H    4.6555777426   -2.6411893763    1.0352382096
 H    4.9167500726   -0.9773090544    0.4516466509