15

 N    0.0079379400   -1.0913523450   -0.1468931633
 C   -0.0441665929    0.0548156106   -0.0099117878
 C   -0.1037710884    1.4875054061    0.1714762174
 N   -1.0827320295    2.1442901668   -0.2965876654
 C   -1.1241794717    3.5475276184   -0.0402559981
 C   -1.1083397580    4.0262773462    1.4055221418
 C    0.0988672691    4.2221233283    0.5360647322
 C    1.3070807263    3.3296419314    0.6914406447
 O    0.9557368994    1.9422218474    0.8850469923
 H   -1.7551866473    4.0871423392   -0.7361008405
 H   -1.7123833998    4.8922848808    1.6503653604
 H   -1.0765221722    3.2612886329    2.1736882866
 H    0.3309504775    5.2280385135    0.1996941519
 H    1.9392667474    3.3977997053   -0.2029184535
 H    1.9121452502    3.5877861483    1.5641343513