15

 O    0.0754680863    1.4072271614   -0.0692932895
 C    0.0014661973    0.0204723042   -0.0456344955
 C    0.2016243105   -0.7647511601   -1.3657414893
 O   -0.9987446516   -1.5293905727   -1.1157251605
 C   -1.3524934439   -0.7153073603    0.0205163075
 C   -1.3169356048   -1.5104624340    1.3215209249
 O    0.0596257455   -1.5035376503    1.7693020362
 C    0.7802218479   -0.5572161246    1.1348339675
 O    1.8707943326   -0.1978606066    1.4834772977
 H    0.9132208740    1.6476548892    0.3519214737
 H    0.1027507401   -0.1095282548   -2.2392352967
 H    1.0903134464   -1.3966650807   -1.4646392462
 H   -2.2708807524   -0.1429330770   -0.1335356068
 H   -1.9285254143   -1.0555892252    2.1073851341
 H   -1.6198305637   -2.5477907185    1.1681308630