21

 C   -0.0125486813    1.5030003238    0.0817254357
 C   -0.0254981133    0.0088868967    0.0007069029
 C   -0.0092601151   -0.7621313128   -1.0906853224
 C   -0.0006893713   -2.2376556019   -0.7791167132
 C   -0.2812634695   -2.2713409285    0.7452264217
 C    0.4273939051   -3.3821297209    1.5031054616
 O   -0.0381797966   -4.6206812620    0.9798130235
 C    0.0505856555   -0.8415101748    1.2545652810
 O    1.3336759151   -0.7110530767    1.8850633251
 H    0.8283049375    1.8489854964    0.6939136088
 H    0.0638519752    1.9640596273   -0.9067450964
 H   -0.9237766728    1.8803608455    0.5634948033
 H    0.0078726729   -0.3815136503   -2.1079190203
 H   -0.7518915814   -2.7968214618   -1.3458550927
 H    0.9657167807   -2.6973106485   -1.0319551562
 H   -1.3589850407   -2.4193835692    0.8802746184
 H    1.5165416124   -3.2841098905    1.3816537667
 H    0.2152689994   -3.2957624068    2.5798574412
 H    0.4370348083   -5.3292558644    1.4230918207
 H   -0.6515623477   -0.5236488200    2.0331931080
 H    1.9987316375   -0.7762298806    1.1902433825