20

 C   -0.1546703601    1.5708213185    0.0944974489
 C   -0.0076097269    0.0703541232   -0.0066918183
 C    0.6624925225   -0.6191441129   -1.1804283588
 C    1.3787308263    0.1356701972   -2.2943141500
 C    2.9020442547   -0.0262366594   -2.1450843667
 C    3.3907665085    0.4307140026   -0.7753106982
 O    4.4395996901    1.0202019823   -0.5986738535
 N    2.5348020681    0.1498549509    0.2614466469
 C    1.3345086908   -0.6217049787    0.1714174876
 H    0.7737312138    2.0908517867   -0.1532249029
 H   -0.9391039316    1.9394290868   -0.5754078201
 H   -0.4281146982    1.8601856816    1.1148431937
 H   -0.8450620876   -0.4837549055    0.4099436398
 H    0.2260828730   -1.5663674631   -1.4805696978
 H    1.0534065834   -0.2386502636   -3.2696202847
 H    1.1253781387    1.2005006168   -2.2760453959
 H    3.1756617513   -1.0815090249   -2.2726159386
 H    3.4587843404    0.5463588381   -2.8895445513
 H    2.8457481964    0.4809521084    1.1640448898
 H    1.3509959765   -1.5520076952    0.7349228602