20

 C    0.1824697407    1.3732148124   -0.5052273228
 C   -0.0725345773    0.0343486557    0.1538044123
 C   -1.3601580553   -0.6423903965   -0.2693878195
 O    1.0633489116   -0.8502456866    0.2255120475
 C    0.5177260018   -0.3395324197    1.4536776967
 C    1.4409820469    0.5183308907    2.2860330243
 N    2.5217989631   -0.2867032648    2.8335511303
 C    2.7603920021   -0.4047223308    4.1664933601
 O    2.1431076563    0.1642673988    5.0422684354
 H    1.1614692194    1.7788630668   -0.2476292565
 H    0.1429647397    1.2622836852   -1.5942523445
 H   -0.5854411963    2.0990045665   -0.2171936646
 H   -1.3705230324   -0.7962602495   -1.3538089778
 H   -1.4670395930   -1.6153968375    0.2156452428
 H   -2.2268801363   -0.0249759481   -0.0101947988
 H   -0.0119062364   -1.0948706659    2.0385628888
 H    1.8511169336    1.3426857716    1.6954428947
 H    0.9065352247    0.9413401662    3.1406165124
 H    3.0716253530   -0.8325462049    2.1884188251
 H    3.6053843942   -1.0914975098    4.3709022141