18

 C   -0.0422366140    1.5693445979   -0.1765195740
 C    0.0200838147    0.0445179289   -0.0868757969
 C    1.0764453595   -0.7955168859   -0.8991165776
 C    2.1460172293   -0.5438227729    0.2398903446
 C    2.9730228394    0.7317200195    0.3993601900
 C    0.7992408172   -0.7676197583    1.0256665622
 C    0.6244754883   -1.9298974910    0.0347911796
 O    0.3107402351   -3.0793962871    0.0062723231
 H    0.8998894158    2.0439561848   -0.4432435888
 H   -0.7680886729    1.8460592252   -0.9482921367
 H   -0.3928886000    2.0039335432    0.7659289684
 H   -1.0015808433   -0.3326294697   -0.2080327764
 H    1.2350233873   -0.8118380384   -1.9761975864
 H    2.8330894318   -1.3926303172    0.3307167771
 H    2.3981871484    1.6086665622    0.6899030584
 H    3.7224211228    0.5684249868    1.1809431764
 H    3.5156455644    0.9649427674   -0.5232690130
 H    0.6407406460   -0.7508207355    2.1027555502