16

 C   -0.0679524384    1.3731109046    0.0349201985
 N   -0.0271951908   -0.0629319796   -0.1647800075
 C   -1.1940510039   -0.8968703141    0.0223156990
 C   -0.5696154476   -2.2897066835   -0.2186857310
 O    0.8023456430   -2.1235039429    0.1338564354
 C    1.1236844050   -0.7911908558    0.1023147795
 N    2.2721056002   -0.2959183714    0.2738952974
 C   -1.7998903046   -0.7624504936    1.3674594955
 N   -2.2713907626   -0.6348317720    2.4146781773
 H    0.9389188545    1.7556593687   -0.1315628413
 H   -0.7573808907    1.8301216261   -0.6814484687
 H   -0.3838248780    1.6370919481    1.0528006754
 H   -1.9710441604   -0.6732775348   -0.7167557086
 H   -1.0042023414   -3.0748342211    0.4004098116
 H   -0.6522035503   -2.5593651889   -1.2771047909
 H    2.9674284660   -1.0277120199    0.3939250384