20

 C   -0.0500661494    1.5236394055   -0.0009754222
 C    0.0080559153   -0.0086672223   -0.0251378793
 C   -1.4295511747   -0.5399985057   -0.0789775627
 N    0.8541485063   -0.5312448933   -1.1630375598
 C    1.1252361505   -1.9578099325   -0.7020558630
 C    1.9430459233   -1.3203416479    0.4555606036
 C    2.2587671655   -0.2621400684   -0.6379564004
 C    0.8119627638   -0.5913795170    1.1738448015
 O    0.5864769004   -0.4851176388    2.3496399653
 H    0.9322884209    1.9976120839    0.0380226283
 H   -0.5669168247    1.8880682338   -0.8937442753
 H   -0.6048031530    1.8498193533    0.8829648500
 H   -1.9327521191   -0.1550492263   -0.9709317870
 H   -1.4922826638   -1.6294247565   -0.0991498451
 H   -1.9738916988   -0.1983675962    0.8055894806
 H    0.2534947622   -2.5702470956   -0.4721189934
 H    1.7516998966   -2.4680439961   -1.4370599357
 H    2.6807113097   -1.8366152709    1.0680826144
 H    2.9953018524   -0.6077181408   -1.3667356463
 H    2.4823126266    0.7638822219   -0.3460852535