19

 C   -0.0716868478    1.5026536452    0.0017148836
 C    1.2798984304    0.8387875935    0.0273179231
 O    1.9033093333    0.6552584128    1.2822996058
 C    1.0230593857   -0.0865089838    2.1489263812
 C    0.0487617041   -0.7552627608    1.2263972743
 C   -0.6447521425   -1.8883697744    1.1522742814
 C   -1.2893113573   -2.0351115520   -0.2167644001
 C   -0.5529418422   -0.9682617642   -1.0925264028
 C    0.0460752627   -0.0162081336   -0.0626788443
 H   -0.4507740030    1.9860077726    0.8971175043
 H   -0.3498556747    1.9928249916   -0.9268169575
 H    2.0026357804    0.9880474803   -0.7667689344
 H    1.6288738573   -0.7823743021    2.7370936141
 H    0.5246325908    0.6003983095    2.8497490938
 H   -0.7404877923   -2.6365567489    1.9307243116
 H   -1.1749381433   -3.0472349380   -0.6204724296
 H   -2.3706655053   -1.8433106791   -0.1746985027
 H    0.2360194975   -1.4522214973   -1.6789854611
 H   -1.2242880437   -0.4672852512   -1.7943170908