21

 C   -0.0497551220    1.6532632269   -0.0658386821
 C    0.0460249245    0.1385938319    0.0531866264
 C    1.1301329257   -0.6699428416   -0.7310416983
 C    2.1882886534   -0.1970454366    0.3074819212
 C    0.9230801372   -0.5845893336    1.1388698885
 C    0.8327185500   -1.8526387461    0.2303241312
 C    0.7826897208   -0.5621164268    2.6218210670
 C    0.2537544210    0.5882979873    3.3683008268
 O   -0.5511885303   -0.5697950318    3.1478641500
 H    0.9000214604    2.1686752467    0.0993177407
 H   -0.4023359353    1.9276377374   -1.0667276946
 H   -0.7762660225    2.0537709123    0.6488634565
 H   -0.9549858516   -0.2984405231   -0.0312847436
 H    1.2506662335   -0.7194713552   -1.8140796008
 H    3.0620160949   -0.8428283380    0.4338639966
 H    2.4844488320    0.8530218404    0.2976598086
 H   -0.1506607507   -2.3233142781    0.1494242110
 H    1.6275086883   -2.5934900642    0.3539627583
 H    1.4658968044   -1.2287181868    3.1533416651
 H    0.5707300352    0.7498867568    4.3981113835
 H   -0.0570017790    1.4833216720    2.8337725781