13

 N   -0.0116269292    1.3006526551    0.2779085150
 C   -0.0239432919   -0.0503846350    0.0303120664
 N   -1.1040249747   -0.8165742670    0.0028469899
 C   -0.5712372814   -2.0453840280   -0.2015879011
 O   -1.3876006606   -3.1218007696   -0.3144707729
 C   -0.9249959932   -4.3295633846    0.1444325673
 O   -1.5351306681   -5.3331159785   -0.0406133649
 N    0.7375222629   -2.1218188877   -0.3186823742
 N    1.0843036738   -0.8010278100   -0.1483668763
 H    0.6859660652    1.8370100019   -0.2172266526
 H   -0.9337820808    1.7072182203    0.2084476881
 H    0.0285476263   -4.2314963128    0.6843869800
 H    2.0544290417   -0.5364366340   -0.1444506848