18

 O    0.1500678715    1.3851753199   -0.3090690719
 C    0.0286300948    0.0069725620    0.0113176850
 C    0.6934530760   -0.3807648728    1.3561416260
 O   -0.2150484292   -0.4548280603    2.4551678241
 C   -1.5207177910   -0.8800131119    2.0874245695
 C   -1.5226177715   -1.7954864591    0.8304623136
 C   -1.4339883112   -0.4676612878    0.0182451345
 C   -2.1880338222    0.2041048845    1.2055904593
 H   -0.3408636098    1.8897578522    0.3481386614
 H    0.5743208255   -0.5036544295   -0.7904591382
 H    1.2041407640   -1.3474729918    1.2405800329
 H    1.4509279998    0.3639635128    1.6153539941
 H   -2.0095021811   -1.2143433702    3.0043237082
 H   -0.7331421677   -2.5426235940    0.7202249514
 H   -2.4944794050   -2.2791753882    0.7081144541
 H   -1.8751566225   -0.4135285700   -0.9785404037
 H   -3.2695882809    0.0708960411    1.1213192390
 H   -1.9756645496    1.2453601631    1.4672277807