20

 C   -0.5593161561    1.3458326704   -0.1437748774
 N   -0.4260953533   -0.1037466815   -0.0961623908
 C    0.9727022842   -0.5143764681   -0.1238019235
 C   -1.1352703562   -0.6927959529    1.0299609951
 C   -1.3962927565   -2.1902526263    0.8440292929
 O   -1.1870795919   -2.9856831471    1.7300748687
 C   -1.9810816266   -2.6147345159   -0.4976925817
 C   -1.9944086830   -4.1173036000   -0.6809589493
 O   -2.9444567251   -4.7381461305   -1.0802272108
 H   -0.0663305821    1.7281660102   -1.0428675323
 H   -1.6170944918    1.6209514809   -0.1930080196
 H   -0.1110495770    1.8529167322    0.7304495271
 H    1.5434114594   -0.1517879162    0.7510450327
 H    1.0471698983   -1.6064567471   -0.1382070764
 H    1.4521745075   -0.1301877688   -1.0287786100
 H   -0.6220501015   -0.5638688405    1.9987099116
 H   -2.1180371496   -0.2090875561    1.1108456346
 H   -3.0013948634   -2.2251495163   -0.5952665752
 H   -1.3964454020   -2.1402557480   -1.2969278435
 H   -1.0355745035   -4.6208743385   -0.4351275120