18

 C   -0.2144458720    1.3091230564   -0.2165169030
 C   -0.0486358909   -0.0725217460    0.3296828553
 C   -1.0589326603   -0.9609215120    0.4975550991
 C   -1.7910146459   -1.3487826512   -0.8058936892
 C   -0.7131118689   -2.4893546448   -0.8209867613
 C    0.7041631162   -2.2280323407   -0.1565064447
 C    1.2669460989   -0.8326751048    0.1594353334
 C   -0.5193257470   -2.3940674622    0.6651968018
 H    0.2631366493    1.4175159683   -1.2002037547
 H   -1.2701443392    1.5805085222   -0.3040315280
 H    0.2624475547    2.0507813946    0.4382586307
 H   -2.7849002114   -1.7993746266   -0.6993515583
 H   -1.8090474243   -0.6022424518   -1.6063330931
 H   -0.8240877002   -3.4094335606   -1.3915380584
 H    1.3856082613   -3.0653211688   -0.3004828118
 H    1.8349815265   -0.3664045006   -0.6557614635
 H    1.9440822377   -0.8818989715    1.0249467641
 H   -0.7426350543   -3.1054885797    1.4496578116