25

 C   -0.6068084150    1.4005915743   -0.0319929121
 C    0.1289014218    0.0620853939   -0.0975762838
 C    1.1812897561   -0.0555326407   -1.2152984875
 C    1.9199262754   -1.3585095277   -0.8679314925
 C    2.0231702569   -1.3512584103    0.6772046363
 C    3.3543534694   -0.7951315885    1.2396860119
 C    2.9411306770    0.0688094436    2.4402383528
 C    1.6671880921    0.7577499749    1.9298179875
 C    0.9069353047   -0.3601217777    1.1763690747
 H    0.0822931993    2.2369296766    0.1236239877
 H   -1.1488180632    1.5921940019   -0.9644480643
 H   -1.3383580024    1.4166897834    0.7834931803
 H   -0.6213211613   -0.7198711460   -0.2855155977
 H    0.7402817628   -0.0622657867   -2.2171644815
 H    1.8687525793    0.8002659143   -1.1739740071
 H    1.3217972149   -2.2135169486   -1.2044413978
 H    2.8985540806   -1.4440794841   -1.3510755386
 H    1.8555071582   -2.3559003524    1.0759520133
 H    4.0669174919   -1.5853785597    1.4942854905
 H    3.8393112263   -0.1587048022    0.4877443795
 H    2.7056025746   -0.5686375058    3.3022128918
 H    3.7176668913    0.7719635536    2.7572282800
 H    1.0695019707    1.2152436516    2.7236644394
 H    1.9521802369    1.5626147362    1.2406481755
 H    0.2324660217   -0.8572446440    1.8812305617