19

 C   -0.2860110472    1.3352742516    0.0919265342
 O    0.2478577655    0.0538775199   -0.1592226981
 C    0.7975546176   -0.5505254819    0.9835146349
 C   -0.1382516089   -1.2203245937    2.0309266467
 N    0.5365753611   -2.5529820850    1.8462493335
 C    0.3106838786   -2.8886943039    0.4267485000
 C    1.3911624767   -1.9308369396    0.7385472203
 C    2.8513543218   -2.2193527349    0.5584195839
 H    0.4812961533    2.0272288155    0.4736918529
 H   -0.6687468630    1.7203186983   -0.8560898123
 H   -1.1112780376    1.3033908947    0.8193719640
 H    1.5181468928    0.1289677983    1.4633552755
 H   -0.0019003152   -0.8612748786    3.0530206819
 H   -1.2052035245   -1.2287458100    1.7834670910
 H    0.6122272841   -3.9019320519    0.1784737413
 H   -0.5996213250   -2.5489479003   -0.0611844696
 H    3.1840210936   -1.9114277702   -0.4396352381
 H    3.4579641911   -1.6841448795    1.2970151169
 H    3.0510892251   -3.2891059387    0.6679336511