13

 C    0.0073920579    1.4721916821   -0.0438725897
 C    0.0004605070   -0.0177584919    0.0163930852
 N   -0.0784215051   -0.7762134900   -1.0732770665
 N   -0.0531948252   -2.0236967876   -0.5632297247
 C    0.0382239326   -1.9821332934    0.7898301443
 N    0.0740761501   -0.7159466491    1.1848416490
 C    0.0839132903   -3.1437967970    1.5937169316
 C    0.1207699661   -4.1513606697    2.2495070881
 H    0.9232606793    1.8716916924    0.4021186406
 H   -0.0592739522    1.8067827499   -1.0802347609
 H   -0.8352639732    1.8845674044    0.5193430138
 H   -0.1000792161   -2.8268946536   -1.1689345953
 H    0.1543744284   -5.0326684264    2.8418869446