21

 C   -0.1900706508    1.3175842452   -0.3246603207
 C    1.2012149505    1.0423132967    0.1845530927
 C    0.2007834637   -0.0814901550    0.0813952340
 C   -0.3665169019   -0.7092793188    1.3066471035
 C   -0.7424228009    0.0294101774    2.6239613429
 C   -1.4321792133   -1.3415603078    2.9093475179
 C   -1.7683712284   -1.3792035208    1.3878223019
 C   -0.2055008225   -2.2592723327    2.9325400748
 O    0.5082922760   -1.7628486629    1.7811619692
 H   -0.8658941730    1.8672190178    0.3215587420
 H   -0.3257643281    1.5193249127   -1.3812620253
 H    2.0252785216    1.0581853187   -0.5195770095
 H    1.4565258581    1.3986332051    1.1763435031
 H    0.3598895536   -0.7916542159   -0.7254067779
 H    0.0798866382    0.3405224081    3.2734096373
 H   -1.4612146736    0.8383149985    2.4836543304
 H   -2.1835041718   -1.4717870825    3.6870642025
 H   -2.5812474063   -0.7047650597    1.1137911208
 H   -1.8840278058   -2.3526216945    0.9040264118
 H    0.4080280626   -2.1475468736    3.8349873328
 H   -0.4513855980   -3.3200194260    2.7993363960