18

 N   -1.4198605590   -0.5842855037   -0.0986146389
 C   -0.0542344335   -0.0845477995   -0.1220378467
 C    0.7877469483   -0.4232845526    1.1259582547
 C    2.1621531979    0.2895858107    1.3580157120
 C    1.5709802579    0.8046214837    2.6672396862
 C    0.3394783768    1.5703465297    2.4259082272
 N    0.2412908960    0.0921767383    2.4540106794
 C    0.9074122716   -1.8805257973    1.2294114250
 N    1.0041961690   -3.0319333682    1.2612297990
 H   -1.4196882984   -1.6005073070   -0.0879625097
 H   -1.8789129188   -0.2889789817    0.7587866821
 H    0.4601289068   -0.4852662187   -1.0029383578
 H   -0.0769738423    1.0027097637   -0.2462210931
 H    2.9877621010   -0.4106003820    1.4800487844
 H    2.4399853169    1.0486597910    0.6211272419
 H    2.0710731282    0.7796904143    3.6288192825
 H   -0.1569732003    2.0144687781    3.2826410610
 H    0.2074870219    2.1186330011    1.4975648710