19

 C    0.0197464328    1.5698353562   -0.2908126607
 C   -0.0927032906    0.0899672272   -0.0018731159
 C    1.0647349174   -0.8299427940   -0.2035914819
 N    0.5668641065   -0.5427178734    1.1435925417
 C    1.3481823717    0.2259273270    2.0811152280
 C    2.1121309641   -0.5921324319    3.1501850245
 O    3.3520864275    0.1064760895    2.8092970201
 C    2.7465731989    0.7831039508    1.7780660653
 N    3.2334222727    1.5581797981    0.9181508395
 H    1.0431524764    1.9337275635   -0.1675585066
 H   -0.2952037752    1.7692104922   -1.3208283153
 H   -0.6396591603    2.1483410864    0.3670943816
 H   -1.0873717188   -0.3218134618   -0.1709600108
 H    0.9139074253   -1.8499102587   -0.5477595256
 H    2.0025425876   -0.3720271599   -0.5082617149
 H    0.7118031308    0.9950590648    2.5292542168
 H    1.8439858320   -0.4313736600    4.1962224516
 H    2.1874953055   -1.6577018101    2.9235008163
 H    4.2403957457    1.6763107141    1.0448482364