17

 C   -0.1478647270    1.5322041620   -0.0167917244
 C    0.1036645251    0.0359405367    0.0019870991
 N    1.2536215696   -0.4498697760   -0.8525721840
 C    1.7586372493   -1.2633573492    0.2758204417
 C    2.1795070372   -0.3028868771    1.3749524449
 C    0.7250625844   -0.6161718017    1.2391938235
 O   -0.0720182508   -1.1214650035    2.2331093440
 C    2.2401660247   -2.5909782313    0.1421326448
 N    2.6085798651   -3.6836916528    0.0270172906
 H    0.7613142434    2.0892056508    0.2256290051
 H   -0.4845238972    1.8539632281   -1.0071575852
 H   -0.9260993511    1.7947110711    0.7075206704
 H   -0.8144953738   -0.5127376848   -0.2380298165
 H    0.9166632898   -1.0462635968   -1.6026739825
 H    2.6618725731   -0.7846747860    2.2214280661
 H    2.5992389249    0.6567399360    1.0836293696
 H    0.3588751431   -1.0005127655    3.0852318829