21

 C   -0.0117495801    1.4602348767    0.1314196338
 C   -0.0005637696   -0.0607575384   -0.0446780367
 C    0.7320691167   -0.4763017433   -1.3095285978
 O    0.6822149224   -1.9108171913   -1.3953575007
 C    1.2925755893   -2.4464007123   -2.4531109402
 N    1.9185199782   -1.8179306350   -3.3727042101
 C    2.3836466449   -2.8563643884   -4.3042417201
 C    2.1956684279   -4.2093412699   -3.5574193444
 N    1.1910616642   -3.8300835302   -2.5558615910
 H    1.0052081912    1.8620129614    0.1973040899
 H   -0.5090004282    1.9549182295   -0.7098946055
 H   -0.5414764724    1.7446238914    1.0448499883
 H    0.4786824142   -0.5388177561    0.8175955863
 H   -1.0261543318   -0.4453214500   -0.0863136273
 H    0.2705512265   -0.0503871565   -2.2071873104
 H    1.7796427326   -0.1553026191   -1.2992897464
 H    1.7790109590   -2.8293306408   -5.2209554421
 H    3.4234998842   -2.6852704406   -4.5978314861
 H    1.8347767383   -5.0130839962   -4.2045588201
 H    3.1322108717   -4.5395431353   -3.0858895655
 H    1.1648448808   -4.3401061956   -1.6842751440