18

 O   -0.0356983141    0.0134630343   -0.3129725125
 C   -0.0388592757    1.1915270048   -0.0751741124
 C   -1.2843857848    2.0652185066    0.1294855669
 C   -0.7486527097    3.3928885028    0.6827624770
 C    0.6617723602    3.5203541300    0.0601121424
 C    1.5402711078    4.5551007511    0.7834010806
 C    2.8551220778    4.7169655140    0.1645428762
 N    3.8881758542    4.8316818171   -0.3402980543
 C    1.2018425621    2.0813467547    0.0797213203
 H   -1.7511915970    2.2037077234   -0.8544944590
 H   -2.0179469135    1.5602758193    0.7617529902
 H   -1.3855459245    4.2505323532    0.4509836820
 H   -0.6618133028    3.3370984742    1.7756007913
 H    0.5524427386    3.8386240219   -0.9840751372
 H    1.0410959633    5.5313824187    0.7953825892
 H    1.6816505859    4.2601292051    1.8305842832
 H    1.6501383263    1.8470553139    1.0560877049
 H    1.9539745160    1.8561128348   -0.6787778489