18

 C   -0.4483184417    0.8322834483    0.2507046747
 O    0.5940647804   -0.1223371868    0.1398379287
 C    0.9066382925   -0.4828468847   -1.1992762812
 C    2.3926690812   -0.9070138098   -1.2582429333
 C    2.3464498191   -2.4079496499   -1.3941753749
 C    1.1134642751   -2.8640140694   -1.5982245739
 C    0.0842711122   -1.7590274058   -1.6292666727
 O   -1.0344523970   -1.9991916930   -0.7938995057
 H   -0.1828007061    1.7683219107   -0.2629356280
 H   -1.3920637375    0.4547712977   -0.1605176124
 H   -0.5766016402    1.0404322041    1.3161999988
 H    0.6991901760    0.3677609335   -1.8595627381
 H    2.9040604152   -0.4433169103   -2.1113745268
 H    2.9147741453   -0.5709952474   -0.3558204260
 H    3.2414223549   -3.0191397117   -1.3464867227
 H    0.8276209728   -3.9010752902   -1.7321181735
 H   -0.3295247689   -1.6314719916   -2.6370102604
 H   -0.7072406934   -1.8828807436    0.1078035875