16

 O    0.2135293755    0.0062269130   -0.0962451614
 C    0.1004114111    1.1903547564    0.0329290882
 C   -1.1326177041    2.1346192201    0.0909878396
 C   -0.1441526263    3.3090103678   -0.0397629516
 C   -0.3472809973    4.5003898050   -0.9448816838
 C   -1.3691987864    5.4170465330   -0.4303534613
 N   -2.1794338641    6.1262927169   -0.0120908167
 C    0.7755561756    3.2970327408    1.1263100288
 C    1.0668327955    2.3374879145   -0.0277821800
 H   -1.7593746975    1.9788527952   -0.7926650249
 H   -1.7615798026    2.1136866322    0.9847912843
 H    0.5904764505    5.0558238220   -1.0597857971
 H   -0.6489127709    4.1750404489   -1.9477788485
 H    1.4844904269    4.1165733673    1.1948203996
 H    0.4452999166    2.9145069629    2.0876031414
 H    2.0095538975    2.3732620639   -0.5604597968