18

 C   -0.1449369372    1.4176545094    0.0237904878
 C   -0.0811747810   -0.0375652213    0.0231312558
 C    0.0096266485   -1.2414273421    0.0407490924
 C    0.0536141930   -2.6789901590    0.0182256902
 C    1.1669419265   -3.3031246698   -0.8074836766
 C   -0.4265222389   -3.4150938522    1.2758960504
 C   -1.3089889512   -3.3646982299    0.0613058819
 O   -2.4784671512   -2.6145048068    0.0645983051
 H    0.8570090771    1.8539741712    0.1023983393
 H   -0.6028459943    1.8027834797   -0.8940230644
 H   -0.7331225548    1.7892979222    0.8700908145
 H    2.1491420839   -3.0478755016   -0.3964451566
 H    1.0763789280   -4.3935712194   -0.8113915929
 H    1.1311137139   -2.9535816827   -1.8440156047
 H    0.0764839146   -4.3432847532    1.5273346256
 H   -0.7247534836   -2.8052425176    2.1205849236
 H   -1.4079247457   -4.2698621945   -0.5329610078
 H   -2.2289451376   -1.6863951424   -0.0461242136