11

 N   -0.1000328846    1.2824878248   -0.1752384395
 C   -0.0002434044    0.0273306512   -0.0086253102
 N    1.2003250079   -0.6751843147    0.1836740264
 C    1.1160649582   -1.9333832050    0.3348982059
 O    0.0003437982   -2.6992875119    0.3349434347
 N   -1.2382582160   -2.0912251685    0.1512283372
 C   -1.2195942680   -0.8100716399   -0.0085585191
 C   -2.5054771580   -0.1997953216   -0.1965551320
 N   -3.5412644491    0.2894468407   -0.3477039726
 H    0.8294137992    1.7085912233   -0.1485086225
 H    1.9887170767   -2.5629289582    0.4896474417