15

 O   -0.0823863626    0.0461064017    0.0347545639
 C    0.0413023763    1.2244103342    0.0109364263
 O   -0.9616458663    2.1907003832    0.1055718803
 C   -0.0653521077    3.2998474413   -0.2081538035
 C    0.3978091442    4.0846442058    1.0404954046
 C    1.5441874400    3.0563824012    1.2308485241
 C    2.8461742477    3.2421434829    0.4047996112
 O    2.3767142574    2.3425313117   -0.6487829435
 C    1.1145999200    2.2899630648   -0.0566692097
 H   -0.3599559186    3.7980313808   -1.1302450291
 H    0.7284826063    5.1048923935    0.8288745912
 H   -0.3418003998    4.1081656834    1.8430255242
 H    1.6622034455    2.5597634645    2.1919772769
 H    3.0210234955    4.2528951438    0.0193513281
 H    3.7595217723    2.8559656673    0.8645829249