17

 N    0.0789927625    1.3654165442   -0.1666560831
 C   -0.0185356804    0.0075594629   -0.0847454880
 N   -1.0707827011   -0.6699149027    0.1755175242
 C   -0.7005641837   -2.0701700583    0.0614749476
 C   -1.1694313094   -3.0071915045    1.2035275071
 O   -1.8978607805   -3.8467584442    0.2882980170
 C   -1.6184959595   -2.9628534812   -0.8139615703
 C    0.8138881215   -2.0467889160   -0.2734312778
 O    1.1401661459   -0.6459677202   -0.3640184427
 H    0.9980375629    1.7507557618   -0.0181536042
 H   -0.6791713835    1.8675439396    0.2667941720
 H   -0.3826400519   -3.5601836268    1.7343514535
 H   -1.8237930980   -2.5090670300    1.9285280362
 H   -2.5139836697   -2.4410977315   -1.1710602831
 H   -1.1360703941   -3.4857004100   -1.6507471330
 H    1.4340785137   -2.4955900197    0.5091369355
 H    1.0538634453   -2.5182012933   -1.2311718809