15

 N   -0.0016689885    1.2687965824    0.1004426990
 C    0.0458052000   -0.0762946738   -0.0576349260
 O    1.0926745715   -0.7064785618   -0.1951148096
 C   -1.2847264982   -0.7613532680   -0.0362168755
 O   -2.4044894244    0.0567363257    0.1832404529
 C   -1.4380971364   -2.0181720598   -0.8858082941
 C   -1.2917700084   -2.1529172442    0.6015669451
 O   -0.1698928110   -2.6906478013    1.1931873083
 H    0.8652498237    1.7589662912    0.2487900609
 H   -0.8707508996    1.6892278347    0.3859788615
 H   -2.7640005488    0.3046708120   -0.6765830451
 H   -2.4181231480   -2.1829730697   -1.3221819396
 H   -0.5873275497   -2.2835154711   -1.5038624880
 H   -2.1927943525   -2.3697780020    1.1662922595
 H    0.5985540801   -2.2729834245    0.7628662506