12

 O   -0.3292809553    0.0475949564    0.2234343965
 C   -0.0557149792    1.1984669320    0.0273334462
 C    1.3363080331    1.6607111880   -0.4204769952
 C    1.2724402676    2.8227475046   -1.3469368789
 N    0.6893645618    3.9698573649   -1.1519662870
 C    0.9284487689    4.6096021764   -2.3434832145
 N    1.6077922228    3.9229840112   -3.2193942938
 O    1.8400552683    2.7116692199   -2.5537374553
 H   -0.7844304285    2.0213563981    0.1780501855
 H    1.8681273266    1.9668017977    0.4907542557
 H    1.8745252772    0.8237463809   -0.8669955019
 H    0.5884624368    5.6118830899   -2.5595867673