21

 O    0.2151339485    1.0842346263   -0.7521021812
 C    0.0216615550   -0.2893547460   -0.4461384798
 C   -1.3631570574   -0.5564119978    0.1357186262
 C   -2.5342878574   -0.5126606718   -0.8948185776
 C   -2.6836198635   -2.0596291923   -0.8007884036
 C   -2.2083419360   -2.8236230462   -2.0267536723
 O   -3.1229218710   -2.5292731909   -3.0764445410
 C   -1.7077566316   -2.0582546494    0.4055675703
 O   -0.6722170883   -3.0173584201    0.3007484618
 H   -0.4574364342    1.3354756712   -1.3937072076
 H    0.2023132334   -0.9225542121   -1.3269639435
 H    0.7958005854   -0.5392317757    0.2874446086
 H   -1.4960951730    0.0988064382    1.0021860012
 H   -3.4105002991    0.0355935888   -0.5435470620
 H   -2.2860084533   -0.1456547137   -1.8961850282
 H   -3.6932476333   -2.4048036455   -0.5617255362
 H   -1.1852821612   -2.5250957685   -2.2978780761
 H   -2.1819732680   -3.8999454023   -1.8035477522
 H   -2.8254393524   -2.9883735695   -3.8671326772
 H   -2.2467495478   -2.1782831914    1.3547938170
 H   -0.1571876549   -3.0010992611    1.1129540632