18

 N   -0.0891882832    1.2748175037    0.1017584380
 C   -0.0575859762    0.0160017973    0.0201673009
 O   -1.1926703863   -0.6986067806    0.1326890416
 C   -1.0944827965   -2.1155828604    0.1035621156
 C   -1.3764987726   -2.7770580441    1.4889489632
 C   -2.6320445236   -3.5703921122    1.0674346762
 C   -2.2226044072   -4.2164396141   -0.2764547591
 C   -2.2945932235   -2.7193711988   -0.6543013511
 O   -3.3773127182   -2.5677530665    0.3089110725
 H    0.8480779981    1.6524902248   -0.0192440103
 H    0.8351162120   -0.6039284253   -0.1487220533
 H   -0.1345942280   -2.4128950138   -0.3338599707
 H   -0.5575665184   -3.4044974677    1.8496752316
 H   -1.6112027926   -2.0161800374    2.2349316046
 H   -3.2182238273   -4.0789038878    1.8317791137
 H   -1.2710520657   -4.7507431733   -0.3502195252
 H   -3.0375899403   -4.7823394028   -0.7271802230
 H   -2.5151336605   -2.3396846110   -1.6508945052