18

 C   -0.0909909226    1.4780691496   -0.0617199558
 C    0.0588461487   -0.0042681785    0.0605491403
 C    0.9243554852   -0.8535507760   -0.8167022212
 C    1.1276382988   -2.1645847325   -0.0531513447
 C    1.8309807841   -1.9916717974    1.2960570294
 O    0.9264505813   -1.2000503173    2.0904501679
 C   -0.1937197129   -0.9044830853    1.2774076814
 C   -0.3873418523   -2.0147155881    0.2301712708
 N   -0.5710072287   -0.9814910011   -0.9044246916
 H    0.6688387436    1.9937357457    0.5360591541
 H    0.0201872586    1.7951709506   -1.1032284143
 H   -1.0768931852    1.8043690580    0.2858123683
 H    1.5097998822   -0.4437433794   -1.6322472422
 H    1.4434717811   -3.0157680636   -0.6551650671
 H    2.0080097925   -2.9471528814    1.8067234489
 H    2.7912695879   -1.4699430400    1.1978209245
 H   -1.0379060533   -0.6255308496    1.9082808455
 H   -1.0757669891   -2.8488577537    0.3385673159