27

 C   -0.0723535051    1.4946508607    0.2313129788
 C   -0.0122869746   -0.0070758198   -0.0705947200
 C    0.7459178163   -0.4443159483   -1.3525369170
 C    0.0842506065    0.1746449470   -2.5983680611
 C    2.2198775013   -0.0050157865   -1.2817854772
 C    0.6435664877   -1.9934769775   -1.4128855320
 C    1.3184347766   -2.6917219435   -2.5775343701
 C    2.7428355502   -3.1838692047   -2.4798298777
 C    1.6036844860   -4.1714923019   -2.4916040641
 H    0.9233551714    1.9292385325    0.3623602651
 H   -0.5797074553    2.0548945631   -0.5599331623
 H   -0.6271302542    1.6699325965    1.1587505469
 H    0.4469453470   -0.5180538706    0.7864319806
 H   -1.0387161830   -0.3931180896   -0.1335418441
 H    0.1199246678    1.2676985856   -2.5682475511
 H    0.5920557256   -0.1358047034   -3.5165270875
 H   -0.9673313416   -0.1242786319   -2.6791548958
 H    2.7106130970   -0.4060388929   -0.3873059001
 H    2.7781510712   -0.3570146233   -2.1533834731
 H    2.3104424885    1.0850831991   -1.2512435728
 H    1.0530603376   -2.4053443644   -0.4798845615
 H   -0.4231003888   -2.2603472243   -1.4151609001
 H    1.0122284829   -2.3447825811   -3.5603932954
 H    3.3784469119   -3.1178258794   -3.3564014374
 H    3.2673173070   -3.0290825458   -1.5425992794
 H    1.3634061290   -4.6779429290   -1.5620227502
 H    1.4562403410   -4.7799280265   -3.3771330513