20

 C   -0.0612233840    1.4432366023    0.0262244565
 C    0.0670937491   -0.0456620041    0.0427332799
 C    0.2255166743   -1.0399094141   -1.0485987239
 C    0.6319938392   -2.0859416418    0.0147398384
 C    0.7246297305   -0.9516507667    1.1114497573
 C   -0.4491731976   -1.5933451428    1.8853174021
 C   -0.8585135242   -2.1264955133    0.4971949764
 C   -1.8492140066   -3.2306831424    0.2661672697
 N   -1.1061841571   -0.8892699101   -0.3727114777
 H    0.9222208240    1.9251536630    0.0000585256
 H   -0.6282817748    1.7668241637   -0.8513787233
 H   -0.5904399033    1.7999109595    0.9176515821
 H    0.3606864645   -0.9419220640   -2.1197039643
 H    1.3123618428   -2.9305484172   -0.0625147312
 H    1.6549896307   -0.6313701426    1.5775349394
 H   -0.1144139626   -2.4054561056    2.5391554406
 H   -1.1492670711   -0.9429572823    2.4190457836
 H   -2.8530379676   -2.9120980823    0.5687158933
 H   -1.8911089006   -3.5009135932   -0.7941363272
 H   -1.5834736158   -4.1248045560    0.8393658527