13

 N   -0.0918694938   -1.0732554265    0.3070974251
 C   -0.0073903323    0.0619394532    0.1171715392
 C    0.0576691678    1.4980855569   -0.1473489586
 O    1.2611341753    2.0104017806    0.4368251435
 C    1.4984516700    3.3053402072    0.1969324014
 C    2.5941046901    3.9817103141   -0.2189627496
 N    2.3067919584    5.3440416930   -0.1905391047
 C    1.0862081870    5.4128541782    0.2169474298
 O    0.5101853678    4.2073204637    0.4855639932
 H    0.0553677546    1.6720972412   -1.2309701028
 H   -0.8207097225    1.9899298555    0.2848728818
 H    3.5515386115    3.5938242178   -0.5224924863
 H    0.4676421161    6.2839365551    0.3621030380