19

 C    0.2538917336    1.3576321401   -0.2646851566
 C    0.0291254195   -0.0499452042    0.2474878383
 C   -0.9565939106   -0.8668327137   -0.5622767811
 O    1.2144061991   -0.7706973015    0.6354468400
 C    0.2641641506   -0.4338147947    1.6541740075
 C    0.7483021157    0.4943080098    2.7375086788
 O    1.5158870869   -0.2301979382    3.7109738343
 C    2.8273146273   -0.4157806236    3.4395833930
 O    3.5442713492   -1.0389820622    4.1618870399
 H    1.0269425182    1.8845536854    0.2960104923
 H    0.5682221395    1.3222490965   -1.3131927104
 H   -0.6729509162    1.9389318948   -0.2158933880
 H   -0.6235712670   -0.9377202721   -1.6031435126
 H   -1.0457393982   -1.8790674485   -0.1617247846
 H   -1.9464144742   -0.3982350848   -0.5580485021
 H   -0.2922521603   -1.2898141551    2.0408805930
 H    1.3430540263    1.3134998449    2.3238838506
 H   -0.0944897996    0.9177365173    3.2905200311
 H    3.1461702502    0.0716052598    2.5002550467