15

 O    0.0454314154    0.0088050341   -0.3941120568
 C   -0.0028204381    1.1541153840   -0.0660180403
 C   -1.1160600443    2.0835818604    0.4655797524
 C   -0.0387913140    3.1821128212    0.6373346906
 N    0.7020240826    3.0186473451    1.9161975818
 C    1.8863399649    2.4578292921    1.2235812247
 C    2.4805858389    1.2712294207    1.8434415388
 N    2.9712757508    0.3487131215    2.3363598994
 C    1.0410169611    2.3008209692   -0.0762622373
 H   -1.8437120057    2.3026070809   -0.3250887868
 H   -1.6401283879    1.7605959486    1.3669691647
 H   -0.2732537074    4.2020039342    0.3320672687
 H    0.8812984927    3.8658283941    2.4406029045
 H    2.6896625876    3.1866557679    1.0548711039
 H    1.5319632534    2.5151351760   -1.0238909184