22

 C   -0.1800135594    1.5729961018    0.0302800836
 C   -0.0317384649    0.0495961065   -0.0004040849
 C    0.6930646595   -0.4590676735   -1.2531751748
 C    0.8154467923   -1.9797552514   -1.2891827279
 C   -0.4626847803   -2.7571315883   -1.6771518345
 O    0.1167802411   -3.1899647852   -2.9226142501
 C    1.4112729666   -2.6479760551   -2.5636746296
 C    2.0186774416   -1.8137061316   -3.6741724589
 H    0.7978840396    2.0666832749    0.0038598842
 H   -0.7534117628    1.9323448665   -0.8314423729
 H   -0.6965388338    1.9061395363    0.9358136812
 H    0.5131507403   -0.2856430303    0.8920913869
 H   -1.0250153957   -0.4147844861    0.0600122713
 H    0.1581652399   -0.1085052743   -2.1455289853
 H    1.6936886389   -0.0081043505   -1.2984463555
 H    1.2839458024   -2.3302060271   -0.3643837162
 H   -0.7141424052   -3.6037904313   -1.0244385099
 H   -1.3662547386   -2.1537509001   -1.8349932038
 H    2.1016386135   -3.4656514670   -2.3063679939
 H    1.3710190659   -0.9790946812   -3.9538075612
 H    2.9941200660   -1.4172448362   -3.3718450302
 H    2.1684468131   -2.4384379468   -4.5605703278