16

 N   -0.0387933375    1.5633261458   -0.1024255983
 C   -0.0128972618    0.3039040656   -0.1508029220
 C   -1.2185226105   -0.5679204626    0.0484735370
 C   -2.5210074252    0.2260143584    0.2387814075
 C   -3.6697221522   -0.6513699084    0.4255054975
 C   -4.6007180637   -1.3956917124    0.5783379349
 O    1.1053337106   -0.4813132276   -0.4330160936
 C    2.3109920991   -0.1458079634    0.1130938244
 O    3.3195494181   -0.6911402352   -0.2035992706
 H    0.8589420871    1.9973570747   -0.3132930000
 H   -1.2973231522   -1.2399667337   -0.8137445435
 H   -1.0358083233   -1.2216174858    0.9097579322
 H   -2.4139050472    0.8989625516    1.0961913961
 H   -2.6776165780    0.8771286391   -0.6281561622
 H   -5.4339279387   -2.0397338540    0.7140522868
 H    2.2228384953    0.6443975278    0.8778791336