17

 C    0.0175496849    1.5463281120   -0.0930108898
 C   -0.0681249704    0.0633061035    0.1287573376
 O    1.1220258034   -0.7192407117   -0.1396189269
 C    0.5790343765   -0.7056649751    1.2032092280
 C    1.4508890023   -0.2123764070    2.3179093356
 C   -0.3148695277   -1.9333856670    1.4340088658
 O   -0.1447620653   -2.7800410037    2.2773055478
 C   -1.4293816909   -1.8335286906    0.4477809097
 C   -1.3095742517   -0.7052270550   -0.2612169920
 H    0.9657100024    1.9415948315    0.2761583371
 H   -0.0539451321    1.7767551147   -1.1616637551
 H   -0.8020718621    2.0622732418    0.4178523839
 H    2.0682680489    0.6266999584    1.9911649590
 H    0.8438853303    0.1013309772    3.1729951754
 H    2.1055248379   -1.0203090373    2.6578516417
 H   -2.1865755211   -2.5999504838    0.3459887436
 H   -1.9754291650   -0.3708437180   -1.0491708615