19

 C    0.9006659724    1.1315160578    0.6969274013
 C   -0.0007911424    0.1670702591   -0.0537963312
 O    0.7393329303   -0.4068461639   -1.1170747462
 C   -0.0059015964   -1.3216244684   -1.8854596006
 C    0.9042732509   -1.8599089907   -2.9746749405
 C    1.9802636190   -2.8845320970   -2.5772467639
 O    1.3371860611   -3.8992715947   -3.4202865373
 C    0.3459984689   -3.0290826338   -3.7957294879
 O   -0.5812578417   -3.2406385549   -4.5082053757
 H    1.7723675170    0.6083164600    1.1000500224
 H    1.2537458265    1.9242504659    0.0314550550
 H    0.3569731018    1.5913890579    1.5273134095
 H   -0.3699148251   -0.6249035225    0.6191175418
 H   -0.8860537654    0.6907861602   -0.4509984789
 H   -0.3800708691   -2.1481459811   -1.2564930424
 H   -0.8845187453   -0.8387798490   -2.3427852133
 H    1.2715947002   -1.0395378417   -3.5958996646
 H    2.9971879032   -2.6866591383   -2.9191697821
 H    1.9773491942   -3.1932442050   -1.5299922653