18

 C   -0.1240618716    1.3873541765    0.0975797800
 N   -0.0739004920   -0.0602907001    0.0992414640
 N   -0.0893170824   -0.7335937009   -1.0555619712
 C    0.0177683200   -2.0181704603   -0.7138362578
 C    0.1000549069   -2.1789078446    0.6855864648
 N    0.2891753461   -3.3779647067    1.3939998502
 C    0.0437155535   -0.8849939485    1.1905955151
 C    0.0670702954   -0.3804045007    2.5931387662
 O   -1.1235601657    0.3154501581    2.9758564606
 H    0.8790399822    1.8215007199    0.1862246838
 H   -0.5623104158    1.7029851272   -0.8490776089
 H   -0.7376461490    1.7293240658    0.9330973833
 H    0.0243970509   -2.7829455898   -1.4771428969
 H   -0.0603397908   -4.1799325877    0.8857267772
 H   -0.1293301086   -3.3692701096    2.3153695794
 H    0.2689084718   -1.2240633205    3.2699890395
 H    0.8748065322    0.3438049466    2.7487104153
 H   -1.8702108731   -0.2355111348    2.7166877254