18

 C   -0.2558375628    1.6235414040    0.1443475916
 C    0.0657839375    0.1343530073    0.0145576951
 C   -1.2314788188   -0.7021007071   -0.0991868470
 N    1.0215323152   -0.1072861185   -1.0886691447
 C    1.8078953716   -1.3170533551   -0.8303319148
 C    1.9513088684   -1.3309665892    0.6815315951
 O    2.7230116683   -1.9534758578    1.3563205120
 C    0.8479264469   -0.3770431104    1.2232315408
 O    0.6511029501   -0.1329342814    2.3817900027
 H    0.6648071849    2.2105065817    0.1787744437
 H   -0.8478691402    1.9641790483   -0.7115820507
 H   -0.8271818559    1.8070790719    1.0582254299
 H   -1.7851303872   -0.4004461365   -0.9952183632
 H   -1.0225960101   -1.7744675497   -0.1748538973
 H   -1.8736305030   -0.5439843244    0.7719952517
 H    0.5576050434   -0.1315949819   -1.9886914301
 H    1.3265810519   -2.2655474286   -1.1310984375
 H    2.7866162498   -1.2789586426   -1.3183925174