16

 C   -0.0665352950    1.5094806751    0.0364059753
 C    0.0341706995    0.0212317757    0.0972481504
 O   -1.1711697213   -0.7317964505   -0.0337579708
 C   -0.6879833875   -1.7040823895    0.9355284475
 C    0.6456183060   -0.9798223134    1.0475412604
 C    1.2290959349   -0.8023211096   -0.3591079267
 C    1.1584363886   -1.8124268404   -1.3729354240
 C    1.1004068340   -2.6643393630   -2.2203629672
 H    0.9092955513    1.9703380897    0.2128252161
 H   -0.4190259021    1.8250494351   -0.9516686264
 H   -0.7725148476    1.8815711021    0.7852412022
 H   -1.2876161756   -1.6604467933    1.8506517925
 H   -0.6790316114   -2.7214896791    0.5315169523
 H    1.2463761961   -0.8562997976    1.9387914599
 H    2.1549719952   -0.2313066253   -0.3408614447
 H    1.0442965950   -3.4080824659   -2.9758155268