18

 C   -0.5892818301    1.4817125562    0.3376317222
 C   -0.0388733754    0.1061288504    0.0008031227
 O   -1.0756205300   -0.8584064198   -0.1609812024
 C    0.9319710595   -0.0398244492   -1.2120293743
 C    1.8985784508   -0.9027258270   -0.3459825864
 O    3.2479304444   -0.5134156527   -0.3921407506
 C    1.0977856777   -0.4453159689    0.8613955519
 N    1.3196901692   -0.3370135867    2.1018557318
 O    2.5611370468   -0.9422511957    2.4299523404
 H    0.2123288841    2.2220308157    0.4080583345
 H   -1.2974393614    1.7961178617   -0.4349562673
 H   -1.1112207186    1.4627647432    1.3008613972
 H   -1.5213421437   -0.9518395224    0.6888392750
 H    0.4947892411   -0.5166353895   -2.0891032670
 H    1.4047773842    0.9062143826   -1.4813543476
 H    1.7706947697   -1.9781222544   -0.5384279803
 H    3.6317818117   -0.7522837080    0.4605264825
 H    2.6510384201   -0.7384372456    3.3669755079