23

 C   -0.0032831277    1.5743912720   -0.0339335572
 C    0.0091575928    0.0641339836    0.0589128335
 C    0.9269291890   -0.6865393513   -0.9647657483
 C    1.8062954679   -1.2387147780    0.1996677900
 C    0.7588781153   -0.7390706931    1.1943410077
 C    0.8617141163   -0.2745475210    2.6501411578
 C   -0.5810020445   -0.8182624741    2.8990488788
 C   -0.5915427096   -1.4811375205    1.4856944865
 C   -1.3203982445   -0.6803393634    0.3749329974
 H    1.0122890346    1.9835720179   -0.0903913045
 H   -0.5422462646    1.9074637175   -0.9301155762
 H   -0.4983634746    2.0270563155    0.8329492322
 H    0.4054409831   -1.4575885374   -1.5386953495
 H    1.4494512108   -0.0335100392   -1.6688054321
 H    2.0263672335   -2.3110412141    0.2029315315
 H    2.7548899881   -0.6978587962    0.2877207732
 H    1.6169014532   -0.8317788752    3.2147518650
 H    1.0338915434    0.7935829913    2.8190566608
 H   -0.6674937555   -1.5174132558    3.7339294780
 H   -1.3426104158   -0.0433285408    3.0265976570
 H   -0.6773950375   -2.5701084004    1.4759642062
 H   -2.1276615135   -0.0394005716    0.7469581719
 H   -1.7168391100   -1.2739927257   -0.4552530195