20

 C    0.5838638838    1.5901413276    0.1282217054
 N    0.4970745564    0.1446504726    0.2272755188
 C    0.5689994726   -0.5211350519   -0.8635533994
 N    0.6932103115   -0.0150644221   -2.1308671268
 C    0.5624786427   -2.0549628604   -0.9139785209
 O    1.0177853392   -2.5693152006   -1.9351737896
 N    0.0981215117   -2.8005486024    0.1222407997
 C    0.1988463014   -4.2502785440    0.0156380152
 C   -0.6033368745   -2.3344792924    1.3104395306
 H    1.5471326845    1.9229252084   -0.2935085141
 H   -0.2122895584    2.0132407650   -0.5042002778
 H    0.4945651820    2.0310011223    1.1239227929
 H    1.0298767937    0.9265322872   -2.2401467060
 H    1.0004707002   -0.7004196576   -2.8082762060
 H    0.6552960218   -4.6545893002    0.9263848095
 H   -0.7965039296   -4.6995278412   -0.0953203937
 H    0.8056185197   -4.5045635033   -0.8500819436
 H   -0.6816122984   -1.2528108045    1.3020652771
 H   -1.5988146279   -2.7960608477    1.3500367663
 H   -0.0548233823   -2.6400801550    2.2103513723