17

 C    0.1996519808    1.5524934534   -0.0873609496
 C   -0.0679896923    0.0467638307    0.0851562755
 C    0.5768771794   -0.5184682959    1.3111396291
 C   -0.0507601897   -1.0793728951    2.3707811140
 C    0.7842241845   -1.5528264232    3.4322251959
 N    2.0762640757   -1.4658549567    3.4393196999
 C    2.7052406949   -0.8733653884    2.3528825083
 N    3.9476771878   -0.6900735334    2.2027483283
 O    1.9138542684   -0.4175971308    1.2828667450
 H    1.2727878817    1.7502290704   -0.1353625709
 H   -0.2607283618    1.9130685571   -1.0108560053
 H   -0.2174570471    2.1228670019    0.7479034807
 H   -1.1419728602   -0.1529381951    0.1346951963
 H    0.3274351349   -0.4925648795   -0.7845427838
 H   -1.1269755783   -1.1680534664    2.4050929539
 H    0.3229683800   -2.0224291309    4.3015165901
 H    4.4210101213   -1.0583999780    3.0260834926