21

 C   -0.2835128566    1.6567403340   -0.0563961713
 C   -0.3949258027    0.1912727511   -0.4624316426
 N   -1.1085992926   -0.5807733118    0.5698704694
 C   -1.3075507139   -1.9454510070    0.2865599714
 C   -0.6229279607   -3.0883213774    0.6396282410
 C   -1.3204401621   -4.2079825764    0.0869110521
 C   -0.9419357337   -5.6531708513    0.2101854389
 C   -2.4024071773   -3.7021371157   -0.5950877735
 N   -2.3878384334   -2.3309211825   -0.4696073452
 H    0.2236690415    2.2367676353   -0.8329866599
 H   -1.2740660617    2.0883703937    0.1140491040
 H    0.2944877879    1.7663248559    0.8688348462
 H   -0.9639428659    0.1026889527   -1.3944567212
 H    0.6055756779   -0.2246289331   -0.6670878225
 H   -0.6288698258   -0.4840812157    1.4575615528
 H    0.2872498314   -3.1207738889    1.2209799981
 H   -0.9186850178   -5.9802251566    1.2567812215
 H   -1.6545856452   -6.2935243215   -0.3185344317
 H    0.0524439877   -5.8531588350   -0.2071055798
 H   -3.1726390940   -4.2033860860   -1.1596678828
 H   -3.1046731031   -1.6978631738   -0.7783281847