16

 N    0.9836270278   -0.7100357647    0.6769669987
 C    0.4654758660    0.2869795696    0.4074836440
 C   -0.2147486185    1.5407704980    0.0187848292
 C   -0.8856721198    2.2586356865    1.2148427548
 C    0.2030572184    3.2163388435    1.6826202661
 O    1.2322913985    2.5778685522    2.4650310330
 C    2.2293777840    2.8053475452    1.4380770209
 C    1.1586032367    3.3591576123    0.4760470057
 O    0.6988985168    2.4801611809   -0.5398769652
 H   -0.9336582490    1.2878664399   -0.7660675721
 H   -1.7530496108    2.8200486968    0.8559677078
 H   -1.2021795785    1.5752061857    2.0040651276
 H   -0.1818212748    4.1203258201    2.1638893158
 H    2.9748702193    3.5436335398    1.7572386208
 H    2.7252282035    1.8828916250    1.1229360349
 H    1.3411896406    4.3307161791    0.0171820479