25

 C    0.0740653410    1.5229811659   -0.1327622269
 C   -0.0213659205    0.0085151846    0.0925056644
 C   -1.4351059289   -0.5387642659    0.0561357688
 C   -2.3153389211   -0.5023489776   -1.2338835086
 C   -3.0966442997   -1.6445165062   -0.5148738769
 C   -3.9988076184   -2.6018090195   -1.2587213221
 C   -1.7126435797   -2.0734639546    0.0603520884
 C   -3.6956276157   -0.8847532241    0.6894202176
 C   -2.4470023974   -0.0534192228    1.1217591178
 H    1.1171722007    1.8540309575   -0.1332887329
 H   -0.3656307887    1.8081020549   -1.0946269539
 H   -0.4493298489    2.0816726814    0.6496183405
 H    0.5777888151   -0.5067201456   -0.6696135454
 H    0.4355141575   -0.2461098824    1.0591101816
 H   -2.8554697116    0.4202397493   -1.4724307929
 H   -1.7749589588   -0.8587185749   -2.1159636552
 H   -3.4735807147   -3.0855853679   -2.0892589353
 H   -4.3712803701   -3.3910719546   -0.5947716791
 H   -4.8710609370   -2.0821486902   -1.6729815478
 H   -1.1025505691   -2.6074641858   -0.6743400484
 H   -1.6912195806   -2.6012982262    1.0203152544
 H   -4.5430955140   -0.2560607937    0.3966636973
 H   -4.0436228333   -1.5673687122    1.4716630886
 H   -2.1120391736   -0.2875368375    2.1377509011
 H   -2.6233387826    1.0248892783    1.0701461451