17

 O   -0.0873936736    1.4059944586    0.0629423458
 C    0.0142769040    0.0237701365    0.0085633077
 C    0.3432502375   -0.7827460697   -1.3021881057
 C   -0.3088224591   -1.9312343864   -0.4625164974
 C    0.6788587842   -2.0149051172    0.7101417402
 C    0.8912086065   -0.7366932860    1.0237331780
 C   -1.3119174340   -0.8219249234    0.0601672162
 C   -2.0395520698   -0.9963523484    1.2990035528
 C   -2.6686862958   -1.1403093690    2.3136214996
 H    0.7987636833    1.7784021361    0.1217427814
 H   -0.2546832089   -0.4658534965   -2.1618514448
 H    1.3955510503   -0.9016436993   -1.5660337214
 H   -0.6773501802   -2.8477630777   -0.9166865090
 H    1.0687717079   -2.9184213438    1.1559938198
 H    1.4910636965   -0.2852831900    1.8016764054
 H   -1.9914037706   -0.5059744955   -0.7388331975
 H   -3.2179045783   -1.2640826284    3.2137883789