17

 C   -0.2972661561    1.4722855785   -0.0162945201
 N    0.0552093421    0.0549566527    0.0444500310
 C    1.3563435670   -0.4641331520   -0.3174605956
 C    2.5614561647    0.4587945144   -0.3284893820
 O    2.5100659026    1.1969068501    0.8889372642
 C    1.8288366861    0.4368022527    1.8759654394
 C    0.8844464368   -0.4921917003    1.1130046588
 C    0.4035002212   -1.6704351270    1.7913448697
 N    0.0361801030   -2.6057321522    2.3630159003
 H    0.5072397674    2.1608621879    0.2631090245
 H   -0.6155942650    1.6920465820   -1.0394650429
 H   -1.1559686177    1.6370173322    0.6404674518
 H    1.3669735996   -1.3512701017   -0.9445206930
 H    3.4804475736   -0.1432513227   -0.4016358878
 H    2.5581172228    1.1822679522   -1.1505370539
 H    2.5197760809   -0.1690754522    2.4809416718
 H    1.3118044311    1.1383352856    2.5382823638