20

 C   -0.2069002408    1.4296429531    0.0011153140
 N    0.0378534090   -0.0035537784   -0.0169278990
 C    1.1738540678   -0.4061890244   -0.8788954759
 C    1.3048047217   -1.9088434851   -0.8463173998
 C    1.8824193657   -1.0816703648    0.2764943111
 O    3.2150203014   -1.0999164619    0.6438049650
 C    0.7677915639   -0.5524682120    1.1593523770
 C    0.9789752623    0.1245057618    2.4752071074
 C    0.1637597080   -1.1555367497    2.3869377703
 H    0.6867370383    2.0367723316    0.2296026323
 H   -0.5895177607    1.7345740908   -0.9786773173
 H   -0.9779943487    1.6640786968    0.7417257210
 H    1.5282953823    0.2214279777   -1.6871526865
 H    0.4216140702   -2.5256164873   -0.7014814243
 H    2.0536084565   -2.3047949230   -1.5269153807
 H    3.4685680945   -2.0130492155    0.8171230830
 H    1.9780017450    0.0759568575    2.8958046565
 H    0.4487595335    1.0475868644    2.6814253926
 H   -0.9111519694   -1.0699665819    2.5068090413
 H    0.5897800594   -2.0743614297    2.7781734319