16

 C   -0.0658191896    1.3697699861   -0.2988714085
 C    0.1280788998   -0.1128580323   -0.1316610148
 O    0.7782820610   -0.6639727053    0.7135920934
 O   -0.5578352160   -0.7913163800   -1.1038395677
 C   -0.3889411263   -2.1818763834   -1.1034157009
 C   -0.8717279858   -2.8831477067   -2.3190424291
 C    0.6334383113   -2.7711317246   -2.0659901765
 C    1.4142795894   -1.8829997462   -2.8767211814
 N    2.0459728732   -1.1589503007   -3.5208762471
 H    0.4052729812    1.6918935522   -1.2324884463
 H   -1.1296481085    1.6107308465   -0.3682992341
 H    0.3882872089    1.8917649530    0.5421814019
 H   -0.4633694048   -2.6418207461   -0.1255680649
 H   -1.3213358934   -3.8632126637   -2.2153835874
 H   -1.2738927812   -2.2650410107   -3.1124955691
 H    1.1566842808   -3.6613568880   -1.7349224577