12

 O   -0.1468460171    0.3017336248    0.8518054075
 C    0.2413615948    0.8730345383   -0.1279413497
 C    1.3866787238    1.8750546122   -0.0771676270
 C    1.5343564080    2.6647569910    1.1814122554
 O    2.3889669956    1.5790163913    0.9082945683
 C    1.8469122565    2.3992294772   -1.3310134909
 C    2.1843865065    2.8042733242   -2.4183717831
 C    2.5766114900    3.2744322054   -3.6382825129
 N    2.9061388024    3.6748404710   -4.6776210380
 H   -0.2081366460    0.7273761147   -1.1306659891
 H    1.9798547307    3.6555594368    1.1195935840
 H    0.7929148247    2.4944328931    1.9593859754