17

 C    0.1293974869    1.5037296829    0.0399817887
 C    0.0045246834   -0.0029673832    0.0747592951
 C   -1.2345533841   -0.5653261348   -0.5876378531
 O    1.2056685932   -0.7272554410   -0.1590237954
 C    0.6726790390   -0.8149976793    1.1667508348
 C    1.4656842232   -0.1238855482    2.2559190027
 O    2.3304165309    0.6875528576    2.0611388364
 C    0.1326933677   -2.0862428093    1.5832681421
 C   -0.2858237978   -3.1320969846    2.0038697777
 H    1.0609752211    1.8372105243    0.4944070791
 H    0.1130932274    1.8358652314   -1.0037121021
 H   -0.7177960421    1.9722272620    0.5509972997
 H   -1.2448023563   -0.2718389034   -1.6427354631
 H   -1.2617291902   -1.6535316268   -0.5267345027
 H   -2.1374243292   -0.1619874058   -0.1184164624
 H    1.1690570992   -0.4394831923    3.2783665228
 H   -0.6595253523   -4.0625573592    2.3552345594