17

 O    0.1844167903    1.3409687034    0.1071674123
 C    0.0659458640   -0.0606221793    0.0725150784
 C   -0.1817162665   -0.8497447475    1.4035531325
 C   -1.5586319895   -0.1280826116    1.5021331405
 C   -1.3987626974   -0.5597012397    0.0034556015
 O   -2.2937592430   -0.4401050115   -1.0361011082
 C   -0.8919682865   -1.9412260576    0.5483740742
 C   -0.1289460166   -2.8813387304   -0.3417242895
 O    1.0644749764   -2.8680146658   -0.5270477282
 H    1.1178168406    1.5634037830    0.1675188529
 H    0.7770904522   -0.5110241383   -0.6216481838
 H    0.5287331568   -1.0321748726    2.2052272524
 H   -2.3400825583   -0.6394056053    2.0687586718
 H   -1.5267831401    0.9409206750    1.7039338629
 H   -2.3122152011    0.4859212691   -1.3050001849
 H   -1.6843397507   -2.4941722111    1.0645679694
 H   -0.7690240305   -3.6450246897   -0.8398582743