19

 N   -0.0848092285    1.3003159199    0.1118564965
 C   -0.0479355826    0.0408991798    0.0285304045
 O   -1.1869136004   -0.6734680768    0.0263412051
 C   -1.0690555777   -2.0970017867    0.0354532273
 C   -1.1204686314   -2.6938264928    1.4596634451
 C   -1.7057318737   -4.1130006680    1.2796450537
 C   -2.5992056305   -3.9811460790    0.0545591485
 N   -3.4649371928   -2.7874103120    0.1170144387
 C   -2.2261229554   -2.7514253927   -0.6881124040
 H    0.8606983125    1.6756027390    0.0784063357
 H    0.8576546816   -0.5779527467   -0.0593468483
 H   -0.1371874725   -2.3807431768   -0.4754282384
 H   -0.1435366492   -2.6900495436    1.9489187275
 H   -1.8008037321   -2.0754371058    2.0477301682
 H   -0.9160946553   -4.8450488146    1.0727480207
 H   -2.2487086756   -4.4538533232    2.1664496544
 H   -2.9566570606   -4.8672946097   -0.4598887281
 H   -4.2570523481   -2.9069247925   -0.5088806141
 H   -2.2942946976   -2.6749137779   -1.7678649231