21

 C    0.7261234557   -2.1916174501    0.8954863951
 C    0.7110139992   -2.1927045545   -0.6352660106
 O    0.1908406451   -0.9247054082   -1.0241878607
 C   -0.0352726507   -0.7079134538   -2.3985938001
 C   -0.9997884160   -1.6656797468   -3.0630532680
 C   -0.0783780300    0.7509784868   -2.7430596880
 C    1.0945905728   -0.0981524558   -3.1911793855
 C    2.0465370317   -2.4740296749   -1.1812581041
 C    3.1448230119   -2.7364641605   -1.5939856810
 H    1.3893628659   -1.4044434781    1.2617678887
 H   -0.2839280470   -2.0039973811    1.2679999104
 H    1.0779486004   -3.1544743307    1.2735689846
 H    0.0338132564   -2.9899563247   -0.9767424513
 H   -1.9396377509   -1.7189989566   -2.5027291256
 H   -1.2265238077   -1.3262482894   -4.0773168847
 H   -0.5870764466   -2.6769300772   -3.1444077870
 H   -0.7995069888    1.0836535110   -3.4815290931
 H    0.0938009911    1.4437364030   -1.9275151250
 H    2.0349223461    0.0418425323   -2.6740512634
 H    1.1846175450   -0.3522158550   -4.2420896924
 H    4.1116573362   -2.9628972655   -1.9708039583