17

 C   -0.0512153349    1.5619725605    0.0679669366
 C    0.0016475794    0.0333418060    0.0029203157
 C    0.7147028596   -0.4810045171   -1.2511392262
 C    0.7608914113   -2.0244076793   -1.3038913321
 C    1.4332341333   -2.5349068208   -2.4858053827
 C    1.9969713662   -2.9343644116   -3.4775869217
 C    2.6326548882   -3.3899739122   -4.5960853728
 N    3.1736315034   -3.7780706065   -5.5484045924
 H    0.9557381925    1.9929751269    0.0741047483
 H   -0.5837594592    1.9767048966   -0.7946754442
 H   -0.5649625339    1.9021688356    0.9719640535
 H    0.5101961215   -0.3561615004    0.8947036413
 H   -1.0182462528   -0.3723268187    0.0322633355
 H    0.2096283991   -0.1090711943   -2.1499854570
 H    1.7390945531   -0.0928066954   -1.2870039088
 H    1.2686822126   -2.4105950518   -0.4101215688
 H   -0.2603249594   -2.4268730175   -1.2728754742