22

 C    0.2613341067    1.4333885099   -0.0441707466
 C    0.5151736945   -0.0717825841    0.0687360346
 C    0.1551835588   -0.6160371176    1.4560655083
 N    0.3761210006   -2.0493313319    1.5858323222
 C    1.4164555509   -2.5829534264    2.2683664407
 O    2.2434906619   -1.9171361266    2.8782509614
 C    1.5348100372   -4.1185530216    2.2608750133
 C    1.8793771549   -4.6522072359    0.8624155614
 O    2.5227304992   -4.4876131400    3.1854082620
 H    0.8556976653    1.9902435700    0.6880966635
 H    0.5245669462    1.8047287710   -1.0386197891
 H   -0.7928873957    1.6743457372    0.1326796839
 H   -0.0669129435   -0.6060329011   -0.6937592029
 H    1.5695125227   -0.2946570130   -0.1311193844
 H    0.7709991052   -0.1398440340    2.2225837488
 H   -0.8947530817   -0.3960610883    1.6865179762
 H   -0.2485224717   -2.6761811447    1.1042483690
 H    0.5649942622   -4.5385622133    2.5743578455
 H    2.8057360933   -4.1953492348    0.5016373625
 H    2.0293745487   -5.7332928116    0.9190349612
 H    1.0842690221   -4.4527665109    0.1357752318
 H    2.9130569525   -3.6432096922    3.4717039366