13

 O    0.1133738060    1.4009405891   -0.1299119554
 C    0.0526182243    0.0061976943   -0.0300393605
 C   -1.3513225608   -0.5362907719    0.0290973886
 N   -2.3054026215    0.3203339541    0.1374966409
 O   -3.5929460193   -0.1403442143    0.2231108953
 N   -3.8926017623   -1.5503528258    0.1693086438
 N   -2.9764376383   -2.3594380900    0.0673505203
 C   -1.6023057198   -1.9675807457    0.0025476048
 N   -0.6700111620   -2.8274396107   -0.0735825057
 H   -0.6984423544    1.7647004021    0.2451971453
 H    0.5587028149   -0.4385692447   -0.8957987543
 H    0.5851076691   -0.3772308449    0.8575977550
 H   -1.0644281057   -3.7721067918   -0.0776540781