22

 C   -0.4025051949    1.5566984984    0.3279207157
 C    0.2429572864    0.2353509005   -0.1040451122
 C    0.9412143730   -0.4603482209    1.0425199546
 N    0.0890767328   -1.2384531707    1.9658010475
 C    1.1018830419   -1.9303574286    1.1524699368
 C    0.6183957464   -2.9745320784    0.1393049455
 C    1.6739342539   -4.0907649417    0.2689044533
 O    2.2364669483   -3.9433692027    1.5681769565
 C    2.3503656163   -2.5487759006    1.7851208405
 H    0.3467215544    2.2600308786    0.7088145229
 H   -0.9171375280    2.0397243370   -0.5081524937
 H   -1.1338334855    1.3814883737    1.1228818493
 H   -0.5241227553   -0.4327187898   -0.5092358531
 H    0.9670698863    0.4165373518   -0.9094849006
 H    1.7376343685    0.1318149995    1.4993659350
 H    0.4108455444   -1.1361510342    2.9257335074
 H   -0.3747078012   -3.3244638816    0.4306616804
 H    0.5558821133   -2.5864112887   -0.8806924070
 H    1.2622403762   -5.0998994716    0.1955472469
 H    2.4565749026   -3.9791665309   -0.4996761966
 H    3.2628089876   -2.1546657659    1.3036522314
 H    2.4266376627   -2.3711061630    2.8627791397