20

 C   -0.1074365810    1.5352367478    0.0654740312
 C   -0.0540926123    0.0164745399   -0.0471813668
 C   -1.4478916451   -0.5750037084    0.1250177303
 C    0.8898748531   -0.6126105560   -1.0907124633
 C    2.1125531120   -0.2643986237   -0.1922679171
 C    2.6442276500   -1.7002660248   -0.1783557875
 O    3.3783273990   -2.1348606513    0.9289565993
 C    1.1188275168   -1.8300610903   -0.1479781303
 N    1.0141252899   -0.6363555115    0.8571840786
 H    0.8708684159    2.0042810416   -0.0594293917
 H   -0.7765184432    1.9500919482   -0.6963238195
 H   -0.4985325883    1.8272924525    1.0460297458
 H   -2.1264514024   -0.1783455096   -0.6380949185
 H   -1.4589175235   -1.6642301374    0.0467432947
 H   -1.8546874530   -0.3034111811    1.1050614222
 H    0.8397985142   -0.6118272908   -2.1854938751
 H    2.6597073631    0.6752807669   -0.1186480972
 H    3.1536380550   -2.0491010332   -1.0802654093
 H    2.9081619941   -1.8143410121    1.7100485629
 H    0.5040404756   -2.7211806066   -0.0225768788