21

 C   -0.2769531665    1.3079853854   -0.1786316513
 N    0.0709730432   -0.0967421615   -0.0964656373
 C    0.7618620424   -0.7179296509   -1.1067080432
 O    0.9829552288   -0.2115851768   -2.1909468893
 N    1.2461562064   -1.9851650259   -0.7449309688
 C    0.4171360708   -3.0736617334   -0.2397452094
 C    1.0951259048   -3.1700159195   -1.5787865485
 C    0.2348921663   -3.0956147238   -2.8255726372
 C    2.3499205819   -4.0089367100   -1.7157652357
 H    0.4234121759    1.9451073712    0.3770215909
 H   -0.2419962078    1.5928589623   -1.2305796284
 H   -1.2865648239    1.4778910314    0.2086598654
 H    0.1057684383   -0.5271302788    0.8131990802
 H    0.8122362338   -3.6119802616    0.6191103133
 H   -0.6612541425   -2.9271741391   -0.2326317903
 H   -0.6906386554   -2.5428593239   -2.6484742919
 H    0.7710861297   -2.5894411567   -3.6322423217
 H   -0.0247870101   -4.1065036830   -3.1572784373
 H    2.0966076847   -5.0468317289   -1.9575702140
 H    2.9833977810   -3.6194568965   -2.5196264245
 H    2.9303846881   -3.9962906000   -0.7900716410