15

 C    0.0232871629    1.4666265885    0.1068825567
 C    0.0283095381   -0.0739643988    0.0266409784
 N   -1.2964352243   -0.7051909516    0.0372799846
 C    0.7676446215   -0.5276897934   -1.1966076710
 N    1.9645040458   -1.0265727535   -1.2882871372
 C    2.0901608129   -1.2049473174   -2.6447490166
 N    1.0577318533   -0.8475031056   -3.3557881447
 O    0.1603174619   -0.3837473415   -2.3823958487
 H    1.0407618190    1.8703379544    0.1220298181
 H   -0.5055619117    1.8959161756   -0.7499932291
 H   -0.4847789027    1.7855093867    1.0222446807
 H    0.5945286760   -0.4722352813    0.8738253647
 H   -1.7900660646   -0.4292811964    0.8810228244
 H   -1.8464399834   -0.3610811286   -0.7454058671
 H    2.9743023351   -1.6145288372   -3.1113017033