15

 N    0.0386391681    1.3385181870    0.1241582099
 C    0.0122215773   -0.0276035985    0.0380633903
 N   -1.0685384295   -0.7369405836    0.0149341683
 C   -0.7073064358   -2.1695079861   -0.0058144724
 C    0.7965849767   -2.1945820849   -0.0118366224
 C    1.9635285288   -2.9178605589   -0.0355405236
 N    2.9700432251   -1.9869697582   -0.0206399446
 N    2.5405465823   -0.7049147871    0.0133757398
 C    1.2223224923   -0.8558841224    0.0188386184
 H    0.8705886838    1.7948388714   -0.2142648664
 H   -0.8293502278    1.8024376431   -0.0969193606
 H   -1.1419176740   -2.6714629786    0.8680223907
 H   -1.1505440998   -2.6450238048   -0.8897925253
 H    2.1873219482   -3.9726331582   -0.0615431041
 H    3.9609113744   -2.1644513004   -0.0304675182