17

 C    0.0450751046    1.4887147471   -0.0659687278
 C   -0.0300933229   -0.0102752241   -0.0409244117
 O    0.7949682901   -0.6324463026   -1.0263785527
 C    0.7325059922   -1.9448998855   -0.4899880567
 O    1.3009171126   -1.7913288717    0.8063504300
 C    0.3348602740   -0.8637904146    1.2818237087
 C   -1.0299772457   -1.5607515754    1.1559791197
 C   -0.7915921883   -2.1671369350   -0.2100862373
 C   -1.3713999762   -0.7777983976   -0.0932130544
 H    1.0730981409    1.8236355211    0.0985683665
 H   -0.2927485016    1.8764159043   -1.0323085092
 H   -0.5913188165    1.9151710293    0.7150439158
 H    1.2850798917   -2.6596703845   -1.0929217832
 H    0.6563688639   -0.3696785234    2.1946677068
 H   -1.6555513535   -1.9844256011    1.9300094786
 H   -1.3522852011   -3.0117099008   -0.5823385779
 H   -2.3210101642   -0.4528939153   -0.4985159752