24

 C   -0.0330731346    1.3926922401   -0.0309261939
 O   -0.0336849476   -0.0121676655   -0.0717639116
 C   -1.3273876642   -0.5654852919    0.0583879482
 C   -1.1912159144   -2.0829367762    0.0492690331
 C   -2.5153128034   -2.8577668291    0.0151971032
 C   -2.2524401021   -4.3627177592   -0.0828958983
 N   -3.2936204539   -2.5905871250    1.2300985999
 C   -4.2590044108   -1.4967554159    1.1875428260
 C   -4.7150040460   -2.9123094629    1.1775772789
 H    1.0031888433    1.7247599277   -0.1336084202
 H   -0.6271872444    1.8282763137   -0.8510220277
 H   -0.4358248777    1.7762213561    0.9205474784
 H   -1.7964543232   -0.2170867121    0.9917999097
 H   -1.9702675464   -0.2279242689   -0.7750775779
 H   -0.6008148494   -2.3591077751   -0.8319766333
 H   -0.6190629348   -2.3935266005    0.9304613702
 H   -3.0845187630   -2.5433943680   -0.8821043593
 H   -1.6970277528   -4.7084484376    0.7945381593
 H   -3.1899790968   -4.9241420559   -0.1326519470
 H   -1.6682294138   -4.5959579479   -0.9779263153
 H   -4.3348764530   -0.8936999723    2.0881008733
 H   -4.3635091524   -0.9406239307    0.2570183905
 H   -5.1216099531   -3.2911893256    0.2404516166
 H   -5.1334336156   -3.3686874972    2.0701803973