20

 C   -0.1058499553    1.5425613276    0.0591408500
 N    0.1210074017    0.1068969819    0.1082838471
 C    1.3550871779   -0.5283868678   -0.2825075323
 C    2.6638218010    0.2456119327   -0.3748779758
 C    2.8925496279    0.9174502865    1.0057700482
 C    1.9009929377    0.2574131062    2.0005426966
 C    0.9026815383   -0.5328947586    1.1694632193
 C    0.2644558485   -1.7445433701    1.7515468985
 O    0.5735723473   -2.2423006750    2.8069383424
 H    0.7556729318    2.1727877301    0.3127872542
 H   -0.4301830761    1.8025740904   -0.9533360360
 H   -0.9222651511    1.7894017503    0.7444012286
 H    1.2367421586   -1.4011557340   -0.9221109469
 H    3.4621832845   -0.4673559970   -0.6060893805
 H    2.6505652965    0.9741270663   -1.1933303441
 H    3.9270457090    0.7946636032    1.3375863448
 H    2.7204791055    1.9951618287    0.9443653617
 H    2.3982737040   -0.4493660047    2.6704601619
 H    1.4078844884    0.9967058373    2.6406798393
 H   -0.5380024762   -2.1685284338    1.1086292030