17

 C   -0.3085459205    1.3726668958    0.0883279218
 C    0.1384343205   -0.0578105425    0.0035339540
 O   -0.6585479274   -1.0363361061    0.6898607380
 C    0.7069873055   -0.8412874044    1.1197112941
 C    1.6281503403   -1.8806181554    0.5333617434
 O    2.5196194403   -2.4392824074    1.1180047458
 C    1.2795174899   -1.9959561722   -0.9526756607
 C    0.6186670584   -0.6454543381   -1.3286546585
 O   -0.4309306845   -0.7362479918   -2.2704374027
 H    0.5277006060    2.0504118224   -0.1107693695
 H   -1.0824958079    1.5628336762   -0.6616914760
 H   -0.7155674567    1.5936388313    1.0775299992
 H    0.8506700880   -0.4628978239    2.1269929314
 H    2.1666804688   -2.2337778231   -1.5411228383
 H    0.5622946827   -2.8126583393   -1.0883740678
 H    1.3578546272    0.0256325727   -1.7788110834
 H   -1.1323267006   -1.2554301543   -1.8576430208