19

 N   -0.0096043806    1.4590268361    0.0327833866
 C   -0.0089462141    0.0181202294   -0.0022471911
 C   -0.4711989656   -0.6899528734    1.2635531028
 C   -1.3675447631   -0.6876348259    0.0600904248
 C   -2.6324683953    0.1051259798    0.0159084711
 C   -3.4917523266    0.0850860505   -1.2262269739
 C   -3.9608277146   -0.6133849905    0.0248112412
 C    1.0269271062   -0.6212434826   -0.7866978343
 N    1.8641166678   -1.0947670714   -1.4315469560
 H    0.8647100574    1.8062840701    0.4152737887
 H   -0.1016923458    1.8394962515   -0.9043761258
 H    0.0298256159   -1.6078664553    1.5465773753
 H   -0.7263487834   -0.0251257307    2.0811239916
 H   -1.4034273511   -1.6216751168   -0.4943266900
 H   -2.5852210733    1.0459509248    0.5519317316
 H   -3.9850543689    1.0039766560   -1.5227306613
 H   -3.1673191669   -0.5322396039   -2.0576764248
 H   -3.9513151563   -1.6983927027    0.0325758219
 H   -4.7747597217   -0.1741630647    0.5906690917