19

 C   -0.3357443045    1.3517764690   -0.0873956830
 O   -0.2426448714   -0.0527771064   -0.1312484315
 C    0.8296524893   -0.5051134971   -0.9236831826
 C    0.8417873562   -2.0081416861   -0.9001978826
 O    0.0404251503   -2.6888065745   -1.8875823259
 C    1.4414885525   -2.7905389201   -1.9779142490
 C    2.2787873099   -2.3967919848   -3.1935621243
 O    3.0508588703   -3.6102941974   -3.0599949641
 C    2.2330450803   -4.0948302585   -1.9703918535
 H    0.5738812984    1.8084840865    0.3345872847
 H   -0.5028629732    1.7811803712   -1.0876434369
 H   -1.1860830814    1.6018083086    0.5509655465
 H    0.7330653645   -0.1533376778   -1.9638982106
 H    1.7902960388   -0.1243793601   -0.5309016727
 H    0.7844749818   -2.4474349932    0.0963736015
 H    1.7113872585   -2.3596278332   -4.1322579954
 H    2.9021942986   -1.4985433759   -3.1059898719
 H    2.8242556167   -4.3142989178   -1.0734686956
 H    1.6425282745   -4.9771137225   -2.2481627330