20

 C   -0.1070916126    1.4060331298    0.0713621188
 N    1.3904779228    1.6463448158   -0.0727217617
 C    2.1954959837    0.5160222063    0.5433681203
 C    1.8345408791   -0.3187102166    1.7732241825
 C    1.7037995937   -1.8466565118    1.5060758047
 C    0.7495000907   -2.2626337618    0.3272937721
 C   -0.3023766565   -1.1946736941    0.1731511283
 C    0.0869448040   -0.0339686055   -0.3437188617
 C    1.5082200243    0.2993572415   -0.7414145960
 H   -0.5309401112    1.5940999375    1.0646727519
 H   -0.5966077596    2.0593829367   -0.6573393622
 H    3.2446099734    0.7943667632    0.4763518007
 H    2.6081921067   -0.1733462416    2.5349515397
 H    0.9091630919    0.0501855281    2.2228746964
 H    2.6960278217   -2.2726484930    1.3181979029
 H    1.3479230169   -2.3071795506    2.4346576151
 H    1.3334167198   -2.3454903611   -0.5943766725
 H    0.3311867325   -3.2534846147    0.5252427705
 H   -1.2309956744   -1.2732848263    0.7347613439
 H    1.9847292631    0.1664828682   -1.7076864736