20

 C   -0.0272592097    1.5796193567    0.0249083803
 C    0.0060884330    0.0570445647    0.2070830538
 C   -1.3737478954   -0.5733253447    0.0498705239
 C   -2.0507349870   -0.7784971693   -1.3516358262
 C   -1.0995821980   -1.9889526891   -1.5696456688
 C   -1.5779735599   -2.1194951990   -0.0953300308
 C   -3.0039402042   -1.8080960978   -0.6594645786
 O   -4.0681159266   -1.4173833596    0.1574691337
 H    0.9613786349    2.0204993468    0.1850477754
 H   -0.3547646148    1.8507723316   -0.9843666119
 H   -0.7190673300    2.0492205006    0.7334250113
 H    0.7282501764   -0.3755353415   -0.4918436878
 H    0.3799161357   -0.1795602815    1.2121953154
 H   -2.0298216095   -0.1025577881    0.7956308196
 H   -2.3219927143   -0.0110732782   -2.0788125594
 H   -1.4456527944   -2.7604106619   -2.2635910399
 H   -0.0458558215   -1.7697588585   -1.7312544331
 H   -1.3021724825   -2.8929101138    0.6240807045
 H   -3.4102399133   -2.5741974885   -1.3246769345
 H   -3.7722783890   -0.7336024289    0.7665525631