20

 C   -0.0282150775    1.5404065571   -0.0584401306
 C    1.2911727162    0.8107824952    0.0052997207
 C    2.0983392933    0.7480604690    1.3026079715
 C    2.2017584758   -0.6886222436    1.8161328661
 C    1.5730914388   -1.0963593113    3.1259909736
 C    0.9037979843   -1.4661327769    1.8250263040
 C   -0.3192241663   -0.7001033093    1.3191852915
 C   -0.0067855282    0.0332690787    0.0141916553
 H   -0.3481971316    2.0846923539    0.8263136663
 H   -0.3160296584    2.0101950311   -0.9931389283
 H    1.8757118656    0.7814409843   -0.9094053188
 H    3.0965018435    1.1689030285    1.1491415210
 H    1.6228971999    1.3780316185    2.0633133239
 H    3.0957526976   -1.2275304604    1.5168257153
 H    2.0471191820   -1.8810377620    3.7063166656
 H    1.1113787309   -0.3187091577    3.7289058098
 H    0.9541027711   -2.5104209796    1.5314903031
 H   -1.1627677109   -1.3824483504    1.1783710082
 H   -0.6426060322    0.0209525913    2.0788455894
 H   -0.2659206351   -0.5014771945   -0.8947239198