17

 C   -0.1208539433    1.5531183748   -0.0184335237
 C    0.0979082591    0.0481974408    0.0114306458
 C    1.3394322418   -0.6030109038   -0.7424905357
 O    1.6446866445   -0.5584332067   -2.0782811185
 C    2.2497388362   -0.0866831150    0.4171866908
 C    0.9487081907   -0.6230111680    1.1461278225
 O    0.6314739050   -0.5941196786    2.4789235769
 C    1.0776058462   -1.8037103404    0.1737334121
 O    1.0181855401   -2.9974624592    0.1412979825
 H    0.7816080970    2.1378768693    0.1689575562
 H   -0.5100734940    1.8500265724   -0.9975902563
 H   -0.8615473912    1.8364969843    0.7359966027
 H   -0.8497075263   -0.4674196464   -0.1778161230
 H    1.3389904623   -1.3765941432   -2.4866625197
 H    3.1825733685   -0.6268741962    0.5898683375
 H    2.3948435684    0.9902949279    0.4599587408
 H    0.9623409350   -1.4001558219    2.8913845991