18

 C    0.1524036244    1.5407651637    0.0418348609
 C    0.1101522442    0.0259071527   -0.0291301725
 O    0.5510374945   -0.4839017418    1.2292944918
 C    0.5228852033   -1.8688993294    1.3323122691
 C    1.5470757471   -2.5218930311    0.4870901779
 N    2.3548558066   -3.0210056690   -0.1721896175
 C    0.6979758707   -2.2755270666    2.8307315945
 C    0.8694958525   -3.7540795825    3.0950539845
 O    0.6589632322   -1.4365152680    3.6860458107
 H    1.1714222249    1.8864226118    0.2343851271
 H   -0.1876656779    1.9696159155   -0.9051895779
 H   -0.4935180357    1.9066587448    0.8442995087
 H   -0.9121352952   -0.3323141189   -0.2310373006
 H    0.7588397809   -0.3481720516   -0.8343730819
 H   -0.4563552655   -2.2808766712    1.0215883092
 H    1.8710479574   -4.0700713526    2.7836435354
 H    0.7441902363   -3.9467062829    4.1607671707
 H    0.1544344493   -4.3486679428    2.5166712197