16

 C   -0.1273421257    1.4887453706    0.0134650757
 N    0.1303902087    0.0518221510    0.0659308010
 C    1.4074332915   -0.5447161006   -0.1760539721
 C    2.5765742963    0.3199417615    0.3170587381
 C    1.9318707517    0.2551114932    1.7261071175
 O    2.2994973746    0.5850878497    2.8128290751
 C    0.7550014178   -0.5914642085    1.2274970307
 C    0.0760090051   -1.6101392682    1.9520590902
 C   -0.4681490172   -2.4623367497    2.6027362441
 H    0.6761100123    2.1302612513    0.3976526497
 H   -0.3205737865    1.7605822593   -1.0285224341
 H   -1.0322543334    1.6906414484    0.5920992283
 H    1.4745710301   -1.3773919977   -0.8667593206
 H    3.5365365028   -0.2046454148    0.3326193459
 H    2.7114711662    1.2983474917   -0.1496425687
 H   -0.9566122445   -3.2147007572    3.1710128393