16

 C    0.0133228429    1.4761801142    0.1050867055
 N   -0.0453564028    0.0263919274    0.0920354908
 C   -1.2302927459   -0.6369299515   -0.0281901072
 O   -2.3077179051   -0.0805820569   -0.1315941143
 N   -1.1150649808   -2.0480463360   -0.0240116356
 C    0.1553003781   -2.7510946511    0.0980133048
 C   -2.2772175107   -2.8035130866   -0.1423860037
 O   -2.2913977433   -4.0125565284   -0.1497821566
 H    0.6144280452    1.8555777644   -0.7283737087
 H   -1.0069025597    1.8461832582    0.0062387907
 H    0.4395164123    1.8467601528    1.0436823670
 H    0.8129972729   -0.4880837730    0.1738176307
 H    0.6506300052   -2.5197788408    1.0473576736
 H   -0.0722776094   -3.8167999900    0.0702063275
 H    0.8266049306   -2.5109381044   -0.7337291187
 H   -3.1650751096   -2.1654632283   -0.2268200956