13

 C    0.0190090754    1.3615416582    0.0918588269
 O    0.0649398857   -0.0692419202   -0.0055050188
 C    0.6078128235   -0.5875199586   -1.0980445278
 N    1.0711271373    0.1874954014   -2.0259603421
 O    1.6312772131   -0.3935487274   -3.1535000911
 N    1.7172861500   -1.7374209078   -3.3318131363
 C    1.2571431595   -2.5127784148   -2.4102626723
 C    0.6388464281   -2.0656876410   -1.1652815682
 O    0.2078613400   -2.8040340726   -0.3037577703
 H    1.0282164196    1.7812944567    0.0626465149
 H   -0.5649449747    1.7841101501   -0.7303207795
 H   -0.4571379271    1.5690703186    1.0492305317
 H    1.3493291595   -3.5778453827   -2.6001353272