18

 N   -0.0536254107   -1.1737658847   -0.0840157351
 C   -0.0230328454   -0.0190426845   -0.0785959237
 C    0.0038155945    1.4415705527   -0.0465839209
 C    1.4353916665    2.0096068689    0.0103893120
 O    2.0729427641    1.5931547978   -1.1798151146
 C    3.2984225830    2.2677314699   -1.4245340692
 C    3.0576700753    3.7569017653   -1.6782602023
 C    2.1374014840    4.3078832861   -0.6215559843
 C    1.4166293662    3.5105416154    0.1632719416
 H   -0.4934518684    1.8323970769   -0.9401062156
 H   -0.5619977030    1.7835601100    0.8263949889
 H    1.9437953407    1.5609874009    0.8837435535
 H    3.9794050861    2.1389405752   -0.5683765668
 H    3.7462849751    1.7748412129   -2.2908327750
 H    4.0132519429    4.2958407863   -1.6714948249
 H    2.6250995768    3.9089864381   -2.6762800464
 H    2.0861168734    5.3865820042   -0.5001870009
 H    0.7891773892    3.9127213584    0.9545436839