19

 O   -0.0712122402    1.4115979457    0.0331038585
 C    0.0132429499   -0.0040078823    0.0373295612
 C   -1.4286489934   -0.5406277169    0.0483514122
 C   -1.4659546959   -2.0666063586   -0.1089658972
 C   -0.6638125681   -2.5077538743   -1.3449458918
 N    0.7027654741   -1.9810111867   -1.3849098766
 C    0.7482255149   -0.5387399658   -1.2260181379
 C    0.7455573569   -0.4640542030    1.2416848109
 N    1.3592540220   -0.8167818166    2.1562902281
 H    0.8228485128    1.7733303997    0.0333746580
 H   -1.9307144215   -0.2143664927    0.9633471835
 H   -1.9382637719   -0.0552158539   -0.7925671875
 H   -1.0478766167   -2.5411790263    0.7876245739
 H   -2.5054604148   -2.4032527834   -0.1905046367
 H   -0.6136522881   -3.5991734626   -1.4033011398
 H   -1.1779844163   -2.1634989087   -2.2532805707
 H    1.2723979608   -2.4276902170   -0.6726646762
 H    0.2566686254   -0.0634690987   -2.0843699018
 H    1.7924181702   -0.2065313979   -1.2154627201