18

 C   -0.2005413063    1.4221667359   -0.3874932865
 C    0.0362186402   -0.0418701908   -0.0694413172
 O    0.4802854230   -0.6814882299   -1.2778260582
 C    0.7559713767   -2.0005002808   -1.2060373611
 N    0.6366862210   -2.6448244077   -0.1175693591
 C    1.1937207789   -2.5352233640   -2.5275405580
 C    0.5020547272   -2.0873508045   -3.7726758430
 N    1.8756812994   -1.6642407686   -3.5007769686
 H    0.7192677780    1.9017617325   -0.7347793064
 H   -0.9628751515    1.5364547559   -1.1635835878
 H   -0.5426870503    1.9456077665    0.5101146703
 H    0.7983850312   -0.1790534261    0.7040540386
 H   -0.8729196028   -0.5406485493    0.2812379653
 H    0.8953682312   -3.6204656278   -0.2508566243
 H    1.5836214094   -3.5479494872   -2.4797605581
 H    0.3871068036   -2.7909184529   -4.5921086572
 H   -0.2984737572   -1.3629032581   -3.6610855846
 H    1.8620660583   -0.7144916731   -3.1353029142