22

 C   -0.3141413185    1.5928736644    0.2479256607
 C   -0.0505691845    0.0893512686    0.2697983052
 C    0.7966355006   -0.6511861156   -0.7670936943
 C    1.1290983251   -1.7181506216    0.1995208780
 N    2.2237165494   -0.8449033916   -0.2919877758
 C    2.2912813607   -0.2121042476    1.0673371025
 C    2.8371567241    1.2053463883    1.1705132204
 C    0.8259192831   -0.6501827607    1.3366317830
 C    0.3075045068   -0.8906335302    2.7310104614
 H    0.5723599763    2.1921841226    0.0428874346
 H   -1.0525875318    1.8275188991   -0.5268605057
 H   -0.7328399909    1.9281638497    1.2038249625
 H   -1.0239479815   -0.4188245139    0.2848653913
 H    0.6505063280   -0.7255505360   -1.8371987316
 H    1.1306567588   -2.7995794517    0.1511459902
 H    2.9380966333   -0.8721280640    1.6598428512
 H    2.4519608311    1.8628322146    0.3910184553
 H    2.5990050791    1.6476840169    2.1442535443
 H    3.9272772932    1.1871534075    1.0714958350
 H    0.2008168576    0.0535534896    3.2785027938
 H   -0.6748870265   -1.3751571816    2.7165492762
 H    0.9880861166   -1.5295115070    3.3047410516