15

 C   -0.0362730556    1.5017979669   -0.0699365739
 C    0.0069787159   -0.0059780093    0.0277683732
 O    0.0037912587   -0.6012611406    1.1005462433
 C    0.0444062165   -0.7762373518   -1.2018713821
 C    0.0605873470   -2.1453542291   -1.3640599234
 N    0.1463551711   -3.0962738720   -0.3867392536
 C    0.0392447380   -2.3004109330   -2.7817193761
 N    0.0164280458   -1.1431830377   -3.3998683861
 O    0.0254266628   -0.1759658091   -2.4282968068
 H    0.8477576573    1.8740351343   -0.5984857860
 H   -0.9078834775    1.8229589943   -0.6497163786
 H   -0.0768840770    1.9262752978    0.9334368758
 H   -0.0237587991   -2.7381921230    0.5445898862
 H   -0.2323687339   -4.0075779288   -0.5877919611
 H    0.0412734198   -3.2119582588   -3.3625123406