21

 O   -0.1072720045    1.3674545123    0.0347776638
 C   -0.1305338647   -0.0338424356    0.2813950729
 C   -1.5212409311   -0.5551675850   -0.0821050089
 C   -1.8576233554   -0.1668786390   -1.5408844931
 O   -2.8143893563   -1.0323379724   -2.1561273841
 C   -1.6079156695   -2.0662582166    0.1069873259
 O   -0.9600546551   -2.8053507823   -0.8941827239
 C   -1.5323822968   -2.6697356086    1.4766480430
 C   -2.8450966129   -2.6850658872    0.7175241582
 H    0.7898523121    1.6832667257    0.1748201174
 H    0.6153672662   -0.5641902402   -0.3296539815
 H    0.0856551673   -0.2543130818    1.3372429376
 H   -2.2455040810   -0.0791163701    0.5923469377
 H   -2.1812293398    0.8784484719   -1.5894150325
 H   -0.9598035225   -0.2571352815   -2.1588930161
 H   -3.6146241190   -1.0256194117   -1.6212707341
 H   -1.4974835895   -2.6726909467   -1.6887720805
 H   -0.9945810743   -3.6066208592    1.5613147325
 H   -1.4421313976   -2.0119876829    2.3343317955
 H   -3.6459850522   -2.0405081272    1.0666814266
 H   -3.1661673733   -3.6343445920    0.3037085236