19

 C    0.3732441652    1.4748811283   -0.1475671567
 C    0.6719015863   -0.0135447722    0.0038499441
 C    0.3334924965   -0.5544242514    1.3801232327
 O   -0.1234909443    0.1287569739    2.2741317238
 C    0.6013063105   -1.9976822841    1.6020051916
 C   -0.0757355411   -2.8437237160    2.6455148849
 C    1.4148717161   -2.6817065426    2.7038913443
 C    2.0608474978   -3.4410287711    1.5499340533
 O    1.1798474319   -2.8128024861    0.5768385890
 H    0.9484977428    2.0644065001    0.5710536030
 H    0.6225178271    1.8174897209   -1.1555841239
 H   -0.6838624340    1.6821664515    0.0377919208
 H    0.1243361957   -0.6173580958   -0.7331007814
 H    1.7271201404   -0.2434165014   -0.1940436652
 H   -0.6260717419   -2.2739563191    3.3856301720
 H   -0.5187856727   -3.7836847134    2.3286050727
 H    1.9286253348   -2.2198445166    3.5355038875
 H    3.1018968702   -3.1571717238    1.3629950905
 H    1.9656400288   -4.5328326412    1.5480858871