19

 C    0.2395271104    1.3808543992    0.2414713872
 N   -0.1655573276    0.0506521716   -0.2205867680
 C    0.6402935608   -0.4860823270   -1.2797982643
 C    0.4400632531    0.1869001995   -2.6225824969
 C    1.9986371109   -1.0768889211   -0.9809668505
 O    2.4172038096   -1.0080267065    0.3390408472
 C    0.8172196006   -2.0088776186   -1.3225018034
 C    0.2993015526   -2.8302823316   -0.2715371844
 N   -0.0944870647   -3.4873430253    0.5970449524
 H    1.2950498385    1.4435160629    0.5436559454
 H    0.0579267322    2.1245312340   -0.5406511325
 H   -0.3836860415    1.6527544776    1.0973794958
 H   -0.1714648080   -0.5861340746    0.5676232636
 H    0.7341716329    1.2398553676   -2.5799699785
 H    1.0429094141   -0.2908737265   -3.3999964658
 H   -0.6130599343    0.1362002293   -2.9129122468
 H    2.7850084332   -1.0116479954   -1.7331837763
 H    2.7915115117   -1.8573403476    0.5999034917
 H    0.8098613855   -2.4736117375   -2.3027191859