16

 C   -0.5062453760    1.2898271609    0.0055491824
 C    0.1351053714   -0.0850176196    0.1071580666
 C    0.9635057059   -0.6702152981   -1.0982202113
 C    2.0514293824   -1.1751031851   -0.0931825604
 C    1.4050953798   -0.2597783184    0.9575868055
 O    1.7891433543    0.2458426975    1.9697783706
 C    0.2686392615   -1.7309861431   -1.9022417783
 O    0.0913497300   -1.7038625661   -3.0917734659
 H    0.2213559710    2.0391859199   -0.3205730787
 H   -1.3369933713    1.2875202845   -0.7062745077
 H   -0.8914115403    1.5998237845    0.9811993175
 H   -0.6008095490   -0.8346770683    0.4340220691
 H    1.3334401247    0.1155295515   -1.7594188506
 H    1.9192245338   -2.2331209218    0.1649650545
 H    3.1006009075   -1.0001050449   -0.3379381173
 H   -0.0970451658   -2.5880020733   -1.2834045261