20

 C   -0.0625458599    1.5267949117   -0.0529626639
 N    0.0055971241    0.0690937464   -0.0499935500
 C    0.7273985721   -0.7840858743   -1.0320340957
 C    2.2383718983   -0.6685596727   -0.7447802093
 C    2.7751756093    0.5019989822    0.0376971193
 C    2.1898737447   -0.6679045694    0.7855619421
 C    0.6637383556   -0.7831247774    0.9766185353
 C    0.3481470432   -1.9514523914   -0.0381650762
 O   -0.9649662213   -2.4062334791   -0.0795729694
 H    0.4443570784    1.9584776346   -0.9229443656
 H   -1.1101338082    1.8524128011   -0.0870173078
 H    0.3870581454    1.9592404922    0.8476000286
 H    0.3804003782   -0.7693967759   -2.0663949279
 H    2.9193969305   -1.2974454939   -1.3067089500
 H    3.8593081659    0.5574510659    0.0720066410
 H    2.3035904854    1.4722936076    0.0224079528
 H    2.8338667714   -1.2963372790    1.3900475744
 H    0.2518994739   -0.7674449864    1.9869003498
 H    1.0114414328   -2.8177900338   -0.0167219223
 H   -1.4997299198   -1.5988212282   -0.0968980052