15

 C    0.0126641032    1.4623943778   -0.0898508281
 N    1.3156096708    2.0704952189    0.2112726388
 C    2.3544528781    1.3482613880    0.3350669754
 N    2.4560925381   -0.0312031868    0.2101395051
 C    1.2573266928   -0.7355765213    0.1265196412
 C    0.9223444255   -2.0706859995    0.1494294804
 N   -0.4372464580   -2.0942961887    0.0250271808
 N   -0.9906965952   -0.8708613564   -0.0788673997
 C    0.0407095428   -0.0371465811   -0.0192700301
 H   -0.7293958582    1.8754424674    0.6050139725
 H   -0.3000101200    1.8045732261   -1.0872888345
 H    3.3089218426    1.8310535558    0.5466535491
 H    3.2911852005   -0.4824690366    0.5444116131
 H    1.5066485352   -2.9710492377    0.2451264879
 H   -1.0335501883   -2.9026377459    0.0032218580