18

 O   -0.6430950106    0.8322111416    0.6863993932
 C    0.0456025227    1.0319766300   -0.2808363169
 C    1.3473337713    1.7992917302   -0.2824098423
 C    1.3146387367    2.9908086126   -1.2525180224
 C    0.2988412927    4.1053273851   -0.8716789073
 C    0.9924654431    5.3700713665   -1.3178307397
 C    2.2764836970    5.1631614156   -1.6036867659
 C    2.6780214105    3.7220331365   -1.3995728333
 H   -0.2564884063    0.6485859496   -1.2854498109
 H    1.5665108233    2.1228877407    0.7400296641
 H    2.1373561783    1.1020257702   -0.5984542247
 H    1.0361408964    2.6171100749   -2.2460608922
 H   -0.6779386242    3.9574301581   -1.3466644348
 H    0.1091219657    4.1249673732    0.2116620438
 H    0.4886156841    6.3295929603   -1.3544226037
 H    2.9826712308    5.9275390039   -1.9085449358
 H    3.2922835654    3.6156951460   -0.4928967190
 H    3.2762843831    3.3158840753   -2.2233617921