19

 C    0.0183175761    1.7857219221   -0.0819381184
 C    1.4623189405    1.4454965370    0.0840596048
 O    1.0141299483    0.2930779093    0.9643572819
 C   -0.0144816304    0.2048416667   -0.1209387120
 C   -1.3748254454   -0.2520200634   -0.6243237202
 C   -1.1339630175    0.3759694291   -2.0852411713
 C    0.4294896370    0.3758598893   -2.3245680153
 C    1.7151513047    0.8331732090   -1.3454424130
 C    0.9405353838   -0.3920091841   -1.2000539377
 H   -0.4668212883    2.0836654918    0.8493178647
 H   -0.2861231691    2.4072430771   -0.9206903273
 H    2.2295309070    2.0549649686    0.5599671596
 H   -1.5069330779   -1.3360979860   -0.6857107746
 H   -2.2360797996    0.1914827287   -0.1204922618
 H   -1.5564264194   -0.2918210280   -2.8437380446
 H   -1.6367751518    1.3403301366   -2.1895696626
 H    0.7610639253    0.2057060518   -3.3455190649
 H    2.6694759389    0.8911764030   -1.8585786198
 H    1.2615702278   -1.4233597586   -1.0970800776