21

 C   -0.0869381487    1.5593537363   -0.1444705863
 C   -0.0443200371    0.0381903492    0.0277020182
 N   -1.3605909857   -0.5758496773    0.0249077301
 C   -2.0652918832   -0.9495366489    1.1560276178
 C   -3.3151663203   -1.3560327936    0.7714574893
 C   -3.3878506429   -1.2395123422   -0.6484099328
 C   -2.1694136175   -0.7544312362   -1.0771864049
 N   -1.7147785154   -0.3820609816   -2.3515194600
 C   -2.6750083884   -0.5416189094   -3.4337955065
 H    0.9265804084    1.9729812144   -0.1237519731
 H   -0.5517027825    1.8185430682   -1.0985742643
 H   -0.6662140026    2.0199274020    0.6609656148
 H    0.5694348493   -0.4116644812   -0.7620340486
 H    0.4323114640   -0.2282389598    0.9757176544
 H   -1.5962724404   -0.8996982384    2.1258155374
 H   -4.0919965072   -1.7188202374    1.4269659099
 H   -4.2261654088   -1.4938629001   -1.2767518547
 H   -0.8310637031   -0.8218652823   -2.5842012793
 H   -3.5404562510    0.1002955772   -3.2437042745
 H   -2.2114397188   -0.2235474955   -4.3710423246
 H   -3.0410374482   -1.5736300433   -3.5554333825