20

 C    0.5067480887    1.6307625556    1.2777955458
 C    0.3723008702    0.2228315717    0.8919026023
 C    0.2701666993   -0.9291412194    0.5448052737
 C    0.1509823965   -2.3039935950    0.1552622031
 C   -1.1201016704   -3.0799909569    0.4690339066
 C   -0.8142435150   -2.7075089139   -0.9498844430
 N    0.8904516584    2.5896099295    0.2307329289
 C    1.8231422134    2.1546155949   -0.8020953117
 C    0.3857142402    2.3819990156   -1.1213955885
 H   -0.4421067207    1.9830345582    1.7014193498
 H    1.2523357653    1.7170114472    2.0781292005
 H    1.0726389817   -2.8769255539    0.2035516056
 H   -1.0052396792   -4.1146349690    0.7717173096
 H   -1.9101616740   -2.5424174561    0.9792240819
 H   -1.3967910511   -1.9163675674   -1.4063896840
 H   -0.4874155067   -3.4834113368   -1.6328344423
 H    2.5779956459    2.8836558235   -1.0829539042
 H    2.1568778525    1.1194240326   -0.7874464923
 H   -0.2126046102    1.4942441539   -1.3142902301
 H    0.0656520150    3.2809351057   -1.6407322815