18

 O    0.0069912378    1.4167749977   -0.0700796579
 C    0.0942153115    0.0084343534    0.0613401834
 C   -1.2964782631   -0.5865194196    0.0875063598
 C   -2.2077308691   -0.4103115649    1.3435063707
 C   -2.5968774469   -1.9180822585    1.2841569478
 C   -1.7326807107   -2.0951255033    0.0057182182
 N   -2.4069990687   -1.7563286102   -1.2528729108
 C   -2.0944726476   -0.4173297622   -1.2155450578
 O   -2.3438919874    0.5169165848   -1.9389094288
 H   -0.5601719126    1.5936341636   -0.8332648355
 H    0.6812806000   -0.4432774849   -0.7555919673
 H    0.6290538019   -0.1872985638    0.9976932924
 H   -1.6320727397   -0.1460578859    2.2333493095
 H   -3.0188296723    0.3118894028    1.2348411367
 H   -2.2165434307   -2.4921255466    2.1324731068
 H   -3.6570681742   -2.1478836948    1.1569146628
 H   -1.0394858744   -2.9345395076   -0.0620062400
 H   -3.1229424536   -2.2456258500   -1.7729828600