18

 C   -0.0033141913    1.5488376892   -0.0120750015
 C   -0.0095360048    0.0167108115    0.0460505068
 C    0.7723627890   -0.5247106806    1.2486552413
 N   -1.3795308870   -0.5069153843    0.0278254111
 C   -1.9358268528   -1.3045684806   -0.9496184586
 C   -3.2239374254   -1.5449636966   -0.5498579093
 N   -3.4811439814   -0.9188307997    0.6459384146
 C   -2.3584370985   -0.3093575859    0.9597879452
 H    1.0236819095    1.9191816661   -0.0843703421
 H   -0.5640056852    1.9075327167   -0.8792081727
 H   -0.4534488038    1.9797808794    0.8876381515
 H    0.4556727530   -0.3654042761   -0.8682535126
 H    0.3463925375   -0.1652648641    2.1904777292
 H    0.7572290956   -1.6176503910    1.2627469679
 H    1.8135597037   -0.1918015744    1.2021504488
 H   -1.3678124796   -1.6133445715   -1.8120311915
 H   -3.9775307013   -2.1311306040   -1.0536480207
 H   -2.1964040472    0.2860290460    1.8456894825