15

 O   -0.6597213612    0.8351039709   -0.4687294671
 C    0.2282308595    0.9455363404    0.3381757183
 C    1.3485585793    1.9532281582    0.2333724181
 C    1.2922493561    3.0300892630   -0.8700466876
 C    1.2248280585    4.0583065373    0.2660865139
 C    0.0923644443    3.7718532561    1.1764040348
 N    1.3256300195    2.9835097606    1.3595687266
 C    1.9792445910    5.2738341791    0.3126906615
 N    2.5828241532    6.2606748956    0.3134698938
 H    0.2656181866    0.3150987606    1.2536537835
 H    2.3073382864    1.4288531148    0.2875899793
 H    2.2093443294    3.0922831083   -1.4545355320
 H    0.4280544166    3.0007378566   -1.5355747800
 H   -0.0737687848    4.4643643140    1.9943343550
 H   -0.8029552445    3.3084144645    0.7690622120