19

 C   -0.0032016037    1.4798835932   -0.0482946307
 C    1.3729375412    2.1744627255    0.0289178672
 C    1.8433756491    2.5017298108    1.4483672126
 O    1.6980839728    1.3961373662    2.3463229426
 C    2.3813417507    0.2714232383    1.9688050499
 N    1.8434857258   -0.7721906366    1.5174636537
 C    0.3913103033   -0.7508057626    1.3067884822
 C   -0.0110631370   -0.0623725991   -0.0114340114
 H   -0.6536990163    1.8680398193    0.7463161588
 H   -0.4758905269    1.7731882100   -0.9929514747
 H    2.1249173378    1.5600087287   -0.4807392197
 H    1.3401825420    3.1260949326   -0.5158437148
 H    2.8879335589    2.8487539103    1.4380727755
 H    1.2292166262    3.2932255921    1.8871754996
 H    3.4649945267    0.3266019835    2.1071351810
 H    0.0629820223   -1.7936218102    1.2641658207
 H   -0.1282188089   -0.2701922484    2.1447989022
 H   -1.0301603102   -0.3913535574   -0.2493543388
 H    0.6300504563   -0.4486389962   -0.8141859260