19

 C   -0.3359946516   -1.1461477482    0.3442442877
 C   -0.2332921164    0.0455420030    0.2135492563
 C   -0.0943749641    1.4718934774    0.0564954061
 C   -1.2237749549    2.1977294123   -0.6571534971
 N   -1.4188945325    1.6981492306   -2.0107641700
 C   -2.4284828667    0.6581202962   -2.1855679629
 C   -2.6872353763    2.0506701711   -2.6408273936
 C    0.6788393481    2.1943492179    1.1163597524
 N    1.2595364019    2.0117016639   -0.2161427890
 H   -0.4294480689   -2.1978682997    0.4573010856
 H   -2.1420419850    2.1240896933   -0.0453143332
 H   -0.9452031870    3.2543561845   -0.7219518153
 H   -2.1809631687   -0.1221851647   -2.8988991195
 H   -2.9639656564    0.3134403940   -1.3029454763
 H   -3.3999800531    2.6371304344   -2.0621201334
 H   -2.6335527810    2.3119607823   -3.6937656216
 H    0.4047444397    3.2174843209    1.3608571849
 H    1.0559622831    1.6076558139    1.9484803525
 H    1.9354880598    1.2520744269   -0.2031182836