13

 O   -0.5912239320    0.6738954311   -0.6657199087
 C    0.1225763898    0.9859353482    0.2481936142
 C    1.3161637277    1.9295936432    0.1260721617
 C    1.3853779546    2.7860420500   -1.1064381147
 C    1.4359573218    4.0647718302   -0.7226537591
 N    1.4143965213    4.1834889642    0.6775544862
 C    1.3237164799    2.9506390516    1.2897271347
 O    1.2496751806    2.7259017218    2.4749234670
 H   -0.0213558820    0.5966228893    1.2780048323
 H    2.2043096083    1.2925805299    0.2632387237
 H    1.3653607809    2.4182538609   -2.1191202317
 H    1.4892055580    4.9597730510   -1.3254160008
 H    1.4067755312    5.0464269387    1.1954763553