23

 C   -0.8383173669    1.2700155178   -0.0257321986
 C    0.0319002469    0.0233176288   -0.0968088082
 C    1.4416021754    0.1295666610   -0.7411660722
 C    1.9529336454   -0.8761898900    0.3162789853
 O    3.2558197543   -0.7407914538    0.8344393760
 C    0.6976479707   -0.5577313766    1.2000696962
 C    0.9380375998    0.4398175940    2.3337623027
 C    1.5729607339   -0.2067275001    3.5613838175
 O    1.7461659702    0.8076973400    4.5425184098
 H   -0.3138176416    2.1049595050    0.4497921889
 H   -1.1300524779    1.5932859042   -1.0311840655
 H   -1.7577706708    1.0870815804    0.5415257792
 H   -0.5309872338   -0.7779335245   -0.5882016940
 H    1.5590755932   -0.1256576685   -1.7971669944
 H    1.8748120742    1.1240418412   -0.5760424764
 H    1.8986572755   -1.9020918614   -0.0591387060
 H    3.3955557468    0.1861796577    1.0537958252
 H    0.1955624435   -1.4416444148    1.6090264568
 H    1.5776483503    1.2725737196    2.0116221869
 H   -0.0105758060    0.8954778528    2.6404341986
 H    0.9129124738   -1.0090692748    3.9310972683
 H    2.5302066037   -0.6697222761    3.2845782658
 H    2.1794688795    0.4142036781    5.3052776582