21

 C    1.5382450655   -0.9391189090   -1.0957648271
 C    0.3739167185   -0.4684483592   -0.2156827846
 C    0.5886286837   -0.6850962292    1.2783356403
 C   -0.6344980924   -0.9050997288    2.1398087868
 C    0.2933135306   -2.0563240699    1.8339025078
 C    1.7493227796    0.1272132118    1.8631281882
 N    1.5142811835    1.5608854706    1.6610729799
 C    2.0116635788   -0.2045513472    3.2818381150
 N    2.2230217033   -0.4057304763    4.4011496545
 H    1.7850224959   -1.9888781463   -0.9043860483
 H    1.2828791667   -0.8418793520   -2.1552350579
 H    2.4414890452   -0.3438597015   -0.9278799004
 H    0.1829634506    0.5934057095   -0.4001367552
 H   -0.5353311530   -1.0087219416   -0.5035682834
 H   -0.6312294604   -0.5258749235    3.1564499418
 H   -1.6040370633   -0.8748195464    1.6546977684
 H   -0.0389846722   -2.8121346346    1.1302833224
 H    0.8997299447   -2.4390138153    2.6469712378
 H    2.6633807799   -0.1312873236    1.3146358420
 H    0.6887580429    1.8441446718    2.1819570801
 H    2.2929643320    2.1009338606    2.0260989520