21

 O    0.0666381803    1.4237451194   -0.2039846768
 C    0.0426326103    0.0354731169   -0.0123603818
 C    0.0324837427   -0.6028682386    1.3992025908
 C   -1.4800269800   -0.1700212826    1.5087535730
 C   -1.3145472510   -0.7578418948    0.0715370505
 C   -2.0599309152   -1.3086998379   -1.1180770050
 C   -1.0255784774   -2.3664199647   -1.6536037921
 C   -0.0104840713   -2.7198883528   -0.4928553071
 C   -0.5156654177   -1.9047620515    0.7099681261
 H   -0.5594724090    1.8399928254    0.3964178909
 H    0.7872408884   -0.3553164867   -0.7056707636
 H    0.7880197644   -0.5150998892    2.1822399970
 H   -2.0995088505   -0.7503483099    2.1977979838
 H   -1.6984322730    0.8960167035    1.6271093323
 H   -2.9907016650   -1.7965381863   -0.8070093591
 H   -2.3123656516   -0.5657762727   -1.8803487470
 H   -1.5382033657   -3.2597552390   -2.0202953057
 H   -0.4818994323   -1.9503630128   -2.5065393536
 H   -0.0241720653   -3.7892758518   -0.2679817227
 H    1.0129564371   -2.4823534515   -0.7934713356
 H   -1.1040659882   -2.5215344324    1.3963868359