18

 O    0.8229542548   -0.7824809660   -1.1556806740
 C    0.2073270549   -0.0874396800   -0.0849367589
 C   -1.2692014183   -0.4284108099   -0.0152357297
 C   -2.2516875133    0.3093996231    0.9652400307
 C   -1.7613345311    1.3769075950    1.8171316130
 C   -1.3384590745    2.2616974146    2.5137612066
 C   -3.0342480903    0.6971137027   -0.3021559683
 C   -2.1830587441    1.4380240771   -1.2428032501
 N   -2.0866116179   -0.0406239016   -1.2273346056
 H    0.2804008465   -0.6318591764   -1.9385382680
 H    0.7038487782   -0.4138990400    0.8351815485
 H    0.3647611966    0.9980381133   -0.1634597433
 H   -1.3662520916   -1.5109740742    0.0971199386
 H   -2.7975961874   -0.4221702841    1.5663000212
 H   -0.9718933514    3.0424072209    3.1334862542
 H   -4.1114770170    0.6198597264   -0.4028335528
 H   -2.6442785796    1.8058283571   -2.1535999972
 H   -1.3683845143    2.0497587520   -0.8669783248