19

 C   -0.9012313506    0.5636722350    0.1172494461
 O   -0.2747661081   -0.6792902426   -0.1043385144
 C    0.5934553027   -0.6751998913   -1.2134950169
 C    1.0727785011   -2.0964446318   -1.4542132371
 O    0.0415720128   -2.9298845904   -1.9676821888
 C   -0.7862225764   -3.5046778767   -1.0654866178
 N   -1.8014522506   -4.1371450112   -1.4514966268
 C   -2.6151804225   -4.7651708742   -0.4321452961
 H   -0.1670038760    1.3575053008    0.3257430338
 H   -1.5074986800    0.8725223354   -0.7477868077
 H   -1.5542052119    0.4492594617    0.9854151647
 H    0.0785786890   -0.3065322404   -2.1151019229
 H    1.4643786718   -0.0213827029   -1.0312902329
 H    1.8635704264   -2.0947590241   -2.2092685601
 H    1.4812030302   -2.5108597069   -0.5230930453
 H   -0.4766868357   -3.3762703484   -0.0190218271
 H   -2.6700939298   -5.8446123712   -0.6160872402
 H   -2.2480385048   -4.6100088047    0.5960407889
 H   -3.6406459875   -4.3819731061   -0.4904486694