18

 C    0.0409245684    1.4990970740   -0.0201149163
 N    0.0683630564    0.0484327273    0.0745504529
 C    0.4119532902   -0.6405412129   -0.9162197252
 O    0.7699491639   -0.1742798391   -2.1576911395
 C    1.2392965899   -1.2718611320   -2.9283954823
 O    0.7487875854   -2.4465469765   -2.3286808870
 C    0.5189133207   -2.1494902731   -0.9452383759
 C    1.6592355940   -2.6934290745   -0.0807782222
 O    1.7920257018   -4.0881615352   -0.2428215225
 H    0.5815428281    1.9189273234    0.8346178471
 H    0.4712685126    1.8984820443   -0.9452595796
 H   -0.9964336715    1.8437364420    0.0605844127
 H    0.8430990229   -1.1935158136   -3.9450191971
 H    2.3401266285   -1.2499908098   -2.9462776851
 H   -0.4199531415   -2.6282637577   -0.6549487842
 H    2.5939483915   -2.1618893568   -0.3259580059
 H    1.4326880106   -2.4981548382    0.9709452695
 H    1.8491703082   -4.2482781217   -1.1923365496