18

 C    0.4823279942    1.5621204991   -0.6187706795
 N    0.8544229541    0.1848570129   -0.8713196748
 C    0.0928314204   -0.7154988464   -0.4050354671
 N    0.3656832720   -2.0512692185   -0.6108711413
 C    1.5510282732   -2.5335885467   -1.2966180327
 C    1.2270054843   -4.0311789818   -1.4024251671
 O    0.2200926096   -4.2690782313   -0.4034918820
 C   -0.3525207262   -3.0899455053   -0.0311097506
 N   -1.3574699230   -2.9451644083    0.7217800713
 H    1.2944073057    2.0723785408   -0.0874577016
 H    0.3478038020    2.0895922691   -1.5706529438
 H   -0.4408766284    1.6730309592   -0.0283171518
 H   -0.8193213583   -0.5577045187    0.1789827140
 H    1.6677823610   -2.0455594389   -2.2662584689
 H    2.4537875890   -2.3324854040   -0.7075091137
 H    0.8167771006   -4.2924795354   -2.3840495315
 H    2.0802029554   -4.6769419399   -1.1882691518
 H   -1.7291563155   -3.8501483459    0.9985703031