18

 C   -0.0473891644    1.7381502205   -0.2424688293
 C    0.0449630365    0.2265156802    0.0279404721
 C   -1.3157392606   -0.4628735112    0.1090372811
 C   -2.0407778152   -0.2313623478    1.4281091120
 C   -3.4727946241   -0.7280081047    1.4981069785
 O   -1.5046851044    0.3085982246    2.3703920043
 C    0.9604989050   -0.4390590572   -0.9789387545
 O    0.7255924473   -1.4636351036   -1.5685061335
 H    0.9474647495    2.1905010025   -0.3106210562
 H   -0.5749651831    1.9412071918   -1.1810129807
 H   -0.5841710933    2.2297120682    0.5716986696
 H    0.5433966288    0.1088916856    1.0027345099
 H   -1.9670631482   -0.1535731144   -0.7187940985
 H   -1.1917556050   -1.5454874557   -0.0259506182
 H   -3.5391443591   -1.7724156311    1.1751026934
 H   -3.8537229998   -0.6252786664    2.5147308933
 H   -4.1008195417   -0.1449943971    0.8142351372
 H    1.9219199817    0.1023425157   -1.1399478505