18

 C    0.1135049847    1.5571764489    0.0567039911
 C   -0.0148917534    0.0739918266   -0.0216766686
 C    0.7742145411   -0.9515734602   -0.8122421175
 N    0.7750222641   -0.9388500759    0.6921578687
 C   -0.4890827445   -1.6577646765    1.0968655448
 C   -1.2491398003   -0.9458818737   -0.0337134710
 C   -2.7268135946   -0.6802898970   -0.0542025352
 C   -0.5310909289   -1.5180986597   -1.2767666665
 O   -0.9287382938   -1.9845148098   -2.3081102916
 H    1.1692689405    1.8401938663    0.0980146315
 H   -0.3387180282    2.0355537678   -0.8179229351
 H   -0.3797916976    1.9500198642    0.9521102734
 H    1.7257633834   -0.8503875107   -1.3159298073
 H   -0.4326555127   -2.7523682124    1.0727739971
 H   -0.7622070445   -1.3190939373    2.0998922066
 H   -3.0511072707   -0.1263444421    0.8327630175
 H   -3.0145901269   -0.1106160189   -0.9434187962
 H   -3.2793121076   -1.6256820095   -0.0812792815