24

 C   -0.0128860167    1.6595905632   -0.0633442409
 C   -0.1538632437    0.1328693684   -0.0497495028
 C    0.6602661801   -0.5271556690   -1.1541642695
 N    2.1630938210   -0.3368066326   -1.1086632296
 C    2.6631113880   -1.0791665615    0.0653760388
 C    2.3091665261   -1.8485485665   -1.1393855703
 C    0.7984651220   -2.0898488973   -1.2739503368
 C    0.1381630885   -2.9773186478   -0.2180570526
 C    0.4315299760   -2.5780614926   -2.6777815308
 H    1.0334461328    1.9542616787    0.0591635029
 H   -0.3643898520    2.0794375229   -1.0121389146
 H   -0.5941146186    2.1182208846    0.7423254158
 H    0.1323458283   -0.2526440022    0.9350759438
 H   -1.2065791927   -0.1471741886   -0.1868381918
 H    0.3285371695   -0.1132623392   -2.1127704457
 H    3.7174375509   -0.8944625862    0.2491692336
 H    2.0628369515   -1.1502001855    0.9673991379
 H    3.0604666919   -2.3264740019   -1.7628168780
 H    0.3813434009   -2.6735551948    0.8032437053
 H   -0.9530133408   -2.9592550300   -0.3188359052
 H    0.4614504366   -4.0177062112   -0.3384755186
 H    0.7257734751   -3.6246756377   -2.8192236586
 H   -0.6495327640   -2.5112337731   -2.8447760294
 H    0.9304545194   -1.9821199702   -3.4486889829