17

 O   -0.3159335964    1.5109173754   -0.2128177402
 C    0.0549364511    0.1502452140    0.0154456443
 C   -1.1722499354   -0.8086080863    0.2000863238
 C   -1.4110265290   -1.5587771590   -1.1488878011
 C   -0.0722203601   -1.4108753287   -1.8116501445
 N    0.4998163631   -1.9485897606   -2.8789249883
 N    1.7152368906   -1.3439637013   -2.9040496664
 C    1.9148569167   -0.4549265273   -1.8927753828
 C    0.7527031582   -0.4790669049   -1.1527954793
 H   -0.6430803018    1.5715945938   -1.1169688840
 H    0.6542086114    0.1866618105    0.9296974651
 H   -0.9302930971   -1.5402376668    0.9777071611
 H   -2.0413739461   -0.2412103869    0.5407936265
 H   -1.7071008866   -2.6000304976   -0.9952006120
 H   -2.2041036414   -1.0906512520   -1.7442935948
 H    2.3651570209   -1.5989224460   -3.6286445971
 H    2.8416509718    0.0889318236   -1.7990512305