18

 C   -0.2369544838    1.4666023631   -0.0741021040
 N   -0.1279949664    0.0266200218   -0.0022931916
 C    0.5689900232   -0.6234229995   -0.8487215629
 N    0.6280706865   -1.9929702552   -0.8646995835
 C    0.0652448234   -2.7701827870    0.2246472740
 C    0.0938385857   -4.2426876289   -0.1503686817
 O    1.4471327189   -4.5753302420   -0.4400088574
 C    1.3498272787   -0.0068507484   -1.9193640712
 N    1.9716572569    0.5011844138   -2.7513654922
 H    0.3558768631    1.9333550913   -0.8730366148
 H   -1.2880695336    1.7443195492   -0.2184197675
 H    0.0729959135    1.8982490542    0.8846102692
 H    1.4221221023   -2.4199347304   -1.3192452339
 H    0.6235643958   -2.6095357919    1.1583450858
 H   -0.9617709525   -2.4420926581    0.4033805642
 H   -0.2975496355   -4.8373582234    0.6875761584
 H   -0.5503869443   -4.4132282039   -1.0251118615
 H    1.4738345083   -5.4595959850   -0.8160127794