20

 C   -0.0742454134    1.5936202775   -0.0127013011
 C    0.0316713626    0.0762140773   -0.0740068056
 C   -1.1804441101   -0.5916001649    0.5709485242
 C    0.6604185400   -0.8333558350   -1.0828534373
 C    2.0109388570   -0.5420433470   -1.7659911984
 C    2.6185929308    0.7731310960   -1.5168302466
 O    1.9945839743    1.9826351459   -1.8138870038
 C    2.5211326201   -0.2114205958   -0.3488929495
 N    1.2422321335   -0.6921343416    0.3050298505
 H    0.8671678045    2.0525278914    0.2826970875
 H   -0.3753506525    2.0280323955   -0.9662484921
 H   -0.8206664115    1.8622667615    0.7410566477
 H   -2.0960543073   -0.3029561492    0.0432425809
 H   -1.0947169499   -1.6806186312    0.5568657739
 H   -1.2722418098   -0.2730988523    1.6140883546
 H    0.1484013553   -1.7545751641   -1.3505219729
 H    2.3993611481   -1.2507712722   -2.4880401090
 H    3.6692821669    0.7630270273   -1.8244950984
 H    2.4268752202    2.6778371881   -1.3057762263
 H    3.4304087911   -0.5251730172    0.1519414719