17

 C   -0.0078030072    1.4660946469   -0.0030968172
 C    0.0102583824    0.0148836816    0.0092862316
 C    0.0238014923   -1.1955399793    0.0195844860
 C    0.0392707815   -2.5542336960    0.0296113483
 C    0.0428548214   -3.7656100625    0.0481681379
 C    0.0969285345   -5.2061382527    0.0333857157
 C    1.1990557055   -5.8181030779   -0.8074603780
 C   -0.4725197335   -5.9547533875    1.1761114074
 O   -1.1813237427   -5.8719051660   -0.0542217064
 H    1.0006768501    1.8747331449    0.1271267070
 H   -0.4029880471    1.8495804791   -0.9505602530
 H   -0.6342906943    1.8612986634    0.8044816339
 H    2.1804831108   -5.4909049407   -0.4516852456
 H    1.1451474545   -6.9083650621   -0.7576004476
 H    1.0949638719   -5.5096116677   -1.8515275913
 H   -0.0574190392   -6.9328816500    1.4187164643
 H   -0.9091675711   -5.4077594035    2.0095237168