18

 C   -0.1390940113    1.4739312298    0.0278994579
 C   -0.0108882154   -0.0393842465    0.0384223759
 C   -1.2773260889   -0.7590560019   -0.3793236165
 N    1.2833812665   -0.5616027274   -0.3455873532
 C    0.9337548259   -0.6827452947    1.0827467878
 C    1.6808055387    0.1992794527    2.0333277868
 O    1.5529128265    0.1406032574    3.2318053502
 C    0.6029837505   -2.0371882551    1.6148733039
 O    0.4125063742   -3.0002959916    0.9062276224
 H    0.8196661975    1.9666864430    0.1928561656
 H   -0.5167715630    1.7965798947   -0.9484065660
 H   -0.8487457630    1.8116943991    0.7895321428
 H   -1.4995812770   -0.5002263135   -1.4210443890
 H   -1.1853964152   -1.8424121056   -0.3070479966
 H   -2.1275868332   -0.4325168667    0.2278104199
 H    1.1815371363   -1.4947940325   -0.7497324492
 H    2.3787548157    0.9111543041    1.5461605610
 H    0.5769005750   -2.1023611455    2.7173866363