21

 C    0.0476939467    1.5386818260    0.0676501639
 C    0.0227946578    0.0112163730    0.0005058466
 C    0.6454997965   -0.6072983006    1.2546989235
 O   -1.3715959309   -0.3438422157   -0.0834050691
 C    0.7384459442   -0.5147625159   -1.2589151132
 N    0.0397239667   -0.0819531973   -2.4504723437
 C    0.6631418918   -0.0806147704   -3.6741504008
 N   -0.1949952913    0.1689490724   -4.7433156085
 O    1.8522877042   -0.2970606114   -3.8234404006
 H    1.0747444345    1.9020822157    0.1636689547
 H   -0.3849812537    1.9690565998   -0.8379204233
 H   -0.5297964972    1.8845292426    0.9289351938
 H    0.1158488536   -0.2647661379    2.1479360231
 H    0.5913627815   -1.7022345524    1.2207100360
 H    1.7005916016   -0.3324094970    1.3503920851
 H   -1.4407581194   -1.2945103282    0.0601168296
 H    1.7667458148   -0.1502071180   -1.3140690271
 H    0.7944004251   -1.6146363453   -1.2032166729
 H   -0.9649367186   -0.1594299952   -2.4005847627
 H   -0.9881732663    0.7685864890   -4.5690597867
 H    0.3095819784    0.4004946168   -5.5858573578