21

 C    0.0884995817    1.4711381621   -0.1545178510
 C   -0.0375664635    0.0142832174    0.1813047939
 C   -1.1721838648   -0.6787701742    0.1883946178
 C   -2.5570387968   -0.5891750678   -0.4256341908
 C   -2.3611876707   -2.0937843794   -0.8248194249
 C   -1.2555435171   -2.1767178281    0.2842323692
 O   -0.0653907144   -2.9166789111    0.1390967847
 C    1.0580912017   -2.1677772857   -0.3090033684
 C    1.2114453053   -0.8181151976    0.4169006442
 H    0.7416966627    1.6254328333   -1.0237167676
 H   -0.8836255086    1.9224649020   -0.3708179882
 H    0.5402090959    2.0299222667    0.6756068241
 H   -3.3596717460   -0.4649024986    0.3092284785
 H   -2.7070411438    0.1322903112   -1.2320751665
 H   -3.2175972034   -2.7653794658   -0.7315122705
 H   -1.9256938882   -2.1829583476   -1.8226102358
 H   -1.7180277669   -2.5144011885    1.2218152870
 H    1.9230589247   -2.8136303022   -0.1300885727
 H    0.9952128652   -1.9795041194   -1.3925277327
 H    2.0962228621   -0.3037294691    0.0229618010
 H    1.3967226149   -0.9940400176    1.4844537687