17

 C   -0.0963853790    1.5302279612    0.0087725143
 C    0.0790153534    0.0330591717    0.0108288820
 C   -0.7699553940   -0.8541508386    0.9339509648
 C    0.7183675085   -0.7732781420    1.1130273284
 N    1.5030769043   -1.8165662806    0.4922013171
 C    1.2887290692   -1.8953032749   -0.8777768825
 N    1.6302690643   -2.7781357627   -1.7269692704
 C    0.5112707636   -0.6326675179   -1.2640556186
 O    0.3355299354   -0.2263613049   -2.3814135037
 H    0.8283168286    2.0339096182   -0.2894065048
 H   -0.8735222129    1.8162472922   -0.7058484809
 H   -0.3842684071    1.8978652869    0.9978288608
 H   -1.4081476063   -0.3147768517    1.6261581578
 H   -1.1903150146   -1.7767918998    0.5473551767
 H    1.1572039659   -0.2939845661    1.9811392798
 H    1.6461715501   -2.6769593113    1.0024005263
 H    2.1325493204   -3.5526319898   -1.2855998472