19

 N    0.1042273263    1.4940014900   -0.4384260956
 C   -0.0146032651    0.0821436599   -0.0852545550
 C   -0.0672605661   -0.2142796963    1.4470823803
 C   -1.2651526879   -1.1695981178    1.2070601318
 C   -1.4480549419   -0.5605124049   -0.2098888887
 C   -2.5749108474    0.4575216360   -0.3000922602
 O   -3.7864290357   -0.2760502090   -0.1868422555
 C    0.9944426636   -0.7509903384   -0.7608002589
 N    1.7986439809   -1.3708894539   -1.3157559437
 H    0.9768458878    1.8626420479   -0.0680904073
 H    0.1575046403    1.6026793750   -1.4481734551
 H    0.8370147749   -0.6270061424    1.8965148461
 H   -0.3515397458    0.6968365165    1.9782178613
 H   -0.9633413095   -2.2183344778    1.1764968590
 H   -2.1217948393   -1.0709887482    1.8746956506
 H   -1.5580917274   -1.2810780376   -1.0230382471
 H   -2.4797083042    1.2069898900    0.4980720655
 H   -2.5189823381    0.9979821184   -1.2571933935
 H   -4.5166138854    0.3495049129   -0.1902635841