13

 N    0.0246219050    1.3715824014    0.1391680455
 C   -0.0375521332   -0.0016327060    0.0482190226
 C   -1.1719410118   -0.7406897185    0.0214673365
 O   -1.1737906631   -2.1046191812   -0.0132385976
 C   -0.0016636003   -2.7493399320   -0.0180511199
 C    1.1945834818   -2.1255331524   -0.0023016385
 C    1.2789838955   -0.6798368956    0.0182348795
 O    2.3183914561   -0.0246777906    0.0005256459
 H    0.9560684269    1.7058550715   -0.0793932115
 H   -0.7262714358    1.9064100214   -0.2672529269
 H   -2.1792782426   -0.3467337877    0.0290632657
 H   -0.1405363731   -3.8232733939   -0.0400356676
 H    2.1096299544   -2.7039408566   -0.0183611235