15

 C   -0.0180434829   -1.1946302934   -0.0279504350
 C    0.0069739006    0.0052440636    0.0348854694
 C    0.0401769617    1.4527660720    0.0650817483
 C   -0.3150231779    2.0899306156    1.4376541589
 O    0.6636733097    1.4793144440    2.3185001485
 C    1.6228377761    2.2926370569    1.6496729305
 C    0.6122189219    3.3919042546    1.3215242763
 O    1.0578032156    3.5345852735   -0.0263009486
 C    1.4399401338    2.1346309230    0.0665439840
 H   -0.0413470948   -2.2553006419   -0.0706753400
 H   -0.5437396536    1.8834659562   -0.7536690411
 H   -1.3359571778    2.0596809202    1.8103167658
 H    2.6049325595    2.3720638508    2.1097531706
 H    0.3870483090    4.3075798584    1.8637466479
 H    2.2030320790    1.8216257266   -0.6413265856