17

 C    0.1581618278    1.5258502361    0.2044512865
 C   -0.1100259695    0.0181030248    0.0598366256
 C    0.5383157701   -0.7469173264    1.1998110474
 C    1.1923361656   -2.0452312635    1.0048080336
 O    1.9613509889   -0.8480623476    1.1569545408
 C   -1.6177448209   -0.2471711095    0.0964877587
 N   -2.1513795040   -0.7888397722   -1.0356136601
 O   -2.2875175973    0.0022203894    1.0813988621
 H    1.2340226128    1.7080718811    0.2672618916
 H   -0.2401934930    2.0823260526   -0.6493506126
 H   -0.3214067000    1.9041945312    1.1110185002
 H    0.3241424286   -0.3406662598   -0.8808289196
 H    0.1245148359   -0.5178345231    2.1812748064
 H    1.2565525156   -2.7515054475    1.8309583824
 H    1.2188508338   -2.4920433999    0.0112563657
 H   -1.6121230555   -0.9312565246   -1.8707365076
 H   -3.1479245692   -0.9321605910   -1.0706699812