21

 C    0.5764207991    0.6664668891   -0.5134324787
 O   -0.1080084364   -0.4158278444    0.0695758772
 C   -1.5125507288   -0.2229289077    0.1957523326
 C   -2.2586140470   -0.4517297021   -1.1471795847
 C   -2.7774140718   -1.9143559648   -1.1144840892
 C   -2.1492607317   -2.5456428404    0.1592952762
 C   -2.0270980180   -1.3342706492    1.1125339757
 C   -2.8970591673   -3.6706620701    0.6975306071
 C   -3.5296705470   -4.5910112869    1.1438651670
 H    1.6405348461    0.4172927860   -0.5078673293
 H    0.2692165159    0.8544224229   -1.5534845991
 H    0.4260453356    1.5957740916    0.0589070575
 H   -1.7017591084    0.7791731622    0.6079217007
 H   -3.0862276351    0.2552445242   -1.2560616514
 H   -1.5807756375   -0.2761930317   -1.9864566040
 H   -3.8670733145   -1.9354314538   -1.0214299210
 H   -2.5213953856   -2.4795025030   -2.0134460889
 H   -1.1313782951   -2.8760931898   -0.0801143218
 H   -1.3561009018   -1.5102352363    1.9552553306
 H   -3.0168675625   -1.0721772916    1.5016892439
 H   -4.0805476381   -5.4089462843    1.5368691896