19

 O   -0.0634680227    1.4352015322   -0.2003924160
 C    0.0410760895    0.0364307816    0.0420327494
 C   -1.3642047679   -0.5264520899   -0.0138304756
 C   -2.1160777269   -0.5931367084   -1.3692901570
 C   -2.6769146078   -1.9777190594   -0.9494196894
 C   -1.5469938154   -2.0720921836    0.1299330949
 O   -0.3776710003   -2.7066878613   -0.3824019437
 C   -1.9045271663   -2.6066673114    1.4373314637
 C   -2.2108668160   -3.0724325137    2.5034327614
 H    0.8267894865    1.7937888836   -0.2572812179
 H    0.6694034319   -0.4578107493   -0.7104155269
 H    0.4839796815   -0.1681784946    1.0299434703
 H   -1.9815048651   -0.0241027489    0.7361384665
 H   -2.8379788931    0.1979794681   -1.5743310610
 H   -1.4234765058   -0.6680266257   -2.2109942960
 H   -3.6665853660   -1.9116977353   -0.4917508894
 H   -2.6710443579   -2.7817676884   -1.6890674950
 H   -0.5210693157   -3.6582420616   -0.3361152529
 H   -2.4771655325   -3.4741532140    3.4498962246