15

 N    0.0604915555    1.3447779520   -0.1333687920
 C   -0.0034474372   -0.0242600026   -0.0809131071
 C   -1.2194029593   -0.7090114235   -0.0563996370
 C   -1.1449062114   -2.1049560527   -0.0549066814
 N   -2.2671259831   -2.8899035379   -0.0783614494
 N    0.0251407987   -2.7663748813   -0.0688342491
 C    1.1022967413   -1.9975898222   -0.0926121136
 O    2.2748722689   -2.6555583074   -0.1068922078
 N    1.1771771834   -0.6671793081   -0.0948600976
 H    0.9606410225    1.7377491623    0.0926693533
 H   -0.7375512606    1.8672156752    0.1875148086
 H   -2.1683005990   -0.1867822938   -0.0577592452
 H   -3.1358700862   -2.4929362006    0.2375619498
 H   -2.1124480723   -3.8598016986    0.1481174899
 H    2.9567353087   -1.9708688908   -0.1246567513