17

 O   -0.5045855083    0.4502621966    0.0739362458
 C    0.0409581376    1.4906075518    0.3286503837
 C    1.4262027054    1.8805814022   -0.1194861927
 O    2.1670706005    0.8438159880   -0.7620777269
 C    2.4271973512    1.6646288050   -1.9188707535
 C    1.5229615052    2.7916926906   -1.3905055656
 C    0.3122804060    3.3478721297   -2.1658108069
 C    0.9606210915    4.7202510243   -1.9031803532
 O    2.0811177439    4.0936269885   -1.2318006696
 H   -0.4654158810    2.2921374765    0.9187297227
 H    1.9678322437    2.3359911618    0.7243305262
 H    3.4800215570    1.9632470771   -1.9936693430
 H    2.1074006949    1.1789746220   -2.8481594492
 H    0.2807448679    3.0417721111   -3.2129463785
 H   -0.6687087040    3.1814686420   -1.7196295133
 H    1.2814414959    5.2827797474   -2.7858236257
 H    0.4097156425    5.3875094754   -1.2310782204