19

 O    0.2062451015    0.1645906962   -0.6377663717
 C    0.2262969960    1.3504003137   -0.4976850640
 O    1.0154646207    1.9671333717    0.3985899360
 C    0.9792282273    3.4014291639    0.4749554645
 C    2.3367980816    3.9719357546    0.1053245489
 C    2.8125388664    3.9388488587   -1.3883272242
 C    3.0211826041    5.4581525195   -1.3332723502
 C    1.7257743073    6.1436807605   -1.0168893311
 C    2.4971288567    5.4995509248    0.1060149924
 H   -0.3967707505    2.0589429891   -1.0794846147
 H    0.1876474286    3.7871727644   -0.1794049110
 H    0.7188593196    3.6587897835    1.5073044170
 H    3.0898196044    3.5033625484    0.7445729657
 H    3.7323623715    3.3663154048   -1.5164730941
 H    2.0833033462    3.5910233104   -2.1288053693
 H    3.8623607802    5.9901339571   -1.7593716617
 H    1.7579215392    7.2284389546   -1.0204746236
 H    0.7829300338    5.7336880007   -1.3717429166
 H    2.8578089053    6.0811084137    0.9459332877