20

 O   -0.0823587602   -0.0275173261    0.1728735638
 C   -0.0023439238    1.1850164126    0.1558478325
 N    1.1448056120    1.8903724599   -0.0173598374
 C    2.4225084889    1.1898103641   -0.1844242599
 C    3.4435008996    2.0559573054   -0.9626557816
 C    3.1385395494    3.5571243565   -0.8142063074
 C    2.5180568499    3.8425450176    0.5867742714
 C    1.1818133475    3.3445131646   -0.0358285950
 C    1.7275670667    3.8433794784   -1.4038031438
 H   -0.8803585013    1.8501170872    0.2832741599
 H    2.8253037119    0.9429300627    0.8058372278
 H    2.2195263841    0.2392922156   -0.6803023032
 H    4.4469160555    1.8277982734   -0.5885629530
 H    3.4355427452    1.7958762971   -2.0271974626
 H    3.9742614142    4.1742740867   -1.1505217450
 H    2.9095793159    3.3163508500    1.4606823065
 H    2.4724068762    4.9132666133    0.7977210047
 H    0.2329688856    3.7342482682    0.3376703528
 H    1.5483419346    4.9129400749   -1.5419560434
 H    1.4167466479    3.2944066379   -2.2966338271