17

 C    0.0119873062    1.5288348611   -0.1154034610
 C   -0.0096148571    0.0335885123    0.0534579116
 O    1.2730766439   -0.6570083383   -0.0690437783
 C    0.6284476526   -0.6556962495    1.1635148970
 C    1.1379493600   -0.1914677424    2.5588276843
 O   -0.0673944208   -0.8351212901    3.0854137111
 C    0.2030396669   -1.8503206125    2.0639353513
 C    1.5758622535   -2.3804928597    2.5001709136
 C    2.2116061933   -1.2536631409    2.8353998889
 H    0.8482304167    1.9723356751    0.4306881651
 H    0.1103210285    1.7965380318   -1.1723814610
 H   -0.9207819946    1.9648729740    0.2579419622
 H   -0.8191574710   -0.4855660142   -0.4617273388
 H    1.2777454162    0.8436340081    2.8643279942
 H   -0.6235836225   -2.5266983052    1.8551675202
 H    1.9116276067   -3.4063648006    2.4892828190
 H    3.2204218616   -1.0854864291    3.1807087206