16

 C   -0.0282073370    1.5461869710    0.0880622684
 C    0.0138997357    0.0284040298    0.0220209645
 C   -1.1419472206   -0.6426821933    0.5531456027
 N   -2.0659191887   -1.1916424987    0.9841161760
 C    0.6927174088   -0.7066173425   -1.1472163881
 N    1.3582904845    0.1118474804   -2.1308971713
 C    1.3615956860   -0.7084328136    0.2006869290
 O    2.5121553727    0.0365900261    0.3498272712
 H    0.9657914161    1.9629394408   -0.0739963632
 H   -0.7151154507    1.9636820465   -0.6547250422
 H   -0.3692140389    1.8642451296    1.0766150964
 H    0.1967168847   -1.6178907909   -1.4761349694
 H    1.8737232972   -0.4719628908   -2.7816492619
 H    0.6993851528    0.6607521613   -2.6730623959
 H    1.3542724890   -1.6105912118    0.8025664625
 H    2.6664130286    0.4480058961   -0.5179538289