16

 N   -0.0797779716    1.3265299198   -0.1277829257
 C   -0.0333678629    0.0614015405    0.0036389644
 C   -1.3057234132   -0.7469892530    0.1078762556
 C   -1.1329898724   -1.9786730974    1.0021298485
 C    0.0227594580   -2.8396409772    0.4840243635
 C    1.3052669277   -2.0519040546    0.2808504565
 O    2.4115367756   -2.5442256312    0.3050181827
 N    1.1467848920   -0.6901240757    0.0472708581
 H    0.8538421868    1.7356206379   -0.2111612672
 H   -2.0920309743   -0.0781169132    0.4599863428
 H   -1.5860901834   -1.0693571282   -0.9043673036
 H   -0.9297713719   -1.6640782491    2.0326377534
 H   -2.0578968640   -2.5619449892    1.0252130338
 H    0.2623042004   -3.6724677329    1.1485956540
 H   -0.2406507660   -3.2782985391   -0.4879361135
 H    2.0238600690   -0.1951280573   -0.0605464133