21

 C   -0.0147236075    1.6341737208    0.1374548363
 C    1.4707233535    1.9469484638    0.0363150571
 C    2.2202751102    0.8898412522    0.3613151841
 C    1.3361817408   -0.2608093582    0.7917375562
 C    1.6699589032   -1.7292359654    0.5462915266
 C    0.5421192722   -2.5958647458    1.1633040323
 C   -0.8425685476   -1.9884976038    1.0654218362
 C   -1.1034755492   -0.7662097803    0.5957198215
 C    0.0157582331    0.0924915668    0.0807666611
 H   -0.4237544324    1.9991164949    1.0923553337
 H   -0.6137755805    2.0867436154   -0.6598966959
 H    1.8479293099    2.9285921450   -0.2284078020
 H    3.3037958785    0.8732925153    0.4094319730
 H    1.1694847623   -0.1535125127    1.8788815576
 H    1.7421970112   -1.9159134650   -0.5324699285
 H    2.6347185499   -2.0116383326    0.9825125706
 H    0.5367359019   -3.5906723769    0.6990863448
 H    0.7606092811   -2.7804834543    2.2259040585
 H   -1.6583527169   -2.6145616294    1.4213540527
 H   -2.1266967097   -0.4013691072    0.5444279479
 H    0.1696309660   -0.1478809025   -0.9838471338