19

 C   -0.8378350157    1.1031275494    0.3664604958
 N   -0.1871560485   -0.1998001982    0.2434703277
 C    0.9683768313   -0.3145166430   -0.6074999594
 C    1.1270138873   -0.4396257858    0.8819515069
 C    1.8633009400    0.6377686162    1.6087034438
 O    1.9799069643    1.7749042916    1.1799205866
 C    2.4667640718    0.2628545054    2.9264273673
 C    3.9111942149    0.6280840923    3.1170964741
 N    2.8681023406    1.3614083427    3.8157016945
 H   -0.1520181363    1.9561872338    0.3207034339
 H   -1.5657613592    1.1827085590   -0.4466847837
 H   -1.3834423924    1.1368446163    1.3143826225
 H    1.0335616294   -1.2129869365   -1.2161496611
 H    1.3787846415    0.5924866431   -1.0478748136
 H    1.2092413654   -1.4297397751    1.3230553664
 H    2.0782435983   -0.6236784066    3.4177357460
 H    4.5317870116   -0.0131946762    3.7362273342
 H    4.4100923554    1.1020705138    2.2762590531
 H    2.6833697204    2.2260360577    3.3041819349