20

 C   -0.1201361000    1.5215357554   -0.0325465155
 C    0.0871209839    0.0298439857   -0.0071677042
 N   -0.7022720029   -0.8121708592    0.9462767157
 C    0.7652956125   -0.7244339263    1.1059738905
 C    1.5605910347   -1.8461999012    0.4684433981
 C    1.1511970833   -3.3614927784    0.3486808154
 C    1.3182732692   -3.2566207581   -1.2149221881
 C    1.1662220247   -1.7703045868   -0.9886138902
 C    0.3309064928   -0.7672677818   -1.2625498545
 H    0.7157645335    2.0252083633   -0.5296127985
 H   -1.0353722532    1.7837702901   -0.5765860964
 H   -0.2063429616    1.9296234409    0.9801523762
 H   -1.1260966485   -0.1999953579    1.6427295947
 H    1.1550963770   -0.1962236470    1.9703030648
 H    2.6346377953   -1.7475765399    0.6623495147
 H    1.7866483019   -4.0862508613    0.8624478373
 H    0.1058007163   -3.5008980200    0.6270450212
 H    2.3262657701   -3.5547249983   -1.5226618343
 H    0.5843871219   -3.7562374608   -1.8505982569
 H   -0.2654361208   -0.6395236782   -2.1590863400