19

 C    0.0627688427    1.5547172428    0.2574420010
 C   -0.0081972885    0.0465212011   -0.0459904346
 C   -1.4000751048   -0.4948427885   -0.0878662492
 C   -2.2525519449   -0.7271990175   -1.1554330280
 O   -1.9062227731   -0.4958245616   -2.4497279183
 C   -2.8861485767   -0.8399397478   -3.4099096500
 C   -3.4521455153   -1.2176833721   -0.5925065738
 N   -3.3626145245   -1.2880499516    0.7373212537
 N   -2.1261751596   -0.8451503547    1.0110167616
 H    1.1013610370    1.8999650114    0.2679598020
 H   -0.4813676199    2.1269166364   -0.4992786326
 H   -0.3801399004    1.7853240074    1.2317087181
 H    0.4545972569   -0.1512805099   -1.0179281274
 H    0.5823795395   -0.5053864290    0.6967614215
 H   -2.4600365482   -0.6101605668   -4.3880584183
 H   -3.1349641864   -1.9089507753   -3.3650942325
 H   -3.8067204579   -0.2568511309   -3.2710195966
 H   -4.3618903556   -1.5224874254   -1.0856536730
 H   -1.8207494502   -0.8217270377    1.9692639064