19

 C   -0.0329121963    1.4365479122    0.0386936739
 N   -0.0011060863   -0.0088370382    0.0263627054
 C   -0.0289686857   -0.7956574874   -1.1047378260
 C    0.0075134913   -2.1183616718   -0.7302309838
 C   -0.0038497957   -3.3068971553   -1.6438856631
 C    0.0590451956   -2.1264796849    0.6950143419
 C    0.0525459285   -0.8219262241    1.1386771462
 C    0.0924290707   -0.2707873479    2.5256985083
 H    0.8504969812    1.8523800881    0.5359305025
 H   -0.0485426184    1.7994853274   -0.9904184912
 H   -0.9248972728    1.8156983585    0.5505148261
 H   -0.0722943191   -0.3439579045   -2.0841750639
 H    0.8936617988   -3.9251820417   -1.5211647951
 H   -0.8659093404   -3.9583249516   -1.4559064172
 H   -0.0485504313   -2.9981362041   -2.6927632967
 H    0.0980134805   -2.9992849736    1.3313714034
 H    0.9707354496    0.3639846864    2.7020344697
 H   -0.7924856757    0.3334438523    2.7649386876
 H    0.1324078956   -1.0925202897    3.2442854020