21

 C    0.0892448152    1.6232682199    0.1753065509
 C    0.0138346794    0.0806359810    0.0926575699
 C    0.5702316924   -0.4303491973   -1.2476946591
 C    0.8790101386   -1.9319400671   -1.2123483127
 C    1.9035682361   -2.2649629441   -0.1196002906
 C    1.6019997040   -1.5509960713    1.1698296125
 C    0.7575581507   -0.5243326091    1.2697866235
 C   -1.4613691936   -0.2888802782    0.2615400501
 O   -2.1463409801   -0.8415115958   -0.5599223719
 H    1.1344606277    1.9462316222    0.1822048927
 H   -0.4110554282    2.0851394378   -0.6820763963
 H   -0.3839167424    1.9997522862    1.0891840125
 H   -0.1521255979   -0.2126730424   -2.0397238244
 H    1.4868393696    0.1273250112   -1.4774914921
 H   -0.0501891306   -2.4796323190   -1.0245067560
 H    1.2480633951   -2.2620441251   -2.1888932201
 H    1.9365972265   -3.3470822223    0.0579310074
 H    2.9182589181   -1.9942427665   -0.4495827733
 H    2.1205586345   -1.8977480569    2.0611807192
 H    0.5788072291   -0.0627144591    2.2391531439
 H   -1.8847092040    0.0108112060    1.2491778038