14

 N    0.0263223980    1.3721524616    0.0856361337
 C   -0.0836466364    0.0267705418    0.0317873705
 C   -1.2302603042   -0.7186711178    0.0201818269
 C   -1.1126815835   -2.1348009291   -0.0039307886
 O   -2.2649429362   -2.8436726274   -0.0085971381
 N    0.0058616822   -2.7982303420   -0.0210035247
 N    1.1295639467   -2.0218115126   -0.0176802810
 C    1.2258523236   -0.6610022146    0.0017620049
 O    2.2948387701   -0.0553613635   -0.0111022391
 H    0.9621985607    1.7330273310   -0.0324142082
 H   -0.7634168878    1.9731623258   -0.0662922135
 H   -2.2175289607   -0.2723152142    0.0340734267
 H   -2.0151159625   -3.7775108116   -0.0248928426
 H    1.9974743500   -2.5374828375   -0.0412616671