22

 C    0.6529955317    1.4841000224   -0.1486857429
 C   -0.0596519353    0.1567296272    0.1125022179
 C    0.1148420434   -0.8792894063   -1.0074934439
 C    1.4294310404   -1.5772063184   -0.6174061120
 C    1.4706995597   -1.4435689896    0.9277695210
 O    0.4644224826   -0.4882828088    1.2805167633
 C    1.2067769645   -2.7463049626    1.6633567967
 C    0.6085121076   -2.7527707307    3.0162099075
 N   -0.1676426981   -3.2313667618    1.8510927739
 H    1.7041931162    1.3295680770   -0.4139204435
 H    0.1706613438    2.0237097315   -0.9705975266
 H    0.6170431323    2.1129997025    0.7450035223
 H   -1.1169427496    0.3540459580    0.3221018632
 H   -0.7162315105   -1.5908094837   -0.9905051617
 H    0.1485469845   -0.4265910243   -2.0015579620
 H    1.4600132856   -2.6211864112   -0.9366060196
 H    2.2881268710   -1.0709943520   -1.0669235912
 H    2.4518973358   -1.0646460891    1.2484990003
 H    1.9202481330   -3.5294419312    1.4103864757
 H    0.8864626655   -3.5221443805    3.7309024410
 H    0.3345927243   -1.7938400784    3.4447260350
 H   -0.7963009784   -2.4756655199    1.5829255156