13

 N   -0.0297778853    1.0254601914    0.9553739823
 C   -0.0048968352    0.0268123335    0.1950669165
 C   -1.1165550692   -0.8696937215   -0.3450811226
 C    0.0544762441   -1.7640787730   -0.9259537178
 N    0.9759715411   -0.7099562446   -0.4875705050
 C    0.2195261613   -3.0454672293   -0.2237780429
 N    0.3686969026   -4.0313046058    0.3591537446
 C    0.0317945208   -1.9771547144   -2.3799514090
 N    0.0025627544   -2.1223746676   -3.5249317892
 H    0.8991100896    1.3974180227    1.1555949266
 H   -1.7282080029   -1.3646753755    0.4077037907
 H   -1.7427811768   -0.4228229447   -1.1168940914
 H    1.9489132655   -0.8457914512   -0.2477307728