20

 C    0.1661697124    1.4447085027   -0.5112193905
 C    0.0966907467    0.0138267070   -0.2499817147
 C    0.0522435352   -1.1703710086   -0.0275077223
 C   -0.0298751019   -2.5915219943    0.2381390543
 C   -0.0292584408   -3.1159926358    1.7166118671
 C   -1.1168185163   -4.1576030815    1.3266819582
 C   -1.3826010826   -3.3272210289    0.0700525357
 C   -2.6453775800   -2.7045554326   -0.3707818159
 N   -2.0089697066   -3.7886002757   -1.1561514311
 H    1.0706159659    1.8837314275   -0.0753306144
 H    0.1845051480    1.6538691316   -1.5866892443
 H   -0.6948636506    1.9723538399   -0.0860940538
 H    0.7394496771   -3.1279574608   -0.3328095731
 H    0.9221887694   -3.4935946686    2.0940055786
 H   -0.4114681384   -2.3550781711    2.3994874777
 H   -0.6915204575   -5.1357111699    1.0823270510
 H   -1.9493674171   -4.2972187785    2.0191938697
 H   -3.5840838797   -2.9793260246    0.1035594788
 H   -2.5986610981   -1.6873381729   -0.7505806921
 H   -1.5306701652   -3.3939943248   -1.9637763490