13

 N    0.0236331220    1.3447021728   -0.1225872015
 C   -0.0182994922   -0.0208258579   -0.0235948881
 N   -1.1169942455   -0.7328169481    0.0015967926
 C   -0.6503713166   -2.0365427241   -0.0045735387
 N   -1.1952200709   -3.2298956115    0.0124977873
 O   -0.0851261526   -4.0926156150   -0.0005067981
 C    1.0820393433   -3.3911132158   -0.0095281352
 C    0.7748678455   -2.0773728863   -0.0183223402
 N    1.1766998648   -0.7463134901    0.0172495726
 H    0.7622079708    1.8071481581    0.3872669473
 H   -0.8824616124    1.7699598302    0.0132928450
 H    1.9827422714   -3.9815078600   -0.0208701384
 H    2.0522011126   -0.3859087224   -0.3239490445