21

 C   -0.5591484097    1.2865055875   -0.3320005542
 C    0.4380332048    1.7024291731    0.7288776821
 C    0.4460262911    0.2949946829    0.2104600145
 N    0.1778901059   -0.8078223130    1.1029478809
 C   -1.1602189140   -1.0430167493    1.6250760765
 C   -0.5720205033   -1.9741270303    0.6183236737
 C   -1.0863822965   -2.0895114439   -0.7889818397
 C   -2.2832889498   -2.9256465962   -1.0659616843
 N   -2.3285675701   -1.4680215118   -1.2716528056
 H   -1.5987773462    1.2128822238   -0.0363107473
 H   -0.4230087443    1.6349037948   -1.3498279367
 H    1.2548711612    2.3635134818    0.4614828826
 H    0.0537918689    1.8521994215    1.7326876757
 H    1.2616821091    0.0430928763   -0.4616233857
 H   -1.2159045717   -1.3270576028    2.6730024050
 H   -1.9706830647   -0.3939580439    1.2994077971
 H   -0.1517021470   -2.9099285638    0.9875287988
 H   -0.3006854281   -2.0847765853   -1.5431726220
 H   -2.3386093266   -3.5232201099   -1.9713696954
 H   -2.8104188493   -3.3444010833   -0.2120428754
 H   -2.8250163395   -1.0383019182   -0.4959965806