14

 C   -0.3163948389    1.3039098906   -0.4167898681
 N   -0.8625796357   -0.0249596123   -0.2297920604
 C   -0.6280805414   -0.7574718818    0.8854692109
 O    0.0488849349   -0.3890974029    1.8270678930
 C   -1.2871415724   -2.1546137923    0.9211581267
 C   -2.0846713912   -2.5374272786   -0.2337352733
 C   -2.7384940722   -2.8290036420   -1.2005917638
 H    0.3340238762    1.3457573669   -1.2974640367
 H   -1.1123783965    2.0475086163   -0.5343298957
 H    0.2691367585    1.5450153062    0.4711837496
 H   -1.4406945148   -0.4335583880   -0.9475791876
 H   -0.4734805975   -2.8708545249    1.0815053715
 H   -1.8932863391   -2.1818775913    1.8336231378
 H   -3.3204010098   -3.1056413460   -2.0449693037