21

 C   -0.0116060040    1.5278002402    0.0118211142
 C   -0.0016468790    0.0305173589   -0.0293248825
 C    0.0787418306   -0.7486581365   -1.1223073367
 C    0.0226603682   -2.2449540606   -0.8268705552
 C   -0.0149057435   -2.2751866482    0.6955576738
 C    1.1326406681   -1.7149826586    1.4815964483
 C   -0.0511836177   -0.8230318096    1.1931374730
 C   -1.2319102297   -1.1450545182    2.1337845347
 C   -1.1989418792   -2.6263885637    1.6183517455
 H    0.8416643825    1.9134263259    0.5836441050
 H    0.0206247487    1.9623239878   -0.9910778562
 H   -0.9137187342    1.9012189235    0.5128792506
 H    0.2087190370   -0.3677025165   -2.1319175094
 H   -0.8751853236   -2.7058244438   -1.2623187595
 H    0.8777198898   -2.7824316316   -1.2579256540
 H    1.3019615068   -2.0646694613    2.4977726557
 H    2.0370367740   -1.4899702314    0.9270381277
 H   -1.0538688442   -0.9874669466    3.2025713605
 H   -2.1530601276   -0.6276098458    1.8568166480
 H   -2.1008367520   -2.8896099272    1.0601443901
 H   -1.0155201309   -3.4072206067    2.3644301665