20

 C   -0.2972114491    1.4942697224   -0.0571762084
 C    0.0391475468    0.0065135581   -0.0050683272
 C    0.9354124962   -0.4848609699   -1.1505023392
 O    1.4737745153   -1.7151317237   -0.6971096195
 C    1.8283346669   -1.4970638157    0.6565897889
 C    0.7746701635   -0.5246901603    1.2655754523
 C    1.4360176722    0.5388536300    2.1438092182
 O   -0.2184797494   -1.2239934491    2.0217598603
 H    0.6003105531    2.1213591993   -0.0364391393
 H   -0.8395328671    1.7293921331   -0.9791975852
 H   -0.9357269889    1.7889808392    0.7809610145
 H   -0.8909523409   -0.5689844633   -0.0433834363
 H    0.3948267394   -0.6716972358   -2.0820228298
 H    1.7401513036    0.2442787585   -1.3589718677
 H    1.8343242085   -2.4614550053    1.1723426853
 H    2.8375025928   -1.0557404657    0.7203943856
 H    2.1420427105    1.1544036669    1.5784437131
 H    0.6848326850    1.1926536574    2.5939974344
 H    2.0013084056    0.0618768367    2.9548268901
 H    0.1847845761   -1.5139456327    2.8472723899