19

 C   -0.0671567049   -1.1967538964   -0.0476443212
 C   -0.0456869210    0.0041786846    0.0033567078
 C    0.0097692075    1.4596445986    0.0708990488
 C    1.4463845126    2.0185802515    0.0244167506
 C    2.2091656984    1.6933761351   -1.2872996129
 C    3.1992366781    2.8629530653   -1.5035724675
 C    2.5284111098    4.0360017388   -0.8169851281
 O    1.1347555071    4.1742561483   -1.1385062521
 C    1.4964738076    3.5350909155    0.0961002732
 H   -0.1000731846   -2.2568459373   -0.0955030889
 H   -0.5588860041    1.8935906061   -0.7612944269
 H   -0.4845456055    1.7976001341    0.9912712782
 H    2.0007293695    1.6259289915    0.8871637050
 H    2.7036022792    0.7215104689   -1.2448788624
 H    1.4966221516    1.6596568228   -2.1152699487
 H    4.1613393540    2.6730520813   -1.0114549665
 H    3.4052509435    3.0493789139   -2.5620647730
 H    3.0584750369    4.9703309485   -0.6491280955
 H    1.1935606945    4.0613267888    0.9989811801