17

 C   -0.0218417275    1.5148709145    0.0190307086
 C   -0.0082217966    0.0202773324    0.0002129313
 C   -0.0264330701   -0.7971460417   -1.0708995222
 C   -0.0024297596   -2.2547099007   -0.6550274070
 N    0.0316486341   -2.1306139952    0.7972374848
 C    0.0660725234   -2.8972734569    1.9180873140
 N    0.0852771638   -2.1506836983    3.0067113337
 C    0.0623769842   -0.8431288562    2.5731827741
 C    0.0287753839   -0.8088871197    1.1985846502
 H    0.8680005536    1.9076603092    0.5241724259
 H   -0.0522258914    1.9253638135   -0.9929469390
 H   -0.8911998711    1.8910708628    0.5703276871
 H   -0.0545755958   -0.4933789416   -2.1087385761
 H   -0.8911735391   -2.8052862535   -0.9879968928
 H    0.8794502513   -2.7883872174   -1.0309878312
 H    0.0757859037   -3.9765975064    1.8949540849
 H    0.0714708332   -0.0207093047    3.2714601839