18

 C   -0.0126540903    1.5304495762    0.0128348642
 C    1.4176223597    2.1116567913    0.0723791173
 O    2.2525343523    1.5097791907    1.0772308239
 C    2.2323223972    0.1437226877    0.8440340549
 O    3.0705129493   -0.6208612011    1.7183348038
 C    2.3947235259   -1.8134997143    1.7779309353
 N    1.1898330890   -1.8791511810    1.3741785969
 C    0.8614603891   -0.4679246587    1.0794794264
 C   -0.0511804447   -0.0203248196   -0.0489887761
 H   -0.5625001069    1.8594262650    0.9023318029
 H   -0.5191011560    1.9662877073   -0.8549750524
 H    1.9050541998    1.9946287353   -0.9090212078
 H    1.3915827249    3.1764513662    0.3118541087
 H    2.5801773034   -0.0647159017   -0.1876007644
 H    2.9735370658   -2.6330682469    2.1882939199
 H    0.4679936558   -0.0386746496    2.0145564200
 H   -1.0751465412   -0.3867708385    0.0653830829
 H    0.3239790567   -0.3833275483   -1.0136889066