21

 C   -0.0404318437    1.4179103322    0.0496507681
 C    1.4190746813    1.9494636065   -0.0201915711
 C    2.2106641334    0.7170000215    0.4276786035
 C    3.6752563533    0.4900639430    0.0732423028
 C    4.0325208921   -0.9377568676    0.5316448327
 O    3.1586275947   -1.9287476841    0.0078210773
 C    1.7909505726   -1.7432981050    0.3571093723
 C    1.3570560332   -0.3902404181   -0.1857607612
 O    0.0255253296   -0.0183223391    0.1116769405
 H   -0.5643447627    1.7667055574    0.9464738050
 H   -0.6264451059    1.7247053072   -0.8257702563
 H    1.6840968135    2.2268902691   -1.0463366173
 H    1.5710001472    2.8268656348    0.6132315285
 H    2.1040556404    0.6249475235    1.5193548831
 H    3.8300831816    0.5814136050   -1.0088285741
 H    4.3406618574    1.2094731307    0.5646553497
 H    5.0337279432   -1.2217000819    0.1957603477
 H    4.0225689258   -0.9743682235    1.6347073933
 H    1.2413652061   -2.5734909499   -0.0941291288
 H    1.6458694448   -1.7796254061    1.4492160793
 H    1.5191912221   -0.4089455058   -1.2788687050