16

 N    0.7237488408    0.7772152027   -1.0245333113
 C    0.2411282220   -0.3335303975   -0.3296989347
 C   -1.0670858059   -0.7644391026   -0.1864480740
 N   -1.0472398076   -1.8156552136    0.6784999767
 N    0.1863131050   -2.1244143822    1.0991648273
 C    0.9733184613   -1.2336021277    0.4943886905
 N    2.3410542403   -1.2753369146    0.8115536455
 C    3.4098498388   -0.9843827538    0.0183437738
 N    3.3281533337   -0.4959981996   -1.1623445240
 H    1.6647313094    0.5868370513   -1.3765673467
 H    0.1082933116    1.0539283397   -1.7786126885
 H   -1.9840160557   -0.3916655608   -0.6140870853
 H   -1.8251500032   -2.3582793415    1.0078619354
 H    2.5352592325   -1.8026533950    1.6484044220
 H    4.3530695009   -1.2096251028    0.5287290962
 H    4.2559079961   -0.3344502520   -1.5427840428