17

 O    0.0466829584    1.3207437452    0.2705934876
 C    0.0413825997   -0.0216586273    0.0441642079
 C    0.0180588397   -0.7950273928   -1.0927364155
 C   -0.0113674378   -2.1765665229   -0.6763159550
 C    0.0112231518   -2.1667997807    0.6893355523
 N    0.0458882866   -3.0607231447    1.7878071680
 C   -0.1986023253   -2.2040562217    2.9717107899
 C    0.1821776422   -0.7497686389    2.5623779316
 N    0.0254895607   -0.8548855605    1.1266675751
 H   -0.0316168337    1.7658924269   -0.5783862282
 H   -0.0152642473   -0.4278729355   -2.1074653214
 H   -0.0439960178   -3.0414006917   -1.3190486424
 H    0.9465324535   -3.5248271309    1.8581449196
 H   -1.2656433264   -2.2391743116    3.2166472428
 H    0.3616350212   -2.5622005853    3.8372615066
 H   -0.4889145153   -0.0061156169    2.9987234858
 H    1.2138256098   -0.4870921508    2.8331160353