17

 O    0.0532130226   -0.0778088103    0.0202414779
 C    0.0503715332    1.1219662686    0.1160263011
 C    1.2888765361    1.9858698509    0.1081190662
 C    1.2528220907    3.0846823574   -1.0302131638
 C    1.3926207439    4.3672245742   -0.1841245193
 C    2.4772106210    3.9427283843    0.8602554373
 C    1.3992046201    2.9155685464    1.3470687760
 C    0.4179868360    4.0487336625    0.9662378537
 O   -0.5480898716    4.5545988291    1.4514118037
 H   -0.9049440943    1.6899929390    0.2122852405
 H    2.1579907981    1.3303308119    0.0207117081
 H    2.0795070652    2.9535829708   -1.7316349939
 H    0.3193250860    3.0642467535   -1.6012958315
 H    1.4019846755    5.3271391734   -0.6950031392
 H    3.4001801418    3.5191263011    0.4579532957
 H    2.6927396252    4.7158902581    1.5993115471
 H    1.4176569407    2.4581524690    2.3337019005