13

 C   -0.0532183520    1.4586831954    0.0105500762
 C    1.4026440431    1.8839142139   -0.0011876134
 C    2.2140758792    0.8108905260   -0.0149202884
 C    1.3930871396   -0.3905055948   -0.0136135574
 C    1.3007526878   -1.7661037178   -0.0200811935
 N   -0.0236574209   -2.1013845119   -0.0100223698
 N   -0.7608570981   -1.0165451374    0.0038562055
 N    0.0951470604    0.0121386774    0.0010985517
 H   -0.5899839391    1.7958736959    0.9043395133
 H   -0.6071477159    1.8057234166   -0.8688832427
 H    1.7010989334    2.9229547316    0.0017083439
 H    3.2942709167    0.8189659479   -0.0252377636
 H    2.0704863256   -2.5194418629   -0.0315304018