21

 O   -0.2266670797   -0.0378776208   -0.2466768724
 C   -0.0057443634    1.1387715123   -0.1135231633
 C    1.3527445676    1.7871895432   -0.2513153450
 C    1.3660652199    2.8718383367   -1.3319720791
 C    0.5617907641    4.1900447995   -1.0966339426
 C    1.7680057853    4.9620173084   -1.6462452509
 C    1.7453424517    5.8735003233   -2.8391610583
 C    2.1208822195    6.4062355801   -1.4728054673
 C    2.6613931815    3.7241238889   -1.4914245288
 H   -0.8335881075    1.8491570143    0.1193830080
 H    1.6068537213    2.2464210868    0.7156342308
 H    2.0894975730    1.0058046083   -0.4630226348
 H    1.0888226151    2.4311017828   -2.2948295940
 H   -0.3897177436    4.2983772918   -1.6243150438
 H    0.3934420573    4.3837709573   -0.0305677209
 H    2.5320909304    5.7689455155   -3.5799518227
 H    0.7813726934    6.1573453071   -3.2501208184
 H    1.4106802411    7.0497116235   -0.9626840831
 H    3.1605256259    6.6614938777   -1.2921925648
 H    3.2510426619    3.7451748451   -0.5676425841
 H    3.3239974151    3.4696646883   -2.3231715343