14

 N   -0.5059776111    1.2404500886    0.2683352260
 C    0.2488643517    0.0253055557   -0.0858174399
 C    0.9118492531   -0.5249092455    1.1359712055
 N    2.1504222395   -0.9239550804    1.1800548481
 O    2.3670064597   -1.3667700426    2.4478681015
 N    1.2333803971   -1.2214965812    3.2336542221
 C    0.3304970030   -0.7113166649    2.4357749327
 N   -0.9746801977   -0.4482182376    2.7736521916
 H    0.1386324310    2.0026509101    0.4572108180
 H   -1.0784548743    1.5311781853   -0.5175586086
 H   -0.4760488494   -0.7086415559   -0.4592330932
 H    1.0049808165    0.1633537686   -0.8704671341
 H   -1.1511448377   -0.4023170116    3.7668840788
 H   -1.3550421115    0.3271671413    2.2420777116