17

 O    0.0003631880    1.4504420186   -0.0214696334
 C    0.0130339296    0.0451991619   -0.0362188312
 C   -1.4364865548   -0.4938781813   -0.0477732181
 O   -1.4561302202   -1.8893868341   -0.2691765182
 C   -0.9786814685   -2.2587851843   -1.5508046664
 C    0.2642299100   -1.5198292111   -1.9573180739
 C    0.7257435007   -0.4802132824   -1.2663545630
 C    0.7328368062   -0.4634208867    1.2077816081
 O    1.2620734265    0.2947677423    1.9850667671
 H    0.4963609305    1.7055456762    0.7743015934
 H   -1.9308284953   -0.3174712605    0.9115447351
 H   -1.9842044735    0.0569605309   -0.8264651251
 H   -0.7935924060   -3.3382926750   -1.5077267681
 H   -1.7630877124   -2.1006406829   -2.3128965125
 H    0.7537149728   -1.8521719710   -2.8689556465
 H    1.6145554846    0.0672886792   -1.5644135587
 H    0.7373370519   -1.5596250398    1.3484792115