21

 O   -0.1706781548    1.4539062740    0.0971960270
 C   -0.0232166376    0.0586197123   -0.1119655547
 C   -1.3863416191   -0.5859175997    0.1035815109
 C   -1.3582963429   -2.0950853420   -0.0898853210
 O   -2.6621781959   -2.5964548731    0.1276608456
 C   -2.7553865182   -3.9922845457   -0.0272351197
 C   -4.2113368201   -4.3992270548    0.2016327369
 C   -4.3753766762   -5.8985547681    0.2937650741
 O   -5.1262750387   -6.5541935769   -0.3804300050
 H    0.6850513150    1.8707940582   -0.0386545049
 H    0.3360840974   -0.1559468677   -1.1321629233
 H    0.7114447855   -0.3738502164    0.5875751158
 H   -1.7360360338   -0.3560270278    1.1155076579
 H   -2.1065962732   -0.1448303027   -0.5932781684
 H   -1.0176938975   -2.3510625690   -1.1081807238
 H   -0.6484314015   -2.5650108239    0.6131284623
 H   -2.4273554432   -4.2959717933   -1.0354487297
 H   -2.0965337367   -4.5072582661    0.6945922416
 H   -4.5279129107   -3.9668782037    1.1611662862
 H   -4.8609578014   -4.0092187481   -0.5849971138
 H   -3.7311970263   -6.3832836455    1.0657124462