17

 O   -0.1200116748   -0.0202926002    0.2549452014
 C   -0.0360617576    1.1676565891    0.1187508778
 C   -1.2291953183    2.1825067608    0.1238527862
 C   -0.5943193132    3.4600094493    0.6566718996
 C    0.7300234925    3.3579583816    0.5479487471
 C    2.0707668415    3.6338310098    1.1793875837
 C    2.2804641967    2.5322179139    2.2023903829
 C    2.5189170233    2.2099205427    0.7583084809
 C    1.2020620030    2.0635407264   -0.0481993969
 H   -1.6273032262    2.2664285377   -0.8980824309
 H   -2.0470493727    1.8077229589    0.7481450897
 H   -1.1620178023    4.2388512826    1.1523104133
 H    2.6342285400    4.5573124621    1.2004007929
 H    3.1820630889    2.6294939000    2.7998838232
 H    1.4302255707    2.1220665776    2.7392829076
 H    3.4883039222    1.8924790141    0.3971302860
 H    1.4154862164    2.1512357636   -1.1226806745