17

 C   -0.0766262766    1.4220459340   -0.2990215452
 C   -0.1019795203   -0.0315212995    0.1943115997
 N   -1.4357799927   -0.6101292589    0.1529724447
 C   -1.7889582599   -1.2054691395   -0.9121465165
 N   -1.1367239239   -1.4855031280   -2.1169202182
 N   -2.0045597974   -2.0846276006   -3.0588657794
 C   -3.0813401846   -2.2885772256   -2.3816579291
 O   -4.1868260132   -2.8998873433   -2.8150071428
 N   -3.0298628254   -1.8259243346   -1.0988351984
 H    0.9250231407    1.8532618239   -0.1971749360
 H   -0.3705889319    1.4945608152   -1.3525066621
 H   -0.7770154284    2.0307550561    0.2801071622
 H    0.6297001381   -0.6290526541   -0.3764184656
 H    0.2371201706   -0.0520179490    1.2364906445
 H   -0.4647493325   -0.8466036281   -2.5072200932
 H   -4.0240944443   -3.1654921973   -3.7299429055
 H   -3.7582487780   -1.8503727407   -0.4075758489