18

 C   -0.1241309011    1.6150517649   -0.0976743628
 C    0.1818818437    0.1312993781    0.0373843683
 C    1.4513148448   -0.6972421019   -0.1788217940
 O    1.5385508486   -1.6880570153   -1.1415207302
 C    2.7288436576   -0.1848816880    0.5589280177
 N    2.4470282888    1.0955908637    1.2586135393
 C    2.0163658103   -0.1981784047    1.8495721802
 C    0.7198651298   -0.7119522990    1.1680454169
 O    0.0219601438   -1.6716302779    1.8796475418
 H   -0.2026463025    1.8890291608   -1.1568735464
 H   -1.0925134362    1.8360745083    0.3666928610
 H    0.6398004787    2.2297029747    0.3684343206
 H   -0.6063416514   -0.4723592823   -0.4295198483
 H    1.5942832998   -1.2670378538   -2.0075598488
 H    3.7342340348   -0.5104322248    0.3240413414
 H    3.3043348824    1.3687148435    1.7414127084
 H    2.3450611025   -0.5296350396    2.8255502889
 H   -0.6769464845   -2.0221901164    1.3174226060