22

 C   -0.0550947402    1.5295321194    0.1523213113
 C   -0.0989534518    0.0143032203    0.1587092603
 C   -1.4177235051   -0.5714628178   -0.3115223005
 N    1.1550730754   -0.6237802812   -0.3068458325
 C    0.7806541724   -0.7366953110    1.1025931791
 C    1.6092673762   -0.1881124065    2.2744321443
 C    0.9422856949   -1.2545105984    3.1880068871
 C    0.4909470656   -2.0188479098    1.9138179014
 O   -0.7592538731   -2.6635621553    1.8819185789
 H    0.9402260205    1.8951893920    0.4121698145
 H   -0.3030934301    1.9121372361   -0.8443208744
 H   -0.7792268496    1.9485417303    0.8607400685
 H   -1.6066887116   -0.2758305520   -1.3504838935
 H   -1.4248769352   -1.6609392621   -0.2475436885
 H   -2.2554559835   -0.1907881208    0.2859015242
 H    0.9403005294   -1.4979984918   -0.7853324697
 H    2.6790828292   -0.3612008770    2.1284475513
 H    1.4584241803    0.8580740476    2.5474375017
 H    1.5716033162   -1.7928919376    3.8988387891
 H    0.0774140027   -0.8461444263    3.7217920245
 H    1.2195512566   -2.7940331232    1.6489317280
 H   -1.4276247893   -2.0262007550    2.1551998547