22

 C    0.0010682603    1.5230720314   -0.0536050107
 C   -0.0202624238   -0.0061122885   -0.0025724906
 C    0.6534250857   -0.6781848150   -1.2217267089
 C    1.2226574419   -2.0362690482   -0.7315140500
 O    2.4003104615   -2.4392885243   -1.4074509562
 C    1.4212715511   -1.8270840396    0.7595844638
 N    2.1863032714   -0.5769343203    1.0134285443
 C    0.7119836512   -0.6068273961    1.2018558605
 C    0.1378703698   -0.4355961914    2.5843936383
 H    1.0337342757    1.8863773342   -0.0382715589
 H   -0.4762175207    1.8924568591   -0.9670397700
 H   -0.5288634619    1.9657123128    0.7965904642
 H   -1.0641409977   -0.3448191467    0.0626097559
 H   -0.0287537936   -0.7971432923   -2.0671675964
 H    1.4917416465   -0.0642761966   -1.5651962219
 H    0.5021677673   -2.8457646587   -0.8947486978
 H    3.0770640824   -1.7975650239   -1.1576524470
 H    1.5789529675   -2.6794166317    1.4135478780
 H    2.6349509507   -0.6454765613    1.9242177540
 H    0.1543462041    0.6149839855    2.8958239117
 H   -0.9034951728   -0.7745340124    2.6206966718
 H    0.7035846732   -1.0128760561    3.3233803358