18

 C   -0.0396023486    1.5688316869    0.0798571039
 C    1.4307084594    1.9814077331    0.0126408448
 N    2.2953931997    2.0324204310   -1.1913125660
 C    2.2417645525    0.8083981020   -0.4083321730
 C    3.1295532867    0.2163171997    0.6649884327
 O    2.1080261232   -0.4187350212    1.4726383236
 C    1.0808322760   -0.8541504578    0.5941337166
 C    0.0122417537    0.0523162270   -0.0690315221
 C    1.2951869849   -0.3278781856   -0.7778102144
 H   -0.4692967459    1.8983205963    1.0320232619
 H   -0.6579837594    2.0060871329   -0.7153421408
 H    1.8008287786    2.6244042955    0.8049183001
 H    1.7676458655    1.9055543186   -2.0530855757
 H    3.8465346873   -0.5347679968    0.3063383067
 H    3.6471549058    0.9542983276    1.2807684327
 H    0.7703476201   -1.8748165038    0.7931858128
 H   -0.9077866972   -0.4773427667   -0.3070408171
 H    1.4016888376   -0.9019321287   -1.6918039267