23

 C   -0.2293586505    1.0285297890   -1.8131270597
 C   -0.0180325821   -0.1974371163   -0.9497574590
 C    1.3430504349   -0.6328354947   -0.4415433805
 C    2.6218649323    0.1216158238   -0.7429715140
 C    0.2965555043   -0.1273452978    0.5317353877
 C    0.4376833950    1.1794094999    1.2774374185
 C   -0.8455589140    1.6169804429    1.9827204803
 C   -0.8246538794    3.0088309947    2.5933583434
 O   -1.8168635339    0.9014086386    2.0616862050
 H    0.4624200865    1.8423133681   -1.5808117934
 H   -0.0926837610    0.7854616343   -2.8728095013
 H   -1.2468818040    1.4173276440   -1.6929808867
 H   -0.6819138597   -1.0141706749   -1.2222530809
 H    1.4927960497   -1.7099643947   -0.4171830081
 H    2.4814311500    1.2049150416   -0.7731263623
 H    3.3850775009   -0.0861815132    0.0157328399
 H    3.0331377055   -0.1801840458   -1.7127469911
 H   -0.1915933751   -0.8851528627    1.1361320291
 H    1.2113643724    1.1020818782    2.0575969871
 H    0.7716661495    2.0030112509    0.6371001917
 H    0.0745421288    3.1594418279    3.2002555279
 H   -0.7990732950    3.7610757587    1.7959317237
 H   -1.7169220651    3.1620534376    3.2015290227