18

 C    0.1489545522    1.5892804168    0.2067153388
 C    0.1676367914    0.1047801442    0.0899707373
 C    0.7876573092   -0.8634949414   -0.8459358943
 C    1.2459574502   -1.7757741233    0.2875669048
 C    0.1371181918   -1.0930911541    1.1321357262
 C   -1.1321128155   -1.5332562145    0.3974764702
 C   -2.4359565154   -0.9647248599    0.9084552808
 O   -2.5451275309   -0.3109415698    1.9149819900
 N   -0.7216573314   -0.7100802733   -0.7982573632
 H    1.0669365174    1.9588562158    0.6766207588
 H    0.0655433567    2.0413401973   -0.7865194783
 H   -0.7005424942    1.9242677546    0.8102440100
 H    1.2385618627   -0.6922529156   -1.8151104284
 H    1.1911736575   -2.8622456049    0.1569635368
 H    2.2468223868   -1.4950032780    0.6254350001
 H    0.1866218369   -1.0332996668    2.2159848290
 H   -1.2637562506   -2.6038247860    0.1797292006
 H   -3.3128569250   -1.1798107812    0.2587037308