16

 O   -0.1513709969    1.4278185419   -0.0101475276
 C    0.0000881129    0.0780383372   -0.0159759638
 C    0.0348106423   -0.9948196232   -1.0728146008
 C    1.2919024538   -1.6356677320   -0.4996953410
 C    0.9298013227   -0.9396620913    0.8490199877
 C   -0.3917710048   -1.6428845286    1.2892547226
 C   -1.0329157867   -0.9959835730    0.0676929171
 C    1.9440391633   -0.5742702816    1.7935681190
 N    2.7639729252   -0.2503311220    2.5437472105
 H    0.5992052675    1.8349480233   -0.4594397106
 H   -0.2745667037   -0.9240440542   -2.1068878066
 H    1.3606506492   -2.7274221013   -0.4647774851
 H    2.2018904442   -1.2197137001   -0.9381317240
 H   -0.3519755203   -2.7346138870    1.3577332088
 H   -0.7799059614   -1.2216646507    2.2187672280
 H   -2.0835515571   -0.9089164372   -0.1730469143