17

 C    0.0456863387    1.5797938065    0.1453366762
 C    0.0044536036    0.0680995245   -0.1258760109
 C   -1.3947744636   -0.4876643793   -0.1165184695
 C   -1.9902200899   -1.0278821477   -1.2145791320
 N   -3.2674438342   -1.5060485742   -1.1351238077
 C   -4.0377301576   -1.4815420753    0.0304487679
 O   -5.1747548549   -1.9168725460    0.0658374487
 C   -3.2948024844   -0.8813693043    1.1441318789
 N   -2.0835627284   -0.4253603015    1.0756249259
 H    1.0779797420    1.9389253709    0.1943024662
 H   -0.4720291645    2.1356325367   -0.6432211374
 H   -0.4438268714    1.8068037876    1.0961564237
 H    0.4778592674   -0.1558130138   -1.0884569207
 H    0.5910275219   -0.4493855309    0.6430827356
 H   -1.5022981526   -1.1076484517   -2.1785580412
 H   -3.7186610707   -1.9106463163   -1.9444949484
 H   -3.8243248615   -0.8277390950    2.0929312147