15

 C   -0.0277114507    1.5739253794    0.0148572450
 C   -0.0058622004    0.0758225333    0.0413069565
 C   -0.0421951767   -0.7701610462   -1.0440762133
 N   -0.1639334634   -0.5339132603   -2.3947756373
 O   -0.0163754849   -2.0632022606   -0.6713526163
 C    0.0388872637   -2.0759513935    0.7121776374
 C    0.0506468315   -0.7881965682    1.1711394731
 C    0.0664361761   -3.3226486163    1.3556126561
 N    0.0930991929   -4.3449097630    1.9049398807
 H    0.9750056009    2.0076890465   -0.0893661776
 H   -0.6370740501    1.9486680378   -0.8147283167
 H   -0.4567462081    1.9735855389    0.9378798880
 H    0.2712649063    0.3197821631   -2.7119219507
 H    0.0808810247   -1.3264075407   -2.9719519938
 H    0.0874810882   -0.4941698102    2.2090220390