17

 C   -0.6667422841    1.4578529642    0.0919289635
 C    0.0536747111    0.0928440085    0.0197007954
 C    0.6283000792   -0.1083422118   -1.3617077062
 C    1.8971671238   -0.0249264127   -1.7470937997
 C    3.0631063746    0.3032700783   -0.8597718382
 O    3.1279676442   -0.3757692764    0.3986474900
 C    2.1153691268   -0.2774278568    1.2971616450
 N    0.8797773225   -0.0597641917    1.2014165149
 H    0.0512763323    2.2739485703   -0.0337403733
 H   -1.4232939112    1.5418321565   -0.6939524971
 H   -1.1510107256    1.5676374437    1.0652338958
 H   -0.7305539293   -0.6699801274    0.1410767457
 H   -0.1260522930   -0.3126895098   -2.1206769086
 H    2.1391437733   -0.1610288819   -2.7982225083
 H    4.0001283438    0.0342095453   -1.3534105763
 H    3.0992428899    1.3856456278   -0.6655734323
 H    2.5332093918   -0.4613018063    2.2887838797