14

 N    0.0134855536    1.2622470760   -0.1570046516
 C    0.0182702270    0.0268671983    0.0802541358
 O    1.1081940515   -0.7033671833    0.4786039614
 C    0.8686368367   -2.1138853101    0.3665237502
 C   -0.6393307163   -2.2865213160    0.2700589595
 O   -1.2905985621   -2.3109343591    1.5834360230
 C   -1.8717210114   -1.0807732630    1.3757724090
 O   -2.6243393667   -0.4998143289    2.0790579123
 C   -1.1907389373   -0.8784024653    0.0043289130
 H    0.9449781453    1.6625860461   -0.0353359445
 H    1.3643574306   -2.4925405845   -0.5352171714
 H    1.2874054914   -2.6095949821    1.2453277212
 H   -0.9730924789   -3.1258027876   -0.3381760671
 H   -1.8491965334   -0.6644153504   -0.8332185708