15

 O    0.0144783887    0.0302769758    0.0873524225
 C   -0.0185284326    1.2337044801    0.0501118417
 C   -1.2575488985    2.0912656417   -0.0723800240
 C   -1.5045407905    3.1713733422    0.9707817537
 C   -0.7575284928    3.5013132338   -0.2856159907
 N    0.7212531158    3.5183746394   -0.3345593356
 C    1.4327599350    3.2269149706    0.9082561690
 C    1.1879804540    2.1438025623   -0.0897437118
 H   -2.1031992236    1.6512462401   -0.5863017776
 H   -2.5267339030    3.5298813265    1.0304809668
 H   -1.0114560120    3.1185513844    1.9324944750
 H   -1.2107208281    4.1713638837   -1.0062295353
 H    2.4288509914    3.6568541420    0.9676210998
 H    0.9036458641    3.2085357067    1.8539594410
 H    2.0071329121    1.7593647506   -0.6909206045