19

 C    0.1002504289    1.4267532249    0.0451156763
 N   -0.1024377517   -0.0091615275   -0.0791258785
 C    0.5940519316   -0.6932125220   -1.0502307218
 N    1.2506858587   -0.0687734219   -2.0046122480
 O    1.7518972356   -1.0938250643   -2.8255370480
 C    1.3894540312   -2.2869846247   -2.3193750456
 C    1.8477522652   -3.4872931878   -3.0702736838
 C    0.6506098422   -2.1216542760   -1.1893925332
 C    0.0140206082   -3.1329223259   -0.2922862836
 H    1.1406705440    1.6973585999    0.2736911992
 H   -0.1662166859    1.9095479380   -0.8981314890
 H   -0.5530588208    1.8090364391    0.8327088079
 H   -0.1691266964   -0.5050268870    0.7967948486
 H    1.4974723104   -3.4557543816   -4.1071626453
 H    2.9414287866   -3.5411048344   -3.0948756024
 H    1.4692092122   -4.3996499673   -2.6050797309
 H    0.4390305831   -3.1119760099    0.7199565076
 H   -1.0638399007   -2.9573809974   -0.1928924238
 H    0.1487603277   -4.1479693041   -0.6751020958