17

 C   -0.2011511368    1.5746740819   -0.0055850663
 C   -0.0327136421    0.0608592257    0.0263393979
 O    1.0916214182   -0.3590073954   -0.7982585321
 C    1.8517022184   -0.8112322819    0.3348652893
 C    0.6746203733   -0.5451530546    1.3072964493
 C    0.9051731123    0.3091259728    2.4493185295
 C    1.1085336553    1.0214601241    3.3967134901
 C   -1.2616314069   -0.6283265124   -0.3472354558
 C   -2.2800941597   -1.1969656799   -0.6376696981
 H    0.7251485175    2.0639810258    0.3033176641
 H   -0.4500133995    1.8882829490   -1.0226695355
 H   -1.0052790423    1.8866064165    0.6663244867
 H    2.1539215988   -1.8593061540    0.2389559367
 H    2.7355398157   -0.1894949952    0.5155124605
 H    0.1803422167   -1.4685143249    1.6156768099
 H    1.2846147216    1.6467668884    4.2368639183
 H   -3.1773124606   -1.6998874959   -0.9030705545