20

 O   -0.4221492655    0.5013921576    0.7635921791
 C   -0.1770076789    1.5537246959    0.2205101448
 C    1.2115698408    2.0447228422   -0.0365927136
 C    1.4026228685    3.0699807974   -1.1376924707
 C    1.2141045364    2.4780816030   -2.5204049168
 C   -0.1461963110    2.4446102958   -3.1776759745
 C    0.9299609167    3.3635645710   -3.7036189648
 C    2.0873649734    2.0342094867    1.1868581999
 N    2.2776838730    1.0441824115    0.1359208787
 H   -0.9912639693    2.2318159887   -0.1115225479
 H    0.7002254795    3.9012913093   -0.9862444901
 H    2.4102962595    3.4909693874   -1.0492780378
 H    1.8518877048    1.6189525764   -2.7072846424
 H   -0.4165240437    1.5737211087   -3.7642300995
 H   -0.9815633419    2.9006603660   -2.6554203560
 H    0.8145418043    4.4278420027   -3.5240940422
 H    1.3966835289    3.1237856903   -4.6524774057
 H    2.8639547971    2.7904839303    1.2660136155
 H    1.6386413579    1.7200110757    2.1250396907
 H    1.8285489594    0.1735993936    0.4240812931