19

 C   -0.2363416228    1.5537358131    0.2794547127
 C    0.4262897037    0.2212352855    0.0065404205
 C    1.8839601133   -0.0069458871    0.3191857434
 C    0.8209611468   -0.7474139058    1.1019661833
 C    0.5780847023   -0.4560318481    2.5794630485
 C    1.5754991332   -1.2298592669    3.4110855488
 O    1.4092836884   -2.3539688885    3.8257424250
 C    2.9163777027   -0.5496742952    3.7321858621
 O    3.1839996451    0.5865446730    3.4404149893
 H    0.1826629333    2.0499832363    1.1594276497
 H   -0.0948024407    2.2312325973   -0.5695481923
 H   -1.3149260985    1.4421714991    0.4380521356
 H    0.0634586781   -0.2653894387   -0.8956442781
 H    2.4957053851   -0.5635104113   -0.3823934948
 H    2.4105024987    0.7871657192    0.8389789215
 H    0.6990446352   -1.7998906453    0.8604907907
 H    0.6951898833    0.6105219240    2.7836699391
 H   -0.4273858961   -0.7744529093    2.8710740873
 H    3.6079969290   -1.2178425513    4.2877933078