21

 C    0.1090199898    1.4644318315    0.1053934881
 N    0.1313166494    0.0176587905    0.1200329648
 C    0.4469244120   -0.6318018096   -0.9198490063
 C    0.8345050994   -0.1217168891   -2.2901157275
 O    0.4696658667   -1.9868996737   -0.9031994456
 C    0.1416301840   -2.6202506734    0.3398719588
 C    0.2515780325   -4.1040590006    0.1393164360
 C   -0.6430407569   -5.0039115390    0.9089621094
 N   -0.8191861449   -4.8459462020   -0.5432545362
 H    0.7860254509    1.8466914124    0.8788630759
 H    0.3904109773    1.9310543356   -0.8486623020
 H   -0.8957700254    1.8166839710    0.3686997146
 H    1.7397942759    0.4900977593   -2.2352427775
 H    1.0186549464   -0.9620472775   -2.9590725900
 H    0.0412815612    0.5007661643   -2.7138057040
 H    0.8244898846   -2.2642108271    1.1196607996
 H   -0.8721649724   -2.3311821753    0.6434418990
 H    1.2492345369   -4.4551568416   -0.1152687980
 H   -0.2879242069   -5.9801030246    1.2257439035
 H   -1.3686378913   -4.5492527430    1.5793779115
 H   -1.5998612591   -4.2211307381   -0.7331104842