17

 C   -0.0562180392    1.5290597268    0.0833369160
 C    0.0088591971   -0.0069743387   -0.0095692460
 C    0.6926477332   -0.4714253442   -1.2103523769
 C    1.2634718541   -0.8295989680   -2.2131794728
 C    1.9275563495   -1.2516086206   -3.3797829203
 C    2.5158749590   -0.5677592360   -4.4268379276
 N    3.0434758383   -1.4333608515   -5.3467160745
 C    2.7877890917   -2.6367746420   -4.8803072316
 N    2.1179395224   -2.5887516291   -3.6987340959
 H    0.9482522790    1.9601207994    0.0982750644
 H   -0.5909199197    1.9476351889   -0.7733352774
 H   -0.5760808690    1.8311849742    0.9970334148
 H    0.5164902888   -0.4057905484    0.8787190667
 H   -1.0090409274   -0.4181712210    0.0147738349
 H    2.5777888382    0.5023672461   -4.5497960178
 H    3.0609129551   -3.5697101053   -5.3504180705
 H    1.8073040089   -3.3663685707   -3.1404744253