16

 O    0.0840995804   -0.0255890886    0.0775919494
 C    0.0130740410    1.1715734496   -0.0198343792
 C   -1.2654182285    2.0050326030   -0.1932070449
 C   -0.8015619103    3.2325161928   -0.9732252349
 C   -1.3941726798    3.6630576048   -2.2441445516
 O   -1.6274560263    4.3885388620   -1.0302443710
 C    0.6673664243    3.4023821783   -0.6839698379
 N    0.9494939106    3.3230722719    0.7544265858
 C    1.1776063549    2.1232961422   -0.1017572059
 H   -2.0510275815    1.4266289275   -0.6805001083
 H   -1.6208635116    2.3126977824    0.7961417174
 H   -0.7841825138    4.1782228789   -2.9858625081
 H   -2.2535001416    3.1261141694   -2.6433364475
 H    1.2805460743    4.0280035901   -1.3235920195
 H    1.8540444789    3.7502985842    0.9424250749
 H    2.1804634190    1.7448332615   -0.2584340286