19

 O    0.0216414814    1.4793005840    0.0798291879
 C   -0.0073870433    0.0847587473    0.0314685627
 C    0.8387084511   -0.6841152326    1.0958191872
 C    0.4810622708   -2.1844581400    0.7898302302
 C   -0.4717199197   -1.9026168481   -0.3604044956
 C   -1.4437612421   -2.3860012098   -1.4605319095
 C   -1.4330628187   -0.8286411734   -1.5856913530
 C   -1.3524123381   -0.6466084959   -0.0393923668
 C    0.0913773537   -0.7560435182   -1.2648389887
 H    0.9416531504    1.7645137636    0.0787540557
 H    1.9101251240   -0.4828582625    0.9770112908
 H    0.5570630773   -0.3831914775    2.1095657416
 H    1.3551959254   -2.7743989108    0.4982773187
 H    0.0053691883   -2.6817003777    1.6403336023
 H   -1.0105831189   -2.9509160205   -2.2924297414
 H   -2.3791004690   -2.8484090142   -1.1282538508
 H   -1.9896498751   -0.2155385952   -2.2935789907
 H   -2.1802036396   -0.6328988870    0.6722351919
 H    0.9223211623   -0.8731320614   -1.9643735925