18

 C   -0.1326894008    1.5027569466    0.1847934413
 C    0.0793742390   -0.0062848766    0.0606182403
 N    0.7677080872   -0.5706583421    1.2089948822
 N    2.0614710146   -0.8506524985    1.1958783538
 C    2.3218862549   -1.2624837786    2.4371945838
 C    1.1237445938   -1.2012075547    3.1708748628
 O    0.9660559511   -1.5397565212    4.4570707933
 C   -0.3526455389   -1.3948065522    4.9782617020
 N    0.1474838076   -0.7567728028    2.3823750128
 H    0.8262451113    2.0229558069    0.2600008034
 H   -0.6628710020    1.8786578673   -0.6954206966
 H   -0.7264309755    1.7350091970    1.0725280326
 H   -0.8781002067   -0.5257948179   -0.0355423507
 H    0.6969838359   -0.2502023798   -0.8056283252
 H    3.3051572306   -1.5792491061    2.7412772443
 H   -1.0618593310   -2.0248556192    4.4311246412
 H   -0.2988331639   -1.7079882395    6.0215655895
 H   -0.6878132071   -0.3542655388    4.9133720991