13

 N   -0.1137638301    1.2960609979    0.0075221808
 C   -0.0193106939    0.0366295335    0.0004658428
 C   -1.1820173498   -0.9483715308    0.0020639342
 N   -0.5962031048   -2.2926052560   -0.0082307726
 C    0.6647918825   -2.1458469326   -0.0146710227
 N    1.1264780207   -0.8117607578   -0.0105049967
 C    2.4604791120   -0.4464335391   -0.0165694962
 O    3.3722818477   -1.2353392057   -0.0261614485
 H    0.7850225744    1.7778905944    0.0048567557
 H   -1.8134228286   -0.8120173301    0.8861912237
 H   -1.8235121944   -0.8029563907   -0.8733147557
 H    1.4007251095   -2.9397821999   -0.0230045794
 H    2.5993847249    0.6487152170   -0.0120472455