18

 N   -0.2676178173    1.2548138488   -0.0059735400
 C   -0.0703238832    0.0009509150    0.0091928390
 N    1.1188475324   -0.7288198439   -0.0366816458
 C    0.8133324820   -2.0843359806   -0.0027604305
 N   -0.4251424520   -2.3788374635    0.0520586730
 C   -1.1508249239   -1.0894717145    0.0791604188
 C   -2.0418077196   -0.9728029779    1.2964889338
 C   -3.2256454565   -0.0432460289    1.2691293820
 C   -3.4377096150   -1.5367863323    1.2594998838
 H    0.6071753738    1.7800721635   -0.0566391181
 H    2.0437673325   -0.3333456328   -0.0562839353
 H    1.6185558109   -2.8123399864   -0.0280899104
 H   -1.7770072956   -1.0246234176   -0.8197441289
 H   -1.5060774014   -1.0570879921    2.2376028778
 H   -3.4584325977    0.5086844480    2.1724536975
 H   -3.4091302724    0.5102235236    0.3553316207
 H   -3.7693061334   -2.0020783778    0.3372768331
 H   -3.8186925436   -2.0127771906    2.1559142797