20

 C   -0.6549222135    1.3126345119    0.1631196202
 C    0.0004441139   -0.0784695942   -0.0339691930
 C    0.6882251821   -0.1311310672   -1.3820760609
 C    1.9381052230    0.1781631775   -1.7273901225
 C    3.0693270062    0.6283969938   -0.8380625834
 C    3.1088574589   -0.0035039476    0.5477964581
 O    1.9858051199    0.3301413756    1.3722681715
 C    0.8401733862   -0.4118552440    1.1790557174
 N    0.4292510921   -1.2459656957    2.0369865606
 H    0.1114990925    2.0865284455    0.2544554983
 H   -1.2903282601    1.5572239314   -0.6930054980
 H   -1.2708038430    1.3208593793    1.0670404791
 H   -0.7972032970   -0.8260378492   -0.0330792686
 H    0.0090311287   -0.4011122728   -2.1888671633
 H    2.1807140934    0.1313169051   -2.7870048467
 H    4.0249600628    0.3996710556   -1.3265716927
 H    3.0456585463    1.7220595196   -0.7273199062
 H    3.1909010089   -1.0955957427    0.4687661529
 H    3.9805188096    0.3640062883    1.0969735380
 H    1.0969451692   -1.2948303102    2.8107278593