16

 C   -0.6352962056    1.2021237228   -0.5585288677
 N   -1.0678791008   -0.1073070684   -0.1114600143
 C   -0.3732221009   -0.8317858967    0.7975016123
 O    0.6621013880   -0.4749199107    1.3260306914
 C   -0.9750094207   -2.2103414604    1.1635145908
 C   -2.2120564025   -2.5894819822    0.5073497784
 C   -3.2445759392   -2.8950410394   -0.0480916924
 C   -4.4043131293   -3.2376376331   -0.6719482829
 C   -5.4331995767   -3.5404722723   -1.2266288325
 H   -0.4517968516    1.2110518113   -1.6384172842
 H   -1.3829795500    1.9674749315   -0.3237794718
 H    0.2927932431    1.4370620000   -0.0363718955
 H   -1.9160384339   -0.5039316930   -0.4848657355
 H   -0.1899338494   -2.9477079133    0.9584097921
 H   -1.1033729527   -2.2052352419    2.2523448319
 H   -6.3378357478   -3.8107086344   -1.7125349702