15

 C   -0.0187619534    1.3738499479    0.0829665360
 N    0.0008680441   -0.0651735231   -0.0834272542
 C    0.6376376934   -0.6346728197   -1.1452528819
 N    1.1605319830    0.0586177373   -2.0862179983
 C    0.6591558512   -2.1194352650   -1.1324529863
 N    1.1751506969   -2.9085411644   -2.0287943738
 C    0.9149746412   -4.1446841117   -1.4996503158
 N    0.2847757211   -4.1440586168   -0.3556058334
 O    0.1083092339   -2.7783285540   -0.1027276146
 H    0.9884687731    1.7820030348    0.2328535342
 H   -0.4354805032    1.8470711797   -0.8102890668
 H   -0.6408285019    1.6203591805    0.9452521263
 H   -0.2458716596   -0.6516363749    0.6942472911
 H    1.5509420446   -0.5593786988   -2.7953626254
 H    1.2022868658   -5.0698251118   -1.9775990271