12

 O   -0.0314454575   -0.0553252000   -0.0038073009
 C    0.0086713179    1.1465888689    0.0055400541
 C    1.2537124461    1.9578621309   -0.0002910065
 N    2.4483075900    1.3952612213   -0.0168461939
 O    3.3493955037    2.4258938313   -0.0176167988
 C    2.6884974217    3.6150309014   -0.0013538643
 C    1.3449510477    3.3750654353    0.0110759811
 C    3.4545742824    4.7943512853    0.0004742589
 C    4.1040536204    5.8068803044    0.0021708415
 H   -0.9154493154    1.7645221302    0.0196902160
 H    0.5483599970    4.0996696012    0.0255561132
 H    4.6796871560    6.7002229199    0.0036570797