16

 C    0.0078457529    1.5471393593    0.0307770209
 C    0.0081045126    0.0435682351    0.0087272777
 C   -1.1484838331   -0.6987142455    0.0369099553
 N   -2.4060199835   -0.1992330393    0.1129114931
 O   -1.1390324830   -2.0299015096    0.0224169457
 C    0.0842917175   -2.7529586833   -0.0060799434
 N   -0.0770431428   -4.0087996033    0.0027982448
 N    1.2574291443   -2.0398515422   -0.0440170903
 C    1.1894779995   -0.7367987001   -0.0353538748
 H    1.0342268508    1.9237528147    0.0077063893
 H   -0.5095132730    1.9838491986   -0.8347469053
 H   -0.4649913698    1.9538619923    0.9339797276
 H   -2.5556863916    0.7710173151   -0.1030105401
 H   -3.1668489995   -0.8371843768   -0.0573218451
 H    0.8453605092   -4.4398475546   -0.0231562689
 H    2.1448481195   -0.2088414803   -0.0659076063