20

 C    0.0114751093    1.5334804338    0.0716196492
 C    0.0375599900    0.0160748070    0.0247777476
 C    0.6834267574   -0.5457844236   -1.2450974820
 C    0.9452392485   -2.0296416905   -1.1383944317
 N    0.9057784420   -2.7878385402   -2.1503383232
 O    1.3238349324   -2.4823892821    0.0958543147
 C    0.7689536968   -1.8296197248    1.2556575737
 C    1.5938614617   -2.2561569012    2.4481570122
 O    0.7953546659   -0.4438370841    1.1469561716
 H    1.0282981234    1.9335745292    0.0130519387
 H   -0.5674317550    1.9306687891   -0.7672934085
 H   -0.4423311474    1.8795422960    1.0039313796
 H   -0.9900845834   -0.3754790387    0.1147685285
 H    0.0769008752   -0.3607759660   -2.1332930521
 H    1.6502985381   -0.0457355579   -1.3858333315
 H    1.1481054461   -3.7430921796   -1.8768128090
 H   -0.2765351232   -2.1749671010    1.3414975326
 H    2.6193028375   -1.8977941702    2.3304996592
 H    1.1692047786   -1.8329822782    3.3612679319
 H    1.6022271963   -3.3453471972    2.5256607586