23

 C    0.1429555016    1.5619962269    0.0693465905
 C    0.0321326718    0.0329628621    0.0337132488
 C   -1.4054002268   -0.5272036770   -0.0168307147
 C   -2.2291386996   -0.0289369320    1.1920932724
 C   -2.1500014470   -0.2130178982   -1.3071301902
 C   -2.8535923916   -1.2528870257   -1.7554122239
 C   -2.6911360089   -2.4586243717   -0.8587155020
 C   -1.4274761859   -2.0985575424   -0.0377939176
 O   -0.2683616611   -2.6686200147   -0.6301362424
 H    1.1945308676    1.8655400846    0.0618008869
 H   -0.3356979002    2.0286237801   -0.7984003711
 H   -0.3125684051    1.9885158313    0.9680391096
 H    0.5925310887   -0.3454935436   -0.8264022028
 H    0.5330377765   -0.3853654531    0.9159501347
 H   -2.4274469306    1.0446754129    1.1283714605
 H   -3.1980732467   -0.5351567878    1.2433739774
 H   -1.6960659237   -0.2181797949    2.1311166958
 H   -2.1371506654    0.7711227688   -1.7633508868
 H   -3.4969301343   -1.2465737976   -2.6287001326
 H   -3.5741804869   -2.5990909896   -0.2207595841
 H   -2.5390785911   -3.4023578504   -1.3935165948
 H   -1.4502446679   -2.5056251609    0.9770446706
 H   -0.2605532634   -2.4029027170   -1.5571313841