21

 C   -0.0324021558    1.5453971915   -0.0016408370
 C    0.0141543864    0.0286385873    0.0009834420
 C    1.0484000780   -0.7007360518   -0.9357525929
 C    1.1976186263   -1.7420822874    0.1737478691
 C   -0.1288002921   -2.5221546392    0.6027649162
 C   -0.0393149117   -1.7701820463    1.9790077289
 C    0.7489997098   -0.6915062151    1.2333366630
 C   -1.3431817641   -1.9602357775   -0.0864786629
 C   -1.3073770783   -0.6427018732   -0.2934578189
 H    0.9604949942    1.9744577521    0.1686065520
 H   -0.3999720246    1.9254129274   -0.9622604660
 H   -0.7000961983    1.9224539184    0.7818321848
 H    0.7028931449   -0.9956704287   -1.9306464931
 H    1.9753798481   -0.1219234348   -1.0196209621
 H    2.1097469002   -2.3336461721    0.2681873584
 H   -0.0843244269   -3.6116265118    0.6099030363
 H   -0.9823196591   -1.5238395076    2.4749242449
 H    0.6241835704   -2.2912700638    2.6773724952
 H    1.4448810978   -0.0369715369    1.7628539728
 H   -2.2027476396   -2.5851851715   -0.3042077878
 H   -2.1241638555   -0.0710153088   -0.7238328229