13

 N    0.2338135432    1.2687265566    0.0042543031
 C    0.0401575826    0.0090422936    0.0015827176
 N   -1.2081767488   -0.5592559427    0.0127178584
 C   -2.4207033086    0.1113656466    0.0273831407
 N   -3.5572661612   -0.5888070694    0.0358804797
 N   -4.4853101221    0.3668335158    0.0491585686
 N   -4.0529398258    1.6149287878    0.0497866181
 C   -2.7246375745    1.4889600685    0.0358824678
 H    1.2302277539    1.4704222390   -0.0054555044
 H    0.8237724336   -0.7570239095   -0.0094883578
 H   -1.2733953985   -1.5639429741    0.0090468642
 H   -5.4663204884    0.1435240802    0.0581555133
 H   -2.0560625954    2.3293415378    0.0324894207