22

 C   -0.0088485685    1.2574150920    1.1125536128
 C    0.0708839727    0.2158873939   -0.0116577892
 C   -1.2489006529   -0.5464379387   -0.1569597536
 C   -1.9148058376   -1.3186054075   -1.2879623258
 N   -1.1487157763   -2.3134235132   -2.1323457770
 C    0.2839330833   -2.2858052107   -1.7937883052
 C   -0.6602245407   -2.9289687112   -0.8490232487
 C   -1.5565862941   -2.0097087850    0.0169044817
 C   -2.4220312810   -2.5904987599    1.0979696534
 H    0.9425427493    1.7849814808    1.2308210185
 H   -0.7823756561    2.0050604094    0.9054403689
 H   -0.2515715010    0.7847978658    2.0704834448
 H    0.3271286386    0.7222917038   -0.9507046577
 H    0.8905372029   -0.4742045880    0.2094761580
 H   -2.0586940991    0.0212666827    0.3081010568
 H   -2.8781453795   -1.0142328637   -1.6809722245
 H    0.8556812845   -2.9650318871   -2.4223296087
 H    0.7822067785   -1.3508778014   -1.5897340236
 H   -0.6878691359   -4.0076901860   -0.7218819543
 H   -1.8345217522   -2.8392921203    1.9908523827
 H   -3.1994615183   -1.8820328459    1.4007939747
 H   -2.9175843766   -3.5093600901    0.7627667962