23

 C    0.0050249051    1.3173547401   -0.3737289912
 C    1.4496101654    1.5298375354    0.1151466001
 C    1.2938069143    0.1358875029    0.7701103031
 C    2.1686305458   -0.9793461709    0.1968740755
 C    1.7342980583   -2.3554598723    0.7215727120
 C    1.7304515277   -2.3932786353    2.2565993092
 C    0.8600025126   -1.2664306482    2.8313033594
 C    1.2975951337    0.1056259382    2.2987495690
 O   -0.0754375623    0.0263165989    0.2592452900
 H   -0.7409974191    2.0162915893    0.0244839414
 H   -0.1255608179    1.2496643063   -1.4609264625
 H    2.2078001058    1.5884971911   -0.6684224544
 H    1.5927360887    2.3547679874    0.8160583881
 H    2.1187251852   -0.9512102199   -0.8974104251
 H    3.2128570208   -0.7801654919    0.4769942191
 H    0.7236607607   -2.5641900047    0.3501587262
 H    2.3896523056   -3.1350248697    0.3177742485
 H    1.3736862970   -3.3668070284    2.6112803153
 H    2.7600174158   -2.2843723892    2.6270457588
 H   -0.1854076222   -1.4318445395    2.5437959816
 H    0.8942286134   -1.2723208567    3.9263183419
 H    2.3131222878    0.3405521800    2.6481253762
 H    0.6373536575    0.8940099972    2.6772635677