15

 C    0.0123435314    1.5306862951   -0.0436823447
 C    1.5184375415    1.8979611100    0.0242584745
 N    2.0696712771    0.6997736620    0.6395027062
 N    3.2711319963    0.4401109183    1.1692600889
 N    3.2439792035   -0.8205837930    1.5288233410
 C    2.0281977997   -1.3605379575    1.2174061688
 C    1.2567903852   -0.3796281613    0.6380004953
 C   -0.0496357503   -0.0299116549   -0.0059558839
 H   -0.4960897055    1.9345051863    0.8358614454
 H   -0.4716272642    1.9497622285   -0.9276439023
 H    1.9612561666    2.0488349418   -0.9662129003
 H    1.7256802858    2.7796195299    0.6335690232
 H    1.8000174405   -2.3909394678    1.4348001277
 H   -0.9187927658   -0.3918970226    0.5483726723
 H   -0.1136710618   -0.4516819547   -1.0160438622