25

 C   -0.0192377094    1.4889594357    0.0409604015
 C   -0.0343472269   -0.0188618140    0.2292766736
 O   -1.3179349267   -0.5027124302   -0.1028527161
 C   -1.4445118433   -1.9001528069    0.0451385789
 C   -2.8634118942   -2.3064002121   -0.3396610490
 C   -3.0793560650   -3.7999458272   -0.2142440440
 C   -3.4468795980   -4.4291125900    1.1125460672
 C   -4.4430132696   -4.4272533577   -0.0222808687
 C   -5.7210344704   -3.6204799222    0.0549338562
 H    0.9656534901    1.8959287240    0.2891014776
 H   -0.2513961217    1.7478895399   -0.9960556119
 H   -0.7642281699    1.9632330706    0.6862319364
 H    0.7300357320   -0.4956510029   -0.4087180617
 H    0.2140321084   -0.2805426198    1.2725298221
 H   -0.7098123267   -2.4221415996   -0.5936132926
 H   -1.2320853187   -2.2003227879    1.0856238046
 H   -3.5609568872   -1.7536914152    0.2980081463
 H   -3.0517564906   -1.9758916831   -1.3687746684
 H   -2.3978469146   -4.3854229292   -0.8285551984
 H   -2.9772080743   -5.3618545628    1.4056350303
 H   -3.6425741564   -3.7541777509    1.9413013796
 H   -4.5678272653   -5.3833064389   -0.5253025194
 H   -5.5848811734   -2.6867320591    0.6075610472
 H   -6.0943699879   -3.3635631681   -0.9429701021
 H   -6.5059546003   -4.1891908724    0.5659134609