27

 C   -0.0575092716    1.5832714982    0.0789969447
 C   -0.0090616118    0.0539191973    0.0238534594
 C    0.6998412071   -0.4834545109   -1.2241417158
 C    0.7526139893   -2.0133173852   -1.2871040651
 C    1.4618782738   -2.5492705136   -2.5356136315
 C    1.5108110516   -4.0793029974   -2.5915970601
 C    2.2160697764   -4.6037645656   -3.8345646509
 O    2.2123290818   -6.0149264268   -3.7986488145
 C    2.8464933143   -6.5926531954   -4.9118216966
 H    0.9512263442    2.0113734632    0.0794780786
 H   -0.5882451124    1.9938648212   -0.7873472110
 H   -0.5689146000    1.9361896735    0.9801198869
 H    0.4967788030   -0.3296606634    0.9199332649
 H   -1.0307838828   -0.3470360677    0.0597300843
 H    0.1942769756   -0.0994061985   -2.1215011022
 H    1.7225424493   -0.0821093164   -1.2608318771
 H    1.2584272506   -2.3972693562   -0.3902999257
 H   -0.2697450569   -2.4145629221   -1.2510035387
 H    0.9555260508   -2.1650345652   -3.4321846693
 H    2.4842716949   -2.1476394032   -2.5711393007
 H    2.0257678172   -4.4727552214   -1.7066000787
 H    0.4940261465   -4.4901605834   -2.5681705751
 H    1.7079376184   -4.2428200544   -4.7467313382
 H    3.2529289205   -4.2248316018   -3.8776220959
 H    2.3523246756   -6.3145056161   -5.8570937750
 H    3.9053981987   -6.2946535452   -4.9825474857
 H    2.7940206958   -7.6779856135   -4.7940591909