21

 C    0.0248848160    1.5399390180   -0.1990449349
 C    0.0492091119    0.0340864159   -0.0403461769
 C    1.3422047884   -0.7476882992   -0.1435791151
 O    2.5649349892   -0.1290714530   -0.3936238852
 C    0.6380283723   -0.6429284850    1.1942763499
 C    1.2095647886    0.1151411857    2.3660078080
 C    2.1780712166   -0.6468027813    3.3040126852
 C    3.1691926204    0.4898078289    3.0001879682
 O    2.2644468909    1.0802211651    2.0321002877
 H    0.9213355622    2.0131734112    0.2064082225
 H   -0.0453825069    1.8109332334   -1.2578635734
 H   -0.8395253662    1.9760347155    0.3138178361
 H   -0.8257475440   -0.4640745295   -0.4525494122
 H    1.2996267862   -1.7074480981   -0.6514258135
 H    2.6992581285    0.5235576036    0.3112895171
 H    0.1188177989   -1.5365431358    1.5378144847
 H    0.4121118182    0.6375274302    2.9117656979
 H    1.8605477909   -0.7502870168    4.3421586016
 H    2.4817961178   -1.6197238323    2.9144211207
 H    3.3619319024    1.1796767408    3.8295441506
 H    4.1199905979    0.2030382327    2.5400657013