17

 O    0.0359541349    1.3736985403   -0.0522784193
 C   -0.0192901579   -0.0421954432    0.0477700525
 C   -1.4932694763   -0.4513871610    0.0818012687
 C   -2.2486040378   -0.0567991201   -1.2005360045
 C   -1.4897915016   -0.3774688943   -2.4786073119
 O   -0.5206327317    0.5769225157   -2.8903350928
 C   -0.0393417339   -0.7009253955   -2.4568167106
 C    0.6740649442   -0.7364697365   -1.1368649274
 O    1.7185199699   -1.3347912231   -1.0053221990
 H    0.9564064066    1.6379110017   -0.1523626228
 H    0.4948826776   -0.3967371591    0.9523804120
 H   -1.5376106969   -1.5385021586    0.2209782177
 H   -1.9679402632    0.0043251091    0.9565881143
 H   -3.2181891141   -0.5643858957   -1.2216040564
 H   -2.4470400633    1.0191849437   -1.1983735551
 H   -2.0687964791   -0.7932963400   -3.3035258099
 H    0.4091027826   -1.3226666232   -3.2298217955