16

 N    0.1392580405    1.3456168951    0.1598991182
 C   -0.0544085808   -0.0249652690    0.0482569950
 C   -1.1755859746   -0.8164611862    0.0163059915
 C   -0.6767527398   -2.1578616627    0.0102020284
 C    0.6795971169   -2.0656211955    0.0298557321
 O    1.0951593122   -0.7651489872    0.0576698014
 C    1.3311352131   -3.3540061631   -0.0015491371
 C    0.3468656639   -4.2821954745   -0.0362249258
 C   -1.0277742651   -3.6176285468   -0.0320301090
 H    0.9587545558    1.6647691390   -0.3427772964
 H   -0.6756487281    1.8733245618   -0.1214491037
 H   -2.1945257135   -0.4630791880   -0.0020185589
 H    2.3970740733   -3.5354008537    0.0063885473
 H    0.4811671354   -5.3547812206   -0.0571904519
 H   -1.6218021665   -3.9425224913    0.8323969475
 H   -1.6059633827   -3.8959480574   -0.9229792688