20

 C   -0.2950385882    1.3499674724   -0.1914338886
 C    0.1908210125   -0.0855975961   -0.1710151838
 O    1.5316057104   -0.2313299570   -0.7139879393
 C    2.0518219541   -0.6956632210    0.5420399240
 C    0.6477705285   -0.6698125652    1.1852564302
 N    0.3706841381    0.0049261138    2.4605231874
 C    0.1829695223   -1.2883860286    3.1610806790
 C    0.0280239557   -1.9698939243    1.7763706141
 O   -1.2883271993   -2.2589512399    1.3722682656
 H    0.3732842958    2.0043537720    0.3760209453
 H   -0.3417611653    1.7133560216   -1.2225133204
 H   -1.2949247358    1.4231513852    0.2481477232
 H   -0.5108400797   -0.7421274977   -0.7017619852
 H    2.5337682725   -1.6790657505    0.4587974115
 H    2.7697259541    0.0127196941    0.9824022356
 H    1.0969996979    0.6160066707    2.8172162430
 H    1.0576529512   -1.6474522427    3.7197279882
 H   -0.6950766487   -1.3301695534    3.8155943905
 H    0.6016134603   -2.8841046019    1.6136114594
 H   -1.8322609163   -1.4846511115    1.5569787502