19

 C   -0.0873282522    1.6250878874    0.0518728070
 C    1.4379350193    1.3843481133    0.0240804196
 O    1.2167727200    0.1786632638    0.8265436181
 C   -0.0106426833    0.0827217420    0.0323249906
 C    0.5617840182   -0.2795741560   -1.3608450965
 C   -0.2691736884    0.0901795522   -2.5970439036
 O    0.0653835955    1.4362833694   -2.9242955067
 C    1.4415034364    1.6273201121   -2.6067789010
 C    1.7284003390    0.7686940210   -1.3674846959
 H   -0.4085922322    1.9888066453    1.0281994057
 H   -0.5686615517    2.1555629687   -0.7690691781
 H    2.1649552755    2.0767193749    0.4490276978
 H   -0.7738396420   -0.5639505772    0.4657552793
 H    0.8978034029   -1.3172486057   -1.3776838611
 H   -0.0270983548   -0.5815879332   -3.4357146578
 H   -1.3512221112    0.0535413768   -2.4335695125
 H    2.0783625420    1.3102912139   -3.4476970975
 H    1.5942412684    2.7002083258   -2.4503270327
 H    2.7242417286    0.3239061353   -1.3880806947