20

 C   -0.0021909614    1.2658111391    0.1026976936
 O    0.1880724643   -0.1276151582   -0.0031055693
 C    0.6710840594   -0.5373692094   -1.2681591445
 C    0.6892407668   -2.0612277042   -1.2478846925
 O   -0.6040526163   -2.5581698941   -0.9286065102
 C    1.0732953902   -2.6591645651   -2.5965103610
 N    1.0179284758   -4.1072515161   -2.5432808578
 C    2.0394663136   -4.9056008820   -2.9441747244
 O    3.0835700513   -4.5206304044   -3.4294007078
 H    0.9422720926    1.8136295346   -0.0331202412
 H   -0.7257721137    1.6339283824   -0.6404924554
 H   -0.3870984942    1.4673038591    1.1049724780
 H    0.0027716446   -0.1778140257   -2.0678182510
 H    1.6795754802   -0.1347500286   -1.4544744486
 H    1.4180379357   -2.3893681299   -0.4895319234
 H   -0.9086256821   -2.0385828940   -0.1746315308
 H    0.3877486259   -2.2792583893   -3.3658426915
 H    2.0929466278   -2.3855766963   -2.8763686475
 H    0.2042685070   -4.5168739704   -2.1115337330
 H    1.8092666724   -5.9769872874   -2.7795884216