16

 O    0.0424860508   -0.0133161450    0.3240496895
 C    0.0065338737    1.1664401135    0.0604217073
 C   -1.3408018854    1.8682239915   -0.1450901715
 N   -1.2890010712    2.9873639780   -1.0714347572
 C   -0.1808927104    3.6425180582   -1.5384432455
 O   -0.2486566443    4.4833509397   -2.4148087195
 C    1.1205818408    3.2835307596   -0.8866194855
 C    1.2379887073    3.3694074719    0.6068069250
 C    1.2222982674    2.0046018004   -0.0581454314
 H   -2.0379017066    1.1084860827   -0.5082366350
 H   -1.7022370356    2.1810759364    0.8480925258
 H   -2.1501608957    3.2812316869   -1.5085914088
 H    1.9792500499    3.5691434755   -1.4804982232
 H    2.1848507388    3.6932168270    1.0216586232
 H    0.3672877796    3.6773842322    1.1746626405
 H    2.1500162808    1.4455945816   -0.0808166134