13

 C   -0.2812710136    1.2817581762   -0.2456910314
 N    1.0972950319    1.2906699673    0.2641612307
 C    0.3811644351    0.0100931165    0.1461528260
 C    0.0544264150   -0.6790531417    1.4266360111
 C   -0.5582666311   -2.0128010245    1.4493519402
 O    0.8286112426   -1.8406715760    1.7424139986
 H   -1.0129836541    1.7391972650    0.4151338279
 H   -0.4603263771    1.4547016340   -1.3035941751
 H    1.7588839956    1.3953870269   -0.4999052092
 H    0.6716624435   -0.6667871628   -0.6552688125
 H   -0.1178470115   -0.0080373884    2.2687299955
 H   -1.1859110988   -2.3061067534    2.2897955150
 H   -0.7782267075   -2.5199777291    0.5100835432