16

 C    0.1195241079    1.3798782735    0.0071974217
 N    0.0254753536   -0.0681849388    0.0041649512
 C   -1.1362355146   -0.6030408126    0.0112636701
 N   -1.1987009565   -2.0077871808    0.0085509013
 C   -2.3554594181   -2.7053062654    0.0150935110
 O   -2.1755919362   -4.0404047250    0.0105316077
 C   -3.5509206464   -2.0399336169    0.0252405090
 N   -3.5803291211   -0.6734498586    0.0288989900
 C   -2.4700952496   -0.0005570317    0.0225807593
 H    1.1750032413    1.6650570989   -0.0005617079
 H   -0.3506508727    1.8422908300   -0.8742286203
 H   -0.3363146349    1.8375602632    0.8985696819
 H   -0.3149036670   -2.4996007325    0.0009012076
 H   -3.0369110370   -4.4725574466    0.0157689221
 H   -4.4954836959   -2.5708688360    0.0306520259
 H   -2.5364399628    1.0824699596    0.0259246494