18

 C    0.0047727270    1.5504585445    0.0208581916
 C   -0.0149627474    0.0498354502    0.0626907102
 C   -1.2825333589   -0.8177297922   -0.0110450039
 C   -0.6430036137   -1.8159217728    1.0093817600
 C    0.6083134411   -0.9350857142    1.0489300363
 C    1.1930511071   -0.7806966005   -0.3478591763
 C    1.1568502327   -1.8142564840   -1.3425837837
 C    1.1201218226   -2.6797216497   -2.1785335592
 H    0.9934620680    1.9444486335    0.2784808611
 H   -0.2504177201    1.9223599905   -0.9787643859
 H   -0.7188931871    1.9742055902    0.7268208881
 H   -2.1564397821   -0.3067157177    0.4005131599
 H   -1.5341081536   -1.2146061007   -0.9983688138
 H   -1.1763008205   -1.8343238712    1.9619612610
 H   -0.4937795273   -2.8424735593    0.6639142974
 H    1.2291709533   -0.7418482695    1.9169501309
 H    2.1102304238   -0.1956069498   -0.3500840443
 H    1.0953805749   -3.4420732772   -2.9169548897