18

 O    0.0789606482    1.3663544546    0.0489959880
 C   -0.0150841083   -0.0525603714    0.0505758737
 C   -1.4359921699   -0.5490605930    0.0420173972
 C   -2.5431732796   -0.3017341475    1.1080607826
 C   -3.2314156044   -1.1717126242    0.0194747726
 C   -2.5397556055   -0.2535619896   -1.0324596528
 C   -1.9345295645   -2.0363883449    0.0361066856
 O   -1.6123724230   -2.9167014617   -1.0028083231
 H   -0.3335519801    1.6832034058   -0.7609801958
 H    0.5346656369   -0.4939625496   -0.7967113606
 H    0.4871988216   -0.3830013536    0.9667421715
 H   -2.3927222229   -0.7614680144    2.0892029163
 H   -2.8965430099    0.7269719902    1.1956318864
 H   -4.2645811735   -1.5203152666    0.0085705893
 H   -2.9051007744    0.7760236181   -1.0842865533
 H   -2.3906338628   -0.6443000185   -2.0451867068
 H   -1.7489091147   -2.5887866094    0.9615413338
 H   -1.8402616232   -2.5136188343   -1.8465435346