21

 C    1.4514592862   -0.6452313208   -1.0937612461
 C    0.3152531445   -0.3082110668   -0.1199919747
 C    0.6171461923   -0.6538104411    1.3301932172
 C   -0.5202804107   -1.1503346798    2.2209816198
 C    0.5303396618   -2.1087686738    1.7669701392
 C    1.6328365357    0.1507411358    2.0776636842
 O    2.0248296075   -0.0941012240    3.1951198653
 O    2.0614443413    1.2185627201    1.3695033262
 C    3.0196955162    2.0478220707    2.0373611680
 H    1.7033905797   -1.7102415550   -1.0522936275
 H    1.1629070178   -0.4094004156   -2.1228346006
 H    2.3530145863   -0.0746983602   -0.8575472672
 H    0.0669557595    0.7556436579   -0.1959187519
 H   -0.5859466506   -0.8586445167   -0.4155788203
 H   -0.4991221000   -0.8385622042    3.2581655784
 H   -1.5036926039   -1.1948526797    1.7662057171
 H    0.2794896505   -2.8282681587    0.9951102566
 H    1.2553038030   -2.4410873319    2.4997299105
 H    3.2641311937    2.8438503326    1.3337766158
 H    2.5962359820    2.4639104983    2.9549330602
 H    3.9138769873    1.4745803229    2.2943954397