17

 O   -0.1030611712    0.1578882312    0.5430081095
 C   -0.0511801887    1.3217026930    0.2457771276
 C   -1.2369490330    2.2814439489    0.1482443716
 O   -0.7326537719    3.5088617747   -0.3312232830
 C    0.6819172873    3.5759621109   -0.0747412801
 C    1.0528480405    4.0939768337    1.2970622702
 C    1.8858690202    3.2698801545    1.9321997789
 C    2.2294744188    2.0445877429    1.1161827127
 C    1.2199023934    2.1301572451   -0.0507389502
 H   -2.0006230867    1.9038850589   -0.5398434295
 H   -1.6944243838    2.3718170275    1.1463576244
 H    1.0882992831    4.2047926365   -0.8736816047
 H    0.6843560381    5.0430469549    1.6685392479
 H    2.3110565467    3.4453480115    2.9146831770
 H    3.2646697831    2.0861104084    0.7553899388
 H    2.1272811763    1.1054889091    1.6714141023
 H    1.6318710980    1.7926920282   -1.0055492431