18

 C    0.0148168215   -1.2770884035   -0.0147794989
 C   -0.0051426766   -0.0742597212    0.0039621757
 C   -0.0500982279    1.3723505473   -0.0145657765
 C   -0.1231750377    2.0744107242    1.3840283812
 C    1.4096437000    1.7515826065    1.5033706080
 C    1.3540952522    2.0870933403   -0.0162127431
 N    1.1189947447    3.5607033653    0.0577610700
 C   -0.2072482691    4.0475018860   -0.3606076401
 C   -0.0143421424    3.5637353618    1.0314263595
 H    0.0328740155   -2.3385813925   -0.0270613311
 H   -0.7768408379    1.6838976251   -0.7658348794
 H   -0.8528653999    1.7712109548    2.1331308455
 H    2.0172614694    2.4175653888    2.1190995217
 H    1.6181048544    0.7039980513    1.7176357372
 H    2.1330638979    1.8107953626   -0.7245954932
 H   -0.2230094663    5.1228370199   -0.5174607140
 H   -0.8050592791    3.5010170181   -1.0804191163
 H    0.0370719312    4.2751178353    1.8519384638