19

 O   -0.0653901574    1.4441528500   -0.0684636078
 C    0.0179179490    0.0313967605    0.0099630912
 C    0.6810768929   -0.5169931934    1.3072709236
 C   -0.1980825150   -1.7079162971    1.6819304664
 O    0.3830700783   -2.8152476679    2.3005644168
 C   -1.6750761087   -1.4692675546    1.9712339195
 C   -2.1508021840   -0.1597717443    1.3434198174
 C   -1.3936642992   -0.5655821326    0.0351668526
 C   -1.2115106396   -1.9927222229    0.6125535523
 H    0.8288761545    1.7977042158   -0.0904394529
 H    0.5533507190   -0.3699364676   -0.8649198310
 H    1.7078672332   -0.8555849074    1.1394095362
 H    0.7003148828    0.2630776887    2.0773287134
 H    0.4933632129   -2.6111164274    3.2355099749
 H   -2.1548125774   -2.0271024878    2.7681961571
 H   -3.2330117462   -0.1621420165    1.1912578657
 H   -1.8576289155    0.7860438164    1.8085926526
 H   -1.9401586250   -0.4375239123   -0.8981189355
 H   -1.3571478746   -2.9535883995    0.1386059974