15

 C   -0.0833594770   -1.2181310661   -0.0410665672
 C   -0.0551560535   -0.0176681551   -0.0022450728
 C    0.0030276310    1.4381145624    0.0228914146
 O   -0.4871851016    1.9672795853    1.2889127270
 C    0.6167478702    2.6840282801    1.7750711091
 C    1.3567838621    3.4367597857    0.6299430164
 O    2.6429370750    3.2435551145    1.3024077055
 C    1.9588049477    1.9572160444    1.4649158830
 C    1.4218202114    2.0104922397    0.0019372882
 H   -0.1188487995   -2.2793621299   -0.0707090185
 H   -0.6177685505    1.8488627077   -0.7834745033
 H    0.4213044169    3.1479573810    2.7387429857
 H    1.1555227715    4.3976845676    0.1578666807
 H    2.4754688548    1.1541354042    1.9873369762
 H    2.0798589314    1.7997081085   -0.8375013046