21

 O    0.0079079575    1.2906625782   -0.5083686311
 C    0.1126094804   -0.0626076594   -0.1014830331
 C   -1.2704325964   -0.6356717622    0.1461172894
 O   -2.0917339342   -0.5301085723   -1.0484119225
 C   -2.5757729852   -1.8900266569   -0.8836023183
 C   -2.2197325968   -2.7941568741   -2.0564721590
 C   -0.7123786590   -3.0634400645   -1.8824986223
 C   -0.5151840492   -3.1328468425   -0.3510015191
 C   -1.5442082372   -2.1544958012    0.2497314701
 H   -0.6187197230    1.2990100232   -1.2422305836
 H    0.6540529714   -0.6593692435   -0.8499245188
 H    0.6979642523   -0.0754097522    0.8249821587
 H   -1.7379319157   -0.0708156779    0.9654512503
 H   -3.6390947703   -1.8940328659   -0.6201641770
 H   -2.7917109113   -3.7265827045   -1.9674564899
 H   -2.4759621762   -2.3371185056   -3.0166465704
 H   -0.3817495943   -3.9743595432   -2.3884734922
 H   -0.1408837293   -2.2318172636   -2.3054876400
 H   -0.7485750445   -4.1428588687    0.0050570393
 H    0.5136414214   -2.9216418060   -0.0446632475
 H   -1.9218781305   -2.4800820072    1.2194387472