14

 O   -0.0856280688    0.0367061085   -0.0345191638
 C   -0.0726688056    1.2220099639    0.0393299912
 C   -1.1545274204    2.3333242354   -0.0053349191
 C    0.0554370233    3.2326677772   -0.3397048398
 C    0.7711588797    3.2806508884    0.9400946465
 C   -0.1738011339    3.0979037915    2.1114215119
 C   -1.4905296225    2.6411790669    1.4574925212
 O   -2.5578093944    2.5223309165    1.9888025776
 N    1.0616647149    2.1223022386    0.0049738826
 H   -2.0061181442    2.2021627252   -0.6665594115
 H    0.1930305010    3.8464941863   -1.2185358307
 H    1.6560900793    3.8941059777    1.0578114646
 H    0.1606092861    2.3594813341    2.8474842682
 H   -0.3267480146    4.0442066499    2.6394905711