17

 O    0.1136387800    1.3316685658   -0.1081074101
 C    0.0994191695   -0.0669727747    0.0081506225
 C    0.2444703285   -0.5369154578    1.4878725256
 C   -1.2749524248   -0.7166807286    1.5346358417
 C   -2.1811956936   -1.3360969310    2.5188627986
 N   -2.2085305584    0.1253917083    2.2848297783
 C   -1.3768671875   -0.6110108882    0.0053654336
 O   -2.3389512524    0.2996392091   -0.4580564304
 H   -0.7409227008    1.5605717368   -0.5066595592
 H    0.7883118785   -0.5314455843   -0.7078850754
 H    0.7899617557   -1.4796854614    1.5910201868
 H    0.6750253949    0.2099032662    2.1595454243
 H   -3.0708784878   -1.8669783580    2.1906124939
 H   -1.7545425722   -1.6976072371    3.4513159064
 H   -1.7338980641    0.6274379276    3.0303426584
 H   -1.4844377954   -1.5711930379   -0.5103469320
 H   -2.7485825700    0.6552640252    0.3514770069