17

 C   -0.0673576329    1.5455351891    0.0335807283
 C    1.4812946561    1.2798798900    0.0119626689
 C    1.2438367441    0.0335484563    0.9033497677
 O    2.1232775774   -1.0322906489    0.5670111299
 C    1.8056799047   -1.1600621592   -0.8196653321
 O    0.6752101066   -2.0140519184   -0.9897020899
 C   -0.5119057023   -1.3316542182   -0.4798817227
 C    0.0740828640    0.0140909349   -0.1256669106
 C    1.2587849288    0.2339390485   -1.1213022476
 H   -0.4923794134    1.9159356184    0.9709391924
 H   -0.4729586914    2.0890792351   -0.8226100169
 H    2.2777342632    2.0206983433    0.0885608941
 H    1.0791762780    0.1060360378    1.9776058487
 H    2.6380348675   -1.5998338896   -1.3649301450
 H   -1.2733687419   -1.3014881839   -1.2674255161
 H   -0.9026133159   -1.8909422943    0.3768995093
 H    1.0471592673    0.5254062892   -2.1489998083