16

 O    0.5715123581    0.7764244427   -0.8778446133
 C    0.1111329501   -0.2592136920   -0.0511990074
 C    0.1242052413   -0.0907665986    1.5009165243
 C   -1.2674715307   -0.7971653041    1.5637392539
 O   -2.2903931520   -0.2207291903    2.3391418780
 C   -1.3936103987   -0.5324203006    0.0664148468
 C   -2.4872202892    0.1583037307   -0.6176193613
 O   -2.2098576071   -1.2332183983   -0.8441441711
 H    0.1234320286    1.5874493936   -0.6141907733
 H    0.6514776611   -1.1567091853   -0.3665908817
 H    0.9547600540   -0.5347050001    2.0515938054
 H    0.0162220237    0.9615118882    1.7819390364
 H   -1.1660270191   -1.8729198967    1.7615283332
 H   -2.2094206671   -0.5416166634    3.2423817953
 H   -3.4033658344    0.3695900866   -0.0711624048
 H   -2.2622421487    0.8141381677   -1.4575362606