23

 C   -0.0289668371    1.5949899183   -0.0219065510
 C    0.0283799334    0.0650816405   -0.0128712638
 C    0.8218334004   -0.5370572319   -1.2189322242
 C    1.3147881093   -1.9465989422   -0.7749072716
 C    1.4736072288   -1.8114529039    0.7259783051
 C    2.1943395502   -0.6135300467    1.2825172447
 C    0.6917753730   -0.5852292162    1.1889585510
 C    0.0650942145   -1.3950608675    2.3417482146
 C    0.8664800770   -2.6565185028    1.8620715277
 H    0.9765451222    2.0233199403    0.0553994063
 H   -0.4844327872    1.9731076146   -0.9439231231
 H   -0.6170165882    1.9747593076    0.8199867036
 H   -1.0008596929   -0.3190529515   -0.0589973040
 H    0.2148809943   -0.5755130282   -2.1285774120
 H    1.6787568702    0.1063965173   -1.4506126158
 H    0.5458578336   -2.6996154083   -0.9878208973
 H    2.2181684319   -2.2512217791   -1.3157690654
 H    2.6638275122   -0.6820837170    2.2604174553
 H    2.7452080400   -0.0012316210    0.5772883020
 H    0.2667189880   -1.0335472479    3.3556403542
 H   -1.0150843953   -1.5223301395    2.2321680442
 H    0.2104334402   -3.4498500606    1.4947692822
 H    1.5739729116   -3.0973278142    2.5723504774