14

 O   -0.0728734199    1.4418038875    0.0728153948
 C    0.0543990171    0.0707678944   -0.0056734221
 C    1.2532239273   -0.6314980432    0.7052822388
 N    0.9749200808   -2.0786555823    0.6949172185
 C    1.5436634241   -1.4440345467   -0.5133425699
 C    0.3646280496   -0.7764980123   -1.2718036289
 O   -0.9182896200   -1.4492074405   -1.1536572591
 C   -1.2750443277   -0.7296482760   -0.0265091541
 O   -2.2940141733   -0.7757370892    0.5743150322
 H    0.8039871549    1.8406259042    0.0994052629
 H    1.9072529659   -0.1754728088    1.4395232939
 H    1.7351577141   -2.5497392177    1.1836982233
 H    2.4850810011   -1.7745186737   -0.9326016192
 H    0.5421597659   -0.3662483258   -2.2634632712