17

 C   -0.0270785746    1.5033751453   -0.0373820164
 N    1.2870365062    0.8270473317    0.0791205280
 C    0.0942785210    0.0372582076    0.0164761266
 C   -0.5031675208   -0.9740833011    0.9983515409
 O   -1.6059856609   -1.1198947781    0.0276525964
 C   -0.5382484085   -0.9616619757   -0.9731110398
 C    0.2550642548   -2.2682886024   -0.7572482467
 N    1.5431602895   -2.0713954402   -0.0540754767
 C    0.2949400998   -2.2701199616    0.7245096751
 H   -0.3238512165    2.0735044970    0.8387827934
 H   -0.3134014564    1.9515413047   -0.9865192398
 H    1.8017719417    0.8056638563   -0.7963584916
 H   -0.8269983675   -0.7408866715    2.0108470585
 H   -0.8952126308   -0.7015869468   -1.9692278077
 H    0.0724844870   -3.1491885819   -1.3601145970
 H    2.0559834740   -2.9522810251   -0.0637637580
 H    0.1574046319   -3.1580882781    1.3287378148