19

 C   -0.0165871798    1.4928711317    0.0736689675
 C   -0.0051177910    0.0031343749   -0.0282221856
 C   -0.0328135158   -0.7804762629   -1.1166899048
 C   -0.0079656071   -2.2575369872   -0.8052950038
 C    0.0418935380   -2.2855424189    0.7158565541
 C   -0.6669840044   -3.3100357662    1.5797349177
 C    0.8260687066   -3.2950263296    1.5309872124
 C    0.0429284346   -0.8576762710    1.1842619665
 O    0.0767388728   -0.4816356680    2.3386483494
 H    0.8733991153    1.8489698313    0.6039522010
 H   -0.0529998531    1.9681861332   -0.9097606410
 H   -0.8774692048    1.8316101583    0.6603725994
 H   -0.0696872001   -0.4165843935   -2.1389439007
 H   -0.8952641572   -2.7607866325   -1.2115430854
 H    0.8607331254   -2.7434286788   -1.2688338098
 H   -1.1466420283   -2.9265810134    2.4740830909
 H   -1.1961294735   -4.1078027433    1.0694423491
 H    1.3367145670   -4.0823267182    0.9867235930
 H    1.3552653254   -2.9014155460    2.3923735999