9

 O   -0.0351479911   -0.0253058435    0.0017288336
 C   -0.0381805359    1.1733676239    0.0070432803
 C    1.3022809439    1.9497623415   -0.0004134522
 O    2.3705545411    1.4029776447   -0.0125742118
 C    1.2049400186    3.4841373585    0.0086171270
 O    0.1502071652    4.0658745669    0.0211136975
 C    2.4946545723    4.1891773824    0.0009302870
 N    3.4943659457    4.7694951405   -0.0048847849
 H   -0.9581153398    1.7832942752    0.0171821134