17

 O    0.0115249215   -0.0253524873   -0.1464268733
 C    0.0023534006    1.1657482704    0.0231607716
 O   -1.2037932335    1.8125022831    0.1101746742
 C   -1.2645232572    3.1605789012    0.6175249007
 C   -0.2317861292    4.0181582625   -0.0885499472
 C    0.4907583786    5.2299552455    0.5925918404
 C    1.8659551361    4.5933882712    0.1823174563
 C    1.0987472433    3.3133147596   -0.0428948673
 C    1.2251903122    1.9995029386    0.1189628110
 H   -2.2962785914    3.4807610197    0.4550378120
 H   -1.0693013828    3.1462593610    1.6983875030
 H   -0.5467327804    4.2627636962   -1.1094266485
 H    0.2661474777    6.2227567606    0.2005133694
 H    0.3525792334    5.2293827748    1.6765978101
 H    2.2479327745    5.0247783610   -0.7491283527
 H    2.6742827940    4.5771271422    0.9167972265
 H    2.1579701126    1.4753614695    0.2896755038