16

 O   -0.0045612223   -0.0232624905    0.1463569760
 C   -0.0614002155    1.1673135107    0.0353481429
 C   -1.3256513430    2.0480782400    0.0530780789
 C   -0.7303209602    3.4338353553    0.2698118969
 C    0.1130611205    3.5942783797    1.5487099348
 C    1.3395459940    4.0463568870    0.7760149202
 C    1.3132037081    2.6495104660    1.3002736196
 N    1.1053770382    2.0321161625   -0.0434735514
 C    0.6471511141    3.4065018857   -0.4648203762
 H   -1.8509979493    1.9735739476   -0.9072609822
 H   -2.0071526249    1.6953908564    0.8311405697
 H   -1.3627085324    4.2912688783    0.0404067458
 H   -0.2052903682    3.8721543547    2.5447280912
 H    2.0448728190    4.8523565865    0.9064262072
 H    1.8828234420    2.1678417156    2.0828993292
 H    0.7678834699    3.6629127044   -1.5151886325