18

 C   -0.0626345292    1.5930376491   -0.0307019387
 C    0.0229135301    0.0830088405   -0.0166331914
 N    0.8744431767   -0.4918533725   -1.1331676425
 H    0.3932521786   -0.5272883711   -2.0348706494
 H    1.7069849280    0.0938533453   -1.2229014020
 C    1.3051125286   -1.8657841766   -0.6151546659
 C    1.5394364848   -1.5884406216    0.8311859378
 C    2.5030946375   -2.3351787026    1.5842640317
 O    2.7766025877   -2.2263494276    2.7669261373
 C    0.7409248040   -0.4957828163    1.2619588707
 O    0.5530838510    0.0543393892    2.3361887973
 H    0.9344543132    2.0448066426   -0.0905017800
 H   -0.6865005891    1.9891292619   -0.8374497286
 H   -0.4834649081    1.8855821879    0.9350932864
 H   -0.9640181707   -0.3809985029   -0.1345453845
 H    0.4560105795   -2.5228202579   -0.8737392526
 H    2.1766512161   -2.2087719332   -1.1813274452
 H    3.0536876313   -3.0874451142    0.9546754698