17

 C   -0.0328912414    1.4301058938    0.0324648270
 N   -0.0137816790   -0.0228003982    0.0009380652
 C   -0.1171509603   -0.7281621078    1.2705527412
 C    0.0068364518   -0.6899352625   -1.1811519476
 C    0.0347758970   -0.0195656599   -2.4372281686
 N    0.0696858372   -0.6754668453   -3.5785353305
 N    0.0769274700   -2.0161136613   -3.5744896413
 C    0.0404210054   -2.6036773761   -2.3822117547
 N    0.0029800504   -2.0283789023   -1.1822944689
 H    0.8135487442    1.8566385541   -0.5170502650
 H   -0.9603931488    1.8425770306   -0.3856620434
 H    0.0441119954    1.7553922349    1.0707082692
 H   -1.0670229666   -0.4970115617    1.7689184185
 H   -0.0642852406   -1.7984150058    1.0836091204
 H    0.7030140247   -0.4349728893    1.9357482197
 H    0.0237343307    1.0612408874   -2.5180858383
 H    0.0404125799   -3.6911082106   -2.3984492929