20

 C    0.1406231056    1.6289757995    0.1321725250
 C    0.1251276344    0.1000636017    0.0321079789
 C    0.7158944664   -0.4611827870   -1.2815696596
 C   -0.0808943091   -0.0567968913   -2.5202104358
 O    2.0674222327    0.0406036586   -1.3227461541
 C    2.9026594755   -0.4544645814   -2.2610472933
 N    4.0528552294    0.0442469858   -2.3986874034
 C    0.7588403279   -1.9826788328   -1.1024128951
 O   -0.0484712258   -2.7476022984   -1.5585707135
 H    1.1527277714    2.0160638225   -0.0028871565
 H   -0.5086339512    2.0934794459   -0.6153387780
 H   -0.2178568786    1.9389678658    1.1179819119
 H    0.7012008239   -0.3205457450    0.8652037852
 H   -0.8970695994   -0.2826902697    0.1260625594
 H   -0.0974796969    1.0293464668   -2.6268447746
 H    0.3525455994   -0.4862358398   -3.4272098782
 H   -1.1041413902   -0.4291939871   -2.4390592376
 H    2.4879079904   -1.2933182652   -2.8362946590
 H    4.5642273816   -0.4517417339   -3.1257470126
 H    1.6017819428   -2.3253094251   -0.4593696692