19

 C    0.0084730850    1.5439824216    0.0122937830
 N    1.2194200667    0.6914833906    0.0720137569
 C   -0.0963910072    0.0692247299    0.0245075578
 C   -0.5314597331   -0.9218684039    1.0675902764
 C   -1.8747763288   -1.4779286059    0.7490120274
 C   -2.8180230820   -0.7146968726   -0.1758087359
 C   -2.0149483568   -0.6340803174   -1.5000825862
 C   -0.5874949078   -0.9189901977   -1.0423643737
 N   -0.6983097061   -2.0152678440    0.0244023527
 H   -0.1867126953    2.1206891853    0.9126878254
 H   -0.2162914377    2.0661209265   -0.9152898853
 H    1.6650048141    0.6511215222   -0.8422333186
 H   -0.0193222955   -1.0988280417    2.0082992658
 H   -2.2946812043   -2.1699812719    1.4728303344
 H   -3.7604513637   -1.2537285502   -0.3029453503
 H   -3.0594500691    0.2766186338    0.2190460217
 H   -2.3423079545   -1.4089513404   -2.2009834606
 H   -2.1093906662    0.3336512445   -2.0011846995
 H    0.1225579624   -1.1723701488   -1.8321489314