22

 C    0.3103037767    0.5433529173   -1.5274677537
 C   -0.0582098477   -0.0434426812   -0.1779904224
 C    1.0287986615   -0.4696320790    0.7388420159
 N    0.2538063937    0.7539173484    1.0222608977
 C   -1.4066908446   -0.7613733348   -0.1449749910
 C   -1.4073746554   -2.0232957665   -0.9998129722
 C   -2.0713853989   -0.8994188598    1.2501919750
 C   -3.0828729413    0.1310170393    0.7201357156
 O   -2.4574144037    0.1552248124   -0.5799587246
 H    1.2472626473    1.1059962290   -1.4605983566
 H    0.4460771903   -0.2317153947   -2.2879426922
 H   -0.4809630063    1.2167262290   -1.8691780086
 H    0.8688629845   -1.2800605333    1.4460726227
 H    2.0546146509   -0.3730850440    0.3922036752
 H    0.7914642336    1.5761507791    0.7597936543
 H   -0.6470557134   -2.7298328554   -0.6494838611
 H   -2.3846749621   -2.5107260189   -0.9483839502
 H   -1.2053249872   -1.7913440137   -2.0492678216
 H   -2.4824773166   -1.8910922859    1.4472078507
 H   -1.4659528114   -0.5632857499    2.0894537446
 H   -4.1273489968   -0.1979635556    0.6621072048
 H   -3.0424328630    1.1118865382    1.2079095878