18

 C   -0.1464123541    1.5440324426    0.0847196220
 C    0.0295548172    0.0502220644    0.0644458387
 C   -1.2018651461   -0.8834094877    0.1541780259
 N   -0.4750549599   -1.8041397986    1.0785244327
 C    0.6742462503   -0.8896318702    1.1688720456
 C    1.7308220716   -1.1578991293    0.0823537424
 O    1.0013179216   -0.3909428350   -0.9036488293
 C    1.0687103823   -0.4263182388    2.5259506936
 O    0.4257824936   -0.6646818747    3.5215312157
 H    0.8155849313    2.0540618247    0.1832425640
 H   -0.6029095718    1.8678481517   -0.8580862344
 H   -0.8010182793    1.8539116520    0.9045811637
 H   -2.0757635184   -0.3954726949    0.6023178618
 H   -1.4911240995   -1.3461475150   -0.7941137652
 H   -0.9203458366   -1.8904102906    1.9873963019
 H    2.7144518981   -0.7099640226    0.2788502747
 H    1.8387088079   -2.2103605079   -0.1942963936
 H    1.9989946917    0.1814630599    2.5702977998