18

 C    0.0253584508    1.4848907204    0.1952516766
 C   -0.0873262542   -0.0432396754    0.0436249270
 C   -1.4654877060   -0.5115891803   -0.0218466288
 C   -2.6206500021   -0.8600607840   -0.0723175927
 C   -3.9425536590   -1.3747570331   -0.1365554276
 C   -4.1454314834   -2.8894249821   -0.1675961276
 O   -4.9573090444   -3.3581710581    0.8867852902
 N   -4.9098986775   -0.5244301249   -0.1729415269
 O   -6.1508609270   -1.1839703532   -0.2685825366
 H    1.0764962522    1.7839809298    0.2402625143
 H   -0.4440545098    1.9944393353   -0.6501867406
 H   -0.4699559330    1.8213421147    1.1096518308
 H    0.4448812278   -0.3654802967   -0.8610491213
 H    0.4210293028   -0.5375448893    0.8817056590
 H   -4.5588433459   -3.1533650875   -1.1543137701
 H   -3.1761982311   -3.3811914939   -0.0674057210
 H   -5.8042636585   -2.9061745574    0.7918135309
 H   -6.7742014318   -0.4502813842   -0.2608256755