19

 O    0.1118480699    1.4208198990    0.1664181679
 C    0.0335121844    0.0015777438    0.0514511095
 C   -1.4125215016   -0.5065273857    0.0687562501
 C   -1.4620376193   -1.9987303967   -0.2753924166
 C   -0.9189722931   -2.2570688596   -1.6874120985
 C    0.3543955035   -1.4758376376   -1.9683854540
 C    0.7749620019   -0.4812660332   -1.1685141238
 C    1.0833052011   -1.8477211899   -3.1337813337
 C    1.6608761596   -2.2013804380   -4.1307215722
 H   -0.2711817220    1.7952982050   -0.6351082645
 H    0.5514038742   -0.3612933793    0.9508073385
 H   -1.8614217540   -0.3028563083    1.0454331131
 H   -1.9898778382    0.0615122442   -0.6745711276
 H   -0.8606562526   -2.5577229707    0.4531779801
 H   -2.4849496522   -2.3802398724   -0.1940150377
 H   -0.7236839678   -3.3243971770   -1.8383949948
 H   -1.6701835956   -1.9848143607   -2.4419586930
 H    1.6992133775    0.0430026237   -1.3950539482
 H    2.1837060643   -2.4987688167   -5.0055971546