16

 C   -0.0234670992    1.3853238891   -0.0057376230
 O    0.0246574951   -0.0469659846    0.0372324354
 C    0.6575300041   -0.5554895216    1.1005222342
 O    1.1720992825    0.0729395334    1.9935771614
 N    0.6571089753   -1.9398486835    1.0618015472
 C    1.2481283354   -2.8653148404    2.0400686979
 C    0.7464691026   -4.0355790900    1.1487933571
 C    0.1758050892   -2.9553645159    0.2089429041
 O   -0.4276207740   -2.9272425317   -0.8197357313
 H    0.9854252917    1.8040450710   -0.0351535506
 H   -0.5660916782    1.6295782264   -0.9183418757
 H   -0.5460290477    1.7797644172    0.8691056213
 H    2.3319996220   -2.7643713865    2.1257790884
 H    0.7921360166   -2.7924801704    3.0295511835
 H    1.5233890030   -4.6512139110    0.6927670558
 H   -0.0138188785   -4.6790065616    1.5943627942