20

 C    0.1238514840    1.4847449357    0.1125002852
 C    0.0373971487    0.0330036888    0.0490579483
 C   -0.0467798804   -1.1681289943    0.0110113672
 C   -0.0844245479   -2.6095822979   -0.0790883017
 C    1.1764140991   -3.2303997888   -0.6602518579
 N   -0.7493771792   -3.3098939451    1.0544890699
 C   -1.3826422319   -3.3317217903   -0.2755992602
 C   -2.7258822071   -2.6411114862   -0.3265990756
 O   -3.6862831392   -3.3546313504    0.4351593185
 H    1.1370382727    1.8326351246   -0.1170630605
 H   -0.5591635312    1.9575226275   -0.6019080488
 H   -0.1342474844    1.8524324767    1.1117210760
 H    2.0419497151   -3.0035907105   -0.0296907117
 H    1.0750325091   -4.3180378937   -0.7356603279
 H    1.3778348745   -2.8341839170   -1.6599715006
 H   -0.2637053292   -4.1866298777    1.2305965499
 H   -1.3236356217   -4.2628905817   -0.8372878884
 H   -2.6177862753   -1.6060482400    0.0241866401
 H   -3.1018592488   -2.6130437970   -1.3546220660
 H   -3.3177634569   -3.4153136526    1.3248132840