17

 C   -0.0088752008    1.5183764000    0.0347572257
 C    0.0088021703    0.0185971415    0.0089110282
 C   -0.9006263003   -0.8486803838    0.8369521176
 C    0.5950317830   -0.9706147552    1.0043547689
 C    1.3041085421   -1.7277325992   -0.1520673631
 C    0.3768306609   -2.2284233804   -1.2254367413
 C    0.7012990146   -0.7597690981   -1.1554436885
 H    0.9799156640    1.9330280786   -0.1961231753
 H   -0.7153242052    1.9231716744   -0.7013734680
 H   -0.3061450053    1.8926519409    1.0198498019
 H   -1.3869156713   -0.3188650862    1.6518363025
 H   -1.5148712761   -1.6404884541    0.4219387362
 H    1.0802352924   -0.7639634939    1.9504515697
 H    2.3308966576   -2.0626603757   -0.0803952374
 H    0.8808754421   -2.7491216412   -2.0349830111
 H   -0.6090970423   -2.6269731462   -1.0136548302
 H    1.1956312643   -0.2430432314   -1.9690255360