17

 O    0.0401826425   -0.0212123414    0.0112200569
 C    0.0121887950    1.1856228752    0.0192909925
 C   -1.1843948794    2.1630470191    0.0757633633
 N   -0.6356102301    3.5290062594    0.0867982453
 C    0.6280761065    3.3674510606    0.0282214249
 C    1.8140093094    4.2898878334   -0.0052209408
 C    2.9856839256    3.3503620492    0.3915425709
 C    2.5359208918    1.9272636175   -0.0401662020
 N    1.0903566356    2.0531658523   -0.0165549310
 H   -1.8360542733    2.0091011239   -0.7917197426
 H   -1.7918239693    1.9736510944    0.9674928057
 H    1.9415192904    4.6783344444   -1.0223450557
 H    1.6923500028    5.1460776845    0.6597614151
 H    3.9334862088    3.6378468511   -0.0664154882
 H    3.1211026291    3.3723872581    1.4767771117
 H    2.8875236084    1.6724693609   -1.0473111787
 H    2.8739967663    1.1436515873    0.6420819327