17

 C    0.3892950547    1.3840061962   -0.0005260157
 C    0.0559899228   -0.0937908004    0.0556824670
 C   -1.4089660247   -0.3963173516   -0.2269018738
 O    0.9007567373   -0.8784580702   -0.8686249820
 C    1.3461631449   -1.7428081790    0.1879295878
 C    0.6029319048   -0.9185345702    1.2468386414
 O    1.8676796150   -0.4295902498    1.7781755266
 C    2.6078371375   -1.1867240146    0.8806807179
 O    3.7873676050   -1.2571338792    0.7946422487
 H    1.4334121897    1.5634338413    0.2602969943
 H    0.2113611809    1.7608687064   -1.0124110703
 H   -0.2445407775    1.9475318490    0.6914994888
 H   -1.6700182161   -0.0655148422   -1.2361024678
 H   -1.6112182821   -1.4695795438   -0.1591200518
 H   -2.0541758475    0.1247684280    0.4881081512
 H    1.2727072593   -2.8079928762   -0.0315229036
 H   -0.0594535141   -1.2754377137    2.0319536112