21

 C    0.0495742217    1.6253970935    0.0078073428
 C    0.0921100425    0.0949085964    0.0648881620
 C    0.6322676606   -0.5223148206   -1.2183344145
 C    2.1541991794   -0.4210859943   -1.4585619132
 O    2.3175008351   -1.8523069026   -1.3981461934
 C    0.8893414120   -2.0654973069   -1.2408611184
 C    0.5394854656   -2.8530676462   -0.0716812609
 C    0.2412520654   -3.5170749081    0.8884796568
 C   -0.1124311041   -4.3238531120    2.0468530785
 H    1.0463000772    2.0478894059   -0.1616164222
 H   -0.5992482555    1.9753110361   -0.8029070049
 H   -0.3311497401    2.0448748813    0.9439047899
 H    0.7091959748   -0.2319078324    0.9101544473
 H   -0.9136982814   -0.2984543097    0.2556109745
 H    0.0330485940   -0.1947916601   -2.0727932266
 H    2.4608251783   -0.0153283625   -2.4306627589
 H    2.7221427409    0.0860497675   -0.6674491601
 H    0.4801043663   -2.5478778657   -2.1395276142
 H   -1.1988957149   -4.3624722059    2.1830621592
 H    0.2436567362   -5.3539772901    1.9361398956
 H    0.3232089460   -3.9170175438    2.9659132606