17

 O    0.9309907561   -0.0294494566    0.3048779270
 C    0.5602632402    1.0839411616    0.0851802292
 O    1.3002024140    2.1711951749    0.3672558671
 C    0.7559436492    3.4650573066    0.0609517528
 C    0.6856398087    4.3206316786    1.3494402606
 C    1.9408301605    5.1688336905    1.3199594393
 O    3.1317773415    4.4106952124    1.0859359056
 C    2.5432442818    5.1055247173   -0.0180632609
 C    1.7024710879    4.2137629859   -0.9089237428
 H   -0.4197400181    1.3367121051   -0.3683680516
 H   -0.2369178295    3.3232020684   -0.3793954084
 H   -0.1980845158    4.9692438270    1.3321004416
 H    0.6198916756    3.6817779726    2.2338334378
 H    2.0479074605    6.0254834749    1.9804213353
 H    3.1381933213    5.9108994294   -0.4410587927
 H    2.2971747122    3.5055176467   -1.4914480018
 H    1.1260522640    4.8300623347   -1.6088426981