15

 O    0.3765299447    0.8823163926    0.7577151916
 C    0.1555408001   -0.2480948763   -0.0322551042
 C   -1.3198317434   -0.6773901219   -0.1374095548
 C   -1.3060157990   -1.3877709763   -1.5139783138
 O   -0.3251243679   -0.6833999103   -2.3034520303
 C    0.5043353028    0.0124919478   -1.4978055698
 O    1.3632287785    0.7512876000   -1.8886606622
 C   -1.8255119149   -1.5092235408    0.9386760871
 C   -2.2396454059   -2.2180453647    1.8157849739
 H    1.0614827051    1.3962757398    0.3058220291
 H    0.7550658624   -1.1085931086    0.3109859686
 H   -1.9139975765    0.2416540110   -0.2141901901
 H   -1.0049452400   -2.4354350718   -1.4176859724
 H   -2.2599757852   -1.3324286446   -2.0387491929
 H   -2.6074764409   -2.8331155759    2.5997585904