12

 N   -0.0048469494    1.3552277384   -0.0397423755
 C   -0.0796223515    0.0191134664   -0.1748580222
 N   -1.0484049703   -0.6540011925    0.3466968567
 C   -1.0745718948   -2.0068995561    0.1784061748
 C   -1.9881522650   -2.9242268020    0.6315411321
 N   -1.5761229396   -4.1538048461    0.2025818769
 N   -0.5124968269   -4.0791890117   -0.4605197065
 O   -0.1343485584   -2.6718889598   -0.5079910537
 H    0.7480327024    1.8804384836   -0.4446159860
 H   -0.7190925221    1.8405060679    0.4789854166
 H    0.7335961916   -0.4288146297   -0.7510783236
 H   -2.8788183159   -2.7765164684    1.2157096704