16

 C    0.0361290877    1.3561893260   -0.1492810988
 C    0.0707291945   -0.1697797744    0.0180452659
 C    0.7986059296   -0.5030353702    1.3138630714
 O    1.9759085339   -0.7389104169    1.3898555006
 N   -1.2889929764   -0.6923715351    0.1076025150
 C   -1.9695475309   -0.9521215497   -1.1565650298
 C   -1.4858507253   -2.0789271407   -0.3130884118
 H    1.0512286530    1.7566188894   -0.2119319764
 H   -0.5017435294    1.6207865947   -1.0643630061
 H   -0.4802308623    1.8238530190    0.6944733748
 H    0.6469826019   -0.6160544145   -0.8102885625
 H    0.1396024092   -0.4835176434    2.2111609521
 H   -3.0248610078   -0.6970973353   -1.1865636613
 H   -1.4265216193   -0.7544768771   -2.0795452832
 H   -0.6194701117   -2.6321085617   -0.6717249267
 H   -2.1813372867   -2.6584318800    0.2864449868