18

 C    0.1012525503    1.5576937656    0.1131258511
 C    0.0273381436    0.0313511341    0.0431949939
 C    0.5920805427   -0.5253950297   -1.2784513864
 C    0.5691536646   -2.0074409322   -1.3573328115
 C   -0.0588617376   -2.8836520403   -2.1538126898
 N    0.3140209820   -4.1593617352   -1.7226383633
 C    1.1761532027   -4.0666828660   -0.6550743973
 O    1.7118210932   -4.9287980909   -0.0140621540
 O    1.3296259792   -2.7082413495   -0.4330096157
 H    1.1360982659    1.9086019414    0.0330845979
 H   -0.4691892526    2.0224985162   -0.6990392621
 H   -0.3035606439    1.9295526333    1.0590124696
 H    0.5830121438   -0.4103025295    0.8773868649
 H   -1.0118139870   -0.3012910153    0.1528129947
 H    0.0208479350   -0.1318243394   -2.1271199385
 H    1.6246309454   -0.1709719294   -1.4029885865
 H   -0.7285471623   -2.7215080276   -2.9804643757
 H    0.0291218350   -5.0424134157   -2.1060792713