11

 N    0.0342591615    1.3246727685    0.1630010552
 C    0.0145808498   -0.0506064459    0.0467846418
 N   -1.0999439444   -0.7602500203    0.0925700963
 N   -0.6026937398   -2.0485589737    0.0137554242
 C    0.7310229546   -2.0063532312   -0.0806674857
 O    1.4586823914   -3.1235936606   -0.1772627589
 N    1.1787220947   -0.7697827482   -0.0657898555
 H    0.8213073137    1.7505881884   -0.3037931399
 H   -0.8456479783    1.7592961666   -0.0746432259
 H   -1.2178280448   -2.8424378309    0.0315367876
 H    2.3831515616   -2.8483272228   -0.2202303193