15

 O    0.1863016386    1.3600692471   -0.2881865732
 C    0.0458984947    0.0300846762   -0.0156318429
 C   -0.3292677464   -0.9365689931   -1.1115805189
 C   -1.1900234985   -0.8933094009    0.1244552372
 N   -0.4990561148   -1.5737732676    1.2234959564
 C   -0.6479536027   -2.8023152038    1.8029034057
 O    0.1229704759   -3.2628247758    2.6162376037
 C    0.6301735741   -0.6960876794    1.1723615059
 N    1.6501960566   -0.5128628546    1.8805708808
 H    0.2774547993    1.8318740855    0.5486456304
 H   -0.7524598165   -0.4307507845   -1.9751480510
 H    0.2747108528   -1.8107257175   -1.3373076895
 H   -2.2445537662   -0.6617857688    0.1732660292
 H   -1.5720625176   -3.3140643321    1.4707744535
 H    1.6943582807   -1.1984133804    2.6365472327