18

 C    0.0714071264    1.5244369872   -0.2048835036
 C   -0.0253330580    0.0308868535    0.0519844242
 N    1.2612347217   -0.7142655645    0.0429339143
 C    0.5116811173   -0.6217380297    1.2948615793
 C    1.1514713710    0.1499257223    2.4411110929
 C    1.9716937223   -0.7143388736    3.2838873459
 C    2.6319524134   -1.4492618073    3.9679473710
 C   -1.1672212992   -0.6109033158   -0.5544983285
 C   -2.1125827979   -1.1347367647   -1.0833000083
 H    0.9903515207    1.9340611179    0.2171028640
 H    0.0797659261    1.7172069498   -1.2815619089
 H   -0.7866470714    2.0487760137    0.2267149118
 H    1.1359466696   -1.6269257711   -0.3869358634
 H   -0.0292627093   -1.5077925340    1.6191508280
 H    1.7671702107    0.9605993822    2.0401867275
 H    0.3636553193    0.6143549177    3.0486245753
 H    3.2256480569   -2.0876896472    4.5738743538
 H   -2.9491309997   -1.6002929265   -1.5428317554