17

 C    0.0120527750    1.5020558611   -0.1175204808
 N    0.0386354643    0.0522409622    0.0492013823
 C    0.8309923624   -0.3471855017    1.2075015227
 C   -1.2676946591   -0.5437183274   -0.0145617916
 C   -1.4193447891   -2.0805236678   -0.1068168561
 O   -2.2934641752   -2.0805941332    1.0640129734
 C   -2.1359526663   -0.7279094253    1.2640273590
 O   -2.5526776416   -0.0733743319    2.1645350834
 H    1.0382751933    1.8725085397   -0.2032823043
 H   -0.5180016753    1.7579333110   -1.0401986564
 H   -0.4741248402    2.0307289579    0.7193127728
 H    0.4187090870    0.0203651515    2.1621934498
 H    0.9043538927   -1.4368533219    1.2641226419
 H    1.8459617726    0.0455008148    1.0982850048
 H   -1.8480582859   -0.0353531736   -0.7897845133
 H   -1.9417417587   -2.4655667821   -0.9843864502
 H   -0.5129274460   -2.6576976232    0.0822490127