20

 N    0.0118943803   -1.2810581814   -0.0140993388
 C    0.0105098044   -0.1250807552    0.0283151027
 C    0.0183752369    1.3285787728    0.0912034402
 C   -0.0776419872    1.8968370975    1.5471214854
 C    1.4667126122    2.0889256522    1.5505227693
 C    1.4503784196    1.9554936554    0.0000587377
 C    2.0422550360    3.3316786198    2.1660639758
 C    2.4424243398    3.3513958124    3.6219617432
 C    3.5014346396    3.3919255572    2.5499069798
 H   -0.7165084539    1.7124488964   -0.6201053265
 H   -0.6062885311    2.8540560969    1.5444282665
 H   -0.5172973828    1.2484069646    2.3059947175
 H    1.9449912202    1.2061738119    1.9894472097
 H    2.2274406081    1.3537820953   -0.4729669111
 H    1.4044221146    2.9312617661   -0.4913723443
 H    1.6161538439    4.2558063355    1.7800944234
 H    2.2538967344    4.2518292635    4.1956933146
 H    2.3311512298    2.4330151992    4.1892821483
 H    4.1015338441    2.5007560988    2.3970845534
 H    4.0382657711    4.3201092209    2.3893540130