16

 N   -0.2448819215    1.2851803238    0.1736915370
 C   -0.0465008804    0.0591472076   -0.0182088012
 O   -1.1156951123   -0.7930867046    0.1328799543
 C   -0.9085050667   -2.1359728799   -0.0714863408
 O    0.1545365352   -2.6169128085   -0.3550080110
 C   -2.2104894940   -2.8700360695    0.0762285727
 C   -3.0572761513   -2.9779251041   -1.2276175390
 O   -2.9833292785   -4.4108444320   -1.2051449187
 C   -2.1511593391   -4.4049410803   -0.0251413367
 H    0.6216859674    1.8019994105    0.0301231807
 H    0.8719920493   -0.4578609971   -0.2957854070
 H   -2.7668698439   -2.4660336665    0.9218293039
 H   -4.0845955233   -2.6074768693   -1.1417855910
 H   -2.5927861487   -2.5491936116   -2.1241830349
 H   -1.1491502515   -4.7995321484   -0.2214642507
 H   -2.6124479508   -4.9505208202    0.8051173924