14

 N   -0.0357092676    1.5089396617   -0.0026533926
 C    0.0032629867    0.0524128383   -0.0161136086
 C    0.1809771175   -0.5427529053    1.4157184359
 N   -1.2790581490   -0.7614553309    1.4938762944
 C   -1.4257997906   -0.5729862999    0.0349064620
 C    0.8965694927   -0.4971669060   -1.0435578929
 N    1.6095849009   -0.8924917742   -1.8646028229
 H    0.8977885927    1.8806106289    0.1530749577
 H   -0.3377369476    1.8573705584   -0.9088454064
 H    0.7935218374   -1.4523578722    1.4153918932
 H    0.5732257967    0.1633981513    2.1545135522
 H   -1.5536116962   -1.6751953548    1.8333641860
 H   -2.2302249475    0.1106538753   -0.2546813060
 H   -1.4977882361   -1.4954731504   -0.5536748819