18

 C    0.0049339158    1.5129843804   -0.0040159398
 C    1.5339978973    1.7235908092   -0.0159941969
 C    1.9371537319    0.6647150949    1.0449921747
 C    1.0317729642   -0.3241369065    1.0813465887
 C    0.0655873805   -0.0118086366   -0.0357107052
 N   -0.8822558505   -0.6823539328   -0.9207054937
 C    0.5571380594   -0.5726763523   -1.3234635038
 C    1.3267838456    0.4027356002   -2.1476784928
 C    1.9343020300    1.3887470787   -1.4631816533
 H   -0.4584360496    1.8591459488    0.9259777185
 H   -0.5061268138    1.9464555834   -0.8629255617
 H    1.8710520110    2.7277249482    0.2490548037
 H    2.8429737898    0.7275261778    1.6349694488
 H    1.0598239701   -1.2234849494    1.6837064047
 H   -1.0522407114   -1.6519019515   -0.6581609198
 H    1.0874813300   -1.5223785762   -1.2242963848
 H    1.5588942286    0.2077598871   -3.1919400679
 H    2.6549130711    2.0373185665   -1.9540156892