18

 N    0.3888692486    0.8051308265    0.7787177023
 C    0.1311522986   -0.2329954747    0.1277095651
 C   -1.1047490283   -1.0727678616   -0.1067003194
 C   -0.1649271413   -1.9157544939   -0.9985079366
 O    0.9460647038   -1.0142669706   -0.6732593419
 C    0.1098653125   -3.3360263143   -0.5609387630
 C    1.5247410442   -3.8956675947   -0.8409214371
 C    1.6449371936   -3.9538004378    0.6946966786
 O    0.3040144031   -3.4376234442    0.8641116023
 H    1.3694751674    1.0726036786    0.6780283453
 H   -1.4674642645   -1.5853774315    0.7846181433
 H   -1.9234539432   -0.5600657272   -0.6123978259
 H   -0.3729821628   -1.8773264273   -2.0732077833
 H   -0.7213050234   -3.9723820981   -0.8983855248
 H    1.5501595893   -4.8579074420   -1.3528172377
 H    2.1998126813   -3.1952595668   -1.3325921066
 H    1.7477630863   -4.9553483317    1.1276016467
 H    2.3928412449   -3.2882817888    1.1385962428