16

 C   -0.0766178926    1.4953772405   -0.0060023283
 C    0.0211751475   -0.0166188278    0.0275143190
 O    1.0894527222   -0.6000446831    0.0655331502
 C   -1.2480663570   -0.7642433817    0.0109103029
 C   -1.3768638945   -2.1298582183    0.0197090971
 N   -2.7321191905   -2.3677771882   -0.0028229625
 C   -3.3593674957   -1.1464801762   -0.0192886384
 N   -4.7416808091   -1.0375925725   -0.1225638755
 N   -2.5005941742   -0.1605766762   -0.0063421663
 H    0.9263744192    1.9230638870    0.0075990403
 H   -0.6170590563    1.8206867922   -0.9007283849
 H   -0.6564304433    1.8567479107    0.8492971312
 H   -0.6443682605   -2.9176498427    0.0464596120
 H   -3.1786993984   -3.2664552017   -0.0795867470
 H   -5.2503798895   -1.5733799952    0.5707278713
 H   -5.0125515572   -0.0634894170   -0.0731251010