17

 C    0.2171633241    1.1144337251    0.4252853219
 O   -0.4488124583    0.1895884253   -0.4413746827
 C    0.3671200825   -0.5245619272   -1.2459706616
 C    0.7102677412   -1.8278223936   -1.1878559610
 C    0.3477135321   -2.8815069266   -0.2043488160
 N    1.5438003613   -2.0552706288   -2.2973465986
 C    1.7074614435   -0.9153712979   -3.0697892309
 O    2.3181447556   -0.7870143076   -4.1121774037
 N    0.9979182285    0.0508789832   -2.3587296911
 H    0.9180725972    0.5913859356    1.0862504000
 H    0.7643364025    1.8743817402   -0.1452188689
 H   -0.5611226804    1.5980675621    1.0179107603
 H   -0.1673737274   -3.7246736124   -0.6817603983
 H    1.2276023945   -3.2858326727    0.3115953719
 H   -0.3247882200   -2.4606890257    0.5462256376
 H    1.9096451258   -2.9442879353   -2.5895797910
 H    0.7826855674    0.9489868063   -2.7555366080