21

 C   -0.0331537187    1.4981455891    0.1111675736
 C    0.0142717470   -0.0083940135    0.0421383011
 C    0.9200604964   -0.7644785387   -0.9754690065
 C    0.8326143168   -1.9082093115    0.0427928077
 C   -0.6901195966   -2.1385368552    0.4492920038
 C   -0.3191487768   -1.7526806330    1.9093722595
 C    0.7245739933   -0.8787381756    1.1985895147
 O    1.8663901868   -0.3579333041    1.7970503804
 C   -1.2950943076   -0.8183416398   -0.0747013643
 H    0.9633697802    1.9144404405    0.2986673914
 H   -0.3960026610    1.9281974955   -0.8295738816
 H   -0.7024854954    1.8450577403    0.9080869356
 H    0.5376539926   -0.9036822022   -1.9920904598
 H    1.9330711776   -0.3547893671   -1.0098840364
 H    1.5032466934   -2.7655914283    0.0768530121
 H   -1.2022858587   -3.0725743900    0.2266441562
 H   -1.0959746925   -1.2994645094    2.5354046264
 H    0.1740502794   -2.5656593330    2.4502383668
 H    1.6178957316    0.4293946126    2.2942719520
 H   -2.1032653755   -0.4496075903    0.5656242119
 H   -1.6647772623   -0.8662599165   -1.1039914347