19

 C    0.0299222162    1.5834456505    0.0027508768
 C    0.0083326025    0.0537598114    0.0360658361
 N   -1.3410640317   -0.5070417335    0.0347502693
 C   -2.0167829449   -0.7533784362    1.2265474917
 C   -3.2593360348   -1.2317244691    1.2885794193
 C   -4.0335831538   -1.5443427369    0.0435131339
 N   -3.2662917670   -1.1433814876   -1.1292355470
 C   -1.9790782953   -0.6800218137   -1.1913226448
 O   -1.4288021556   -0.4251750359   -2.2503539131
 H    1.0619537490    1.9487063152    0.0168868034
 H   -0.4499553309    1.9435526236   -0.9104801482
 H   -0.4938839074    2.0089992901    0.8650469615
 H    0.5236882501   -0.3435750278   -0.8397843260
 H    0.5190234161   -0.3221597245    0.9287052406
 H   -1.4432292844   -0.5314297267    2.1195823012
 H   -3.7260447745   -1.4165706469    2.2468549276
 H   -4.2737880520   -2.6204349447   -0.0037107843
 H   -5.0023165187   -1.0198224684    0.0473477590
 H   -3.6744370431   -1.2676096788   -2.0415520568