14

 O    0.1350518333    1.3437563544    0.0681258370
 C   -0.0138149533   -0.0303353508    0.0049275952
 C   -0.4599674761   -0.8366167454    1.1749481526
 N   -1.3839618369    0.0382367928    1.9396860533
 C   -2.3858710211   -0.0598066074    0.8260409452
 C   -2.9790121320    1.2126957842    0.4004110708
 N   -3.4853616580    2.1988516670    0.0748159878
 C   -1.3513847949   -0.7480954732   -0.0760424075
 H   -0.2307322883    1.6205172005    0.9220121043
 H    0.7453566457   -0.4941885696   -0.6183449742
 H    0.0671704124   -1.6595990853    1.6422380882
 H   -1.7308790235   -0.3892939731    2.7900197901
 H   -3.1995833012   -0.7499939543    1.0707278995
 H   -1.5986507860   -1.4699697597   -0.8429815122