22

 C   -0.0579050972    1.5908986832    0.0503608445
 C   -0.0063137428    0.0607622045    0.0461343679
 C   -1.3876717891   -0.5859526326   -0.0354892838
 O   -1.9909630194   -0.1966446229   -1.2618703463
 C   -3.2921984946   -0.7471109282   -1.3774004412
 C   -3.2282832222   -2.2614844783   -1.5799083525
 N   -2.2890034549   -2.9375070562   -0.6658992920
 C   -0.8783889489   -2.9281651782   -1.0597789894
 C   -1.3370081988   -2.1013793613    0.0841282625
 H    0.9489046767    2.0174735242    0.0870809419
 H   -0.5553569518    1.9617529716   -0.8492174720
 H   -0.6111131733    1.9660190867    0.9187091127
 H    0.5904311048   -0.2952636443   -0.8014197295
 H    0.4879093405   -0.3048929469    0.9547366857
 H   -2.0096440582   -0.2010583371    0.7945856549
 H   -3.8775395987   -0.5052127333   -0.4750332313
 H   -3.7749185517   -0.2622517293   -2.2311943947
 H   -4.2263504461   -2.6891601145   -1.4232454536
 H   -2.9407224805   -2.4841094348   -2.6137219772
 H   -0.3368536178   -3.8560412000   -0.8929966893
 H   -0.6165924312   -2.4006880077   -1.9750706612
 H   -1.1492910947   -2.4557635546    1.0971577641