21

 C   -0.1449612661    1.5432326059   -0.2039902939
 C    0.0170261429    0.0618414330    0.0612785389
 O    0.9216575657   -0.6244270028   -0.8495602508
 C    1.3530186395   -1.5043681963    0.2250474115
 C    2.8667179869   -1.6449854993    0.4116741871
 C    3.2813709424   -0.4959629769    1.3257543231
 C    2.9905280024    0.8904119800    0.8303347578
 C    2.0240769388    0.2269294596    1.7941997302
 C    0.7964205517   -0.5101833419    1.2729111546
 H    0.7782611027    2.1006610287   -0.0438084148
 H   -0.4727551328    1.6994872908   -1.2371564424
 H   -0.9161592432    1.9532408387    0.4573916333
 H   -0.9732130063   -0.4188589939    0.0039625192
 H    0.8404270527   -2.4716719548    0.1466778429
 H    3.0810902539   -2.6071143120    0.8910154974
 H    3.3815257745   -1.6389472796   -0.5553951953
 H    4.1195179433   -0.6480124380    1.9970240062
 H    3.5857656568    1.7054244152    1.2294527134
 H    2.7111053714    1.0010735477   -0.2097672902
 H    1.9729604109    0.6381002563    2.7961220193
 H    0.1908798318   -0.9031067104    2.0925699625