18

 C   -0.0293252210    1.5625258325    0.0227500454
 C   -0.0067502636    0.0515311356    0.0576102493
 C    1.2577439164   -0.7133759122   -0.2234147961
 C    0.6946205844   -0.6684559813    1.1770525617
 C    1.3312509952   -0.1443397917    2.4564785177
 N    0.2217506480    0.0208291579    3.4093598870
 C    0.8451668210   -1.3391855444    3.2300963812
 C    0.2462547210   -1.9009566972    1.9463753946
 O   -0.2360020135   -2.9498356565    1.6274188230
 H    0.9244171756    1.9810708050    0.3610499342
 H   -0.2107160963    1.9285315446   -0.9934402320
 H   -0.8155888365    1.9577761041    0.6732486993
 H   -0.9241852911   -0.4316748609   -0.2700567158
 H    1.1946231978   -1.6635630402   -0.7436254526
 H    2.1652093175   -0.1471217041   -0.4113184630
 H    2.2764836812    0.3705600576    2.5665088458
 H    0.6099800751    0.3816377838    4.2828359964
 H    1.2818079689   -1.8629642728    4.0704008139