15

 O    0.0698819445    0.0960779937    0.1688652353
 C    0.0372204927    1.2902838656    0.1584712440
 C   -1.0492271264    2.3223807154    0.1099754579
 C   -0.4518550262    3.5955427299    0.6459636471
 N   -0.1547071648    3.2041829815   -0.7595524516
 C    1.0517775341    2.4048089396   -0.1299342143
 C    0.9610875604    3.3177162898    1.0894036945
 C    1.9258667745    4.3045897475    1.6067465273
 N    1.5606071656    3.0982235770    2.3878067761
 H   -2.1080486924    2.2072293101   -0.0844844732
 H   -1.0826589933    4.4484804958    0.8758919982
 H    1.9659079141    2.2348751087   -0.6915697618
 H    2.9495322112    4.3185266948    1.2434717119
 H    1.5415709967    5.2718011636    1.9229696953
 H    0.9137517693    3.3273683069    3.1383640734