17

 O    0.5763533807    0.9810193245   -0.4811978950
 C    0.1257048499   -0.1865589295    0.1482482350
 C    0.0468085340   -0.2066318155    1.7006957160
 C   -1.4306996609   -0.6944981273    1.6239133583
 C   -1.4253300954   -0.5171727937    0.0859351606
 C   -1.7726900708   -1.8692751335   -0.4579690487
 C   -1.8828770287   -2.7975571134    0.5044096310
 C   -1.6484693362   -2.1973096051    1.8426761956
 O   -1.6095089864   -2.7723137937    2.9061840808
 H    0.1279798650    1.7355604018   -0.0839743742
 H    0.7293763080   -0.9968924318   -0.2667681320
 H    0.7477011296   -0.8554429052    2.2305151142
 H    0.1305201699    0.8022653966    2.1161510595
 H   -2.1487768698   -0.1221088077    2.2132572485
 H   -2.0065843930    0.3034430035   -0.3428444718
 H   -1.8601771575   -2.0607974300   -1.5229091987
 H   -2.0809521687   -3.8537191599    0.3723273009