13

 O    0.0056292718    0.0594401732    0.5241465010
 C   -0.0137611533    1.1497532463    0.0493158217
 O   -1.1753767537    1.7975591550   -0.2243645284
 C   -1.1109725687    3.0946363771   -0.7901668239
 C   -0.0657159526    3.3523966633   -1.9042700875
 O   -0.0782483634    4.7749917639   -1.5303041700
 C   -0.0531181335    4.0803987822   -0.2338892062
 C    1.0137971048    3.1205308014   -0.8174806475
 O    1.1243066642    1.8255808264   -0.2539338148
 H   -2.1242287042    3.4601329886   -0.9418314339
 H   -0.0760584447    3.0879206675   -2.9594165758
 H   -0.0486204615    4.6732860335    0.6781706205
 H    2.0136146649    3.5105606018   -0.9950172651