18

 C   -0.4761454566    1.2580328004   -0.0349084088
 C   -0.1448842436   -0.1996029254   -0.0631582690
 C    0.0118231568   -0.9766929138   -1.1410347198
 C    0.2514341252   -2.4020456937   -0.7674887450
 C    0.2288462415   -2.4374808309    0.7493877452
 C    0.0069821692   -1.0004195930    1.2215303192
 N   -0.8080606378   -3.0731837096   -0.0326391386
 C   -2.1623889282   -2.8151463009   -0.0535727211
 O   -2.8188427071   -2.6085325509   -1.0443631098
 H    0.2608883049    1.8223927048    0.5503557167
 H   -0.5106611933    1.6799976494   -1.0424374470
 H   -1.4510058385    1.4324632247    0.4377892201
 H   -0.0557634101   -0.6440576075   -2.1693129504
 H    0.8882579907   -3.0437263399   -1.3684741099
 H    0.8637664297   -3.1013445184    1.3280937823
 H    0.8627275579   -0.6516282583    1.8141440691
 H   -0.8731045358   -0.9037519065    1.8713623981
 H   -2.6040144250   -2.8985920403    0.9607817288