17

 O   -0.0155126016   -0.0014637101   -0.3081478045
 C    0.0114663929    1.1731861064   -0.0962392876
 O   -1.0991008993    1.9389679814    0.1090915702
 C   -0.6434772843    3.2788652609    0.3976850635
 C   -0.4593275158    3.4665331245    1.9041376595
 C    0.5081508540    2.3977098001    2.4585784256
 C    1.6979058261    2.1418015660    1.5059572894
 C    1.2052003732    2.1245875213    0.0495760536
 O    0.6037616457    3.3856389832   -0.2537394829
 H   -1.3471042454    3.9793347890   -0.0550372826
 H   -0.0590825367    4.4758573728    2.0504685468
 H   -1.4267580675    3.4160803224    2.4132348276
 H    0.8685343476    2.6923888558    3.4480482405
 H   -0.0434253819    1.4616121168    2.5980065663
 H    2.4412123349    2.9421629260    1.5845629699
 H    2.1938201897    1.1974778286    1.7514764459
 H    1.9917315485    1.9150384549   -0.6748879212