16

 C   -0.0419370600    1.5078887530   -0.0376001948
 C    0.0525752398   -0.0134811706    0.0135290992
 O    1.1318471156   -0.5783234400    0.0376884944
 C   -1.1973085946   -0.7687288048    0.0322110674
 C   -1.3753424755   -2.1481336557    0.0770401691
 C   -2.7622914733   -2.3930735321    0.0781680504
 O   -3.4196219677   -3.5848979811    0.1143941552
 C   -3.4121185526   -1.1682999709    0.0341860062
 N   -2.4499599881   -0.1988556658    0.0068082181
 H    0.9662296133    1.9221747496   -0.0456037321
 H   -0.5723631668    1.8398590937   -0.9378762930
 H   -0.5825958976    1.8988283726    0.8323973289
 H   -0.5711573399   -2.8672995949    0.1049838982
 H   -2.7689286443   -4.2921827867    0.1415167555
 H   -4.4642395680   -0.9373982085    0.0211603175
 H   -2.6342670605    0.7881668422   -0.0269219503