18

 C   -0.2504556508    1.3484678889   -0.2419245108
 O   -0.2813843390   -0.0576191465   -0.2998183591
 C    0.9160862802   -0.5924530982   -0.8356397285
 C    0.8534361705   -2.0452249290   -0.8782679857
 C    0.8277325159   -3.2492644718   -0.9252612032
 C    0.7935016765   -4.6807112306   -0.9734315759
 C   -0.4090292131   -5.3937857291   -1.5748105262
 C    0.8970635548   -5.4037380356   -2.3089000586
 H    0.5688811633    1.7159154994    0.3971813761
 H   -0.1314404206    1.7990596229   -1.2407835101
 H   -1.2024179879    1.6762774690    0.1817021099
 H    1.0889012268   -0.1938122878   -1.8513410687
 H    1.7809314492   -0.2740460320   -0.2265905439
 H    1.2620083563   -5.1814283374   -0.1310176626
 H   -0.7377673425   -6.3035876898   -1.0855095686
 H   -1.2070708139   -4.7699359575   -1.9585514486
 H    0.9895298704   -4.7873064799   -3.1948903546
 H    1.4747774739   -6.3208810551   -2.3303223811