18

 C   -0.0945064664    1.5332594368   -0.0006503417
 C    0.0527491476    0.0135133498   -0.0016882354
 C    0.9819331125   -0.5393549987   -1.1039882777
 N    2.3463946665   -0.3590533122   -0.4540907522
 C    1.8717654300   -1.4270109297    0.5222830806
 C    0.8063160213   -0.5891891486    1.2568701945
 O    1.3924140484    0.3683413472    2.1040831011
 C    1.1301651469   -2.0181024449   -0.6934592682
 O    1.0040858773   -3.0910119383   -1.2035834401
 H    0.8779507948    2.0301685480   -0.0497675153
 H   -0.6818360669    1.8576346512   -0.8655452820
 H   -0.6003168411    1.8763290242    0.9053302278
 H   -0.9366487675   -0.4471273241   -0.0927121982
 H    0.8512474581   -0.2009274196   -2.1307794780
 H    3.0605842841   -0.7562527651   -1.0637925972
 H    2.6109332448   -1.9600680742    1.1170281910
 H    0.1493614601   -1.1960058290    1.8829823256
 H    2.0849949795    0.7950704572    1.5818086654