17

 C   -0.0445013492    1.6351300190    0.1057484409
 C    1.4180202125    1.1830436982   -0.0235502333
 O    1.1220378172    0.0399597952    0.9089350322
 C   -0.0061918653    0.0905453297   -0.0444562656
 C   -1.1478638126   -0.8388364611   -0.3303027274
 O   -1.6027310347   -0.3918313550   -1.6215697587
 C   -0.6086997059   -0.3543914037   -2.6222209909
 O    0.4306006759    0.5906738801   -2.3884714950
 C    1.0231677358    0.2124404133   -1.1684665078
 H   -0.3309856824    1.9921784941    1.0953023545
 H   -0.4728379293    2.2096386399   -0.7142511573
 H    2.3467118058    1.7239108042    0.1542319516
 H   -0.8116695872   -1.8858466135   -0.3674168225
 H   -2.0033514139   -0.7554384650    0.3436112692
 H   -0.1628312845   -1.3580985848   -2.7418920180
 H   -1.1114636690   -0.0456845326   -3.5392207571
 H    1.6961373667   -0.6465240981   -1.2743774049