15

 O    0.1966164787    1.3639859041   -0.0810393831
 C    0.0971372212    0.0173599081   -0.0685558849
 C    0.2621658626   -0.8327685351   -1.1319547160
 N    0.0555064985   -2.0976019501   -0.5962685443
 C    0.1064219465   -3.3594101837   -1.3176429495
 C    1.4308770747   -3.6776444130   -1.8471335268
 C    2.5121684042   -3.9428713794   -2.2962247411
 C   -0.2126107847   -1.9339786370    0.7231850645
 N   -0.1980487280   -0.6634997294    1.0772598378
 H    0.0282794559    1.6524855377    0.8242805867
 H    0.5111195348   -0.6762326533   -2.1660610328
 H   -0.2204031372   -4.1430011631   -0.6260356757
 H   -0.6229980976   -3.3373256887   -2.1370655152
 H    3.4722910029   -4.1757287821   -2.6865631402
 H   -0.4133540624   -2.7710134849    1.3752737406