13

 O   -0.3097226674    0.5232062437    0.8250471744
 C    0.2514879681    0.8461692978   -0.1878800011
 C    1.4371805165    1.7650692443   -0.1958597448
 N    2.3243115288    1.6477070447   -1.3494657743
 C    1.5176441703    2.8770661645   -1.2406880438
 C    0.4802203022    3.0815702790   -2.2196522221
 C   -0.3922515901    3.2766061744   -3.0204651677
 C    2.1887520495    4.0820234100   -0.7928558030
 N    2.7498427312    5.0284600761   -0.4379927923
 H   -0.0539663919    0.4870667572   -1.1909417742
 H    1.8408766190    2.0030866759    0.7846418040
 H    3.2909515887    1.8324132232   -1.0906783183
 H   -1.1614650248    3.4457599792   -3.7340925268