16

 C    0.0089689052    1.6080221930   -0.0532156835
 C   -0.0061602315    0.0829847918    0.1012501607
 C    0.7447965392   -0.6564551653   -1.0858609379
 O    1.6146940819   -1.7117254962   -0.5608547413
 C    1.6282500774   -1.4742786117    0.7701371755
 C    0.8082142210   -0.5044672206    1.2006301949
 O    0.9048255893   -0.4603807682    2.5650451573
 C    1.8231366343   -1.4303695824    2.8362416196
 N    2.2929537319   -2.0765911238    1.8044698631
 H    1.0355321847    1.9845674550   -0.0998705006
 H   -0.5127370003    1.9117339243   -0.9670101286
 H   -0.4920541520    2.0883555711    0.7922936266
 H   -1.0522352664   -0.2522961196    0.1496662327
 H    0.0580823712   -1.1238353102   -1.7933111907
 H    1.3826550036    0.0564442391   -1.6194899233
 H    2.0842387805   -1.5643333264    3.8736713556