23

 C   -0.0227665731    1.4541242546   -0.0577721834
 O    0.0039897931    0.0482060418   -0.1837139878
 C    0.6391786680   -0.5186538859   -1.3101163343
 C    0.1798054589   -0.0212795435   -2.7097823248
 O    1.4942132420    0.4860849222   -3.0098364530
 C    2.0205721999    0.0554263195   -1.7402676331
 C    0.5976134714   -2.0395981911   -1.1073002733
 C    1.3928152214   -2.4580737179    0.1373736466
 C   -0.8464097842   -2.5569488828   -1.0450600535
 H    0.9720931703    1.8768026562    0.1352769156
 H   -0.4443019117    1.9522578290   -0.9404439140
 H   -0.6620190781    1.6726613919    0.8009917582
 H   -0.1281833941   -0.8091417296   -3.4083271787
 H   -0.5827145429    0.7664071813   -2.7112451956
 H    2.4071135867    0.8909303710   -1.1463310597
 H    2.8165413468   -0.6909774906   -1.8549832300
 H    1.0832286229   -2.4763382211   -1.9903064701
 H    1.3932505022   -3.5470617764    0.2460177686
 H    2.4364435394   -2.1305722059    0.0804464603
 H    0.9523950504   -2.0230622865    1.0381731646
 H   -1.4096394282   -2.2955201381   -1.9472723382
 H   -0.8601197092   -3.6471815645   -0.9501984184
 H   -1.3710473719   -2.1308121738   -0.1861067459