24

 C   -0.2436470509    1.6565923048   -0.3071478346
 C    0.0426456899    0.1756060166   -0.0295977864
 C    0.8150896240   -0.5432051266   -1.1551078991
 C    2.2929023707   -0.1400124904   -1.1473058917
 O    2.9009107657   -0.6360308461   -2.3339695811
 C    0.6525426134   -2.0880489814   -1.1475587714
 C    0.9552657887   -2.7346162080    0.2132678564
 C   -0.7334093257   -2.5153950605   -1.6513934151
 H    0.6740085464    2.2405086421   -0.4297986257
 H   -0.8344386252    1.7765355772   -1.2219939115
 H   -0.8090427360    2.1073182185    0.5148357334
 H    0.5938910718    0.0805363092    0.9152433385
 H   -0.9132446652   -0.3348364644    0.1320257210
 H    0.4148175060   -0.1910874363   -2.1166342941
 H    2.3817407562    0.9554780547   -1.0978164760
 H    2.7884143042   -0.5451931781   -0.2501340476
 H    3.8406055828   -0.4371757940   -2.2967659961
 H    1.3901903956   -2.4640570596   -1.8654578304
 H    0.2180269973   -2.4482415720    0.9712998423
 H    0.9295996400   -3.8262503541    0.1305817470
 H    1.9453446794   -2.4607530321    0.5916615419
 H   -0.9358998192   -2.1098324901   -2.6483084277
 H   -0.8043283919   -3.6065472147   -1.7143986577
 H   -1.5354869579   -2.1780195246   -0.9846017143