21

 C   -0.0645740260    1.5416154668    0.0366322511
 C   -0.0199802189    0.0294622923    0.0237138690
 C    1.3059802990   -0.6996497327   -0.2211401715
 C    0.7067550695   -0.7194091370    1.1380757153
 C    1.3266662452   -0.1088693307    2.4037417448
 C    1.2164397553   -1.5123186841    3.0710057506
 C    0.2749710303   -1.9726428676    1.9201642941
 C   -1.2161595066   -0.6448565058   -0.5312065581
 O   -2.2101489043   -0.0755128674   -0.9153746990
 H    0.8448998373    1.9609640302    0.4747870052
 H   -0.1706359134    1.9340381602   -0.9791057054
 H   -0.9226882088    1.8994206341    0.6132870981
 H    1.2766770026   -1.6106695680   -0.8129150682
 H    2.1705534420   -0.0699228972   -0.4068522457
 H    2.3277011733    0.3193666230    2.3077480610
 H    0.6745297611    0.6319534771    2.8764102964
 H    2.1686126323   -2.0477785021    3.0645343456
 H    0.8065358675   -1.5423721256    4.0822840620
 H   -0.7799050126   -1.9521225128    2.2098563727
 H    0.4900802154   -2.9405405165    1.4601989640
 H   -1.1408821102   -1.7566286362   -0.5763803822