18

 O   -1.3538085806    1.1881510777    0.1462246328
 C   -0.1748008869    1.1832684249   -0.0987378755
 C    0.4646558774    1.8230130978   -1.3081977639
 C    1.5520003934    2.8380373030   -0.9134996444
 N    2.1899996863    3.3692938451   -2.1122107570
 C    3.4384044785    3.4117680142   -2.1699804311
 C    4.4501120512    3.8644840295   -3.2010326931
 C    5.4783686115    3.4150290575   -2.1428495850
 O    4.3955862828    3.0282073417   -1.2419039217
 H    0.5468699282    0.6806081669    0.5890532111
 H    0.9369457625    1.0241535680   -1.8972603505
 H   -0.3056877198    2.2932448817   -1.9235552698
 H    1.0802082895    3.6731577139   -0.3804634720
 H    2.2681648878    2.3735541502   -0.2218846113
 H    4.4390840991    3.2986898684   -4.1338732584
 H    4.4282424598    4.9325245583   -3.4231978963
 H    6.0962512242    2.5524393523   -2.4031844737
 H    6.0927848151    4.2007704088   -1.6974008800