19

 C    0.0906357073    1.5075316820   -0.0630489957
 C    0.0263827733    0.0534915301   -0.0317399621
 C   -0.0427965278   -1.1497680068   -0.0043504528
 C   -0.0385519357   -2.6078427597   -0.0175077754
 O    0.7825482083   -3.0843386754   -1.0674965340
 C    0.0357885305   -3.3644349671    1.3648551535
 C   -1.4322435380   -2.9099558277    1.6001002831
 C   -1.3848748379   -3.3852107427    0.1191597742
 C   -0.5492504393   -4.6029800615    0.6230885649
 H    0.7573338133    1.8962663733    0.7146519596
 H    0.4610210062    1.8672684182   -1.0292946080
 H   -0.8988480148    1.9499645515    0.0965856426
 H    1.5403320638   -2.4947846061   -1.1298186434
 H    0.8633938516   -3.3361731467    2.0754260674
 H   -2.0159766798   -3.5399955283    2.2740330729
 H   -1.6081108888   -1.8486748152    1.7812712777
 H   -2.1968074759   -3.3845295882   -0.6090332520
 H    0.0935162204   -5.0979795740   -0.1015720893
 H   -1.0894879267   -5.3154056158    1.2507976671