18

 C    0.5849489313    1.2908888008    0.1161014723
 C   -0.1906132287   -0.0075490130   -0.0258265454
 O    0.2552027056   -0.7325559937   -1.1827519775
 C    0.9808684010   -1.8145557156   -0.7787427808
 N    1.5881260221   -2.6327473981   -1.5219089188
 C    0.9243613859   -1.8456044074    0.7066285453
 C    1.0360314662   -3.1059438270    1.4993373988
 C    2.1598246174   -2.0933200366    1.5378730411
 O   -0.0192107881   -0.8705056374    1.0818201021
 H    1.6524927091    1.0850080215    0.2338659585
 H    0.4391982984    1.9152198505   -0.7697217506
 H    0.2299318748    1.8356790958    0.9950215144
 H   -1.2637705077    0.1770352460   -0.1468685974
 H    1.4922745237   -2.3817354249   -2.5055979607
 H    0.3983327049   -3.1823768947    2.3726897625
 H    1.1847515363   -4.0204643825    0.9367157681
 H    3.0777090962   -2.3198487283    1.0074884522
 H    2.2619247517   -1.4936869854    2.4353301358