18

 C   -0.1538814982    1.4859826610   -0.0381433262
 C   -0.0346272685   -0.0168690430    0.0501245393
 C    1.3105259146   -0.7351559244   -0.1756731339
 C    2.5038147669    0.0371199918   -0.3392852849
 N    3.4672347605    0.6796530004   -0.3813445343
 C    0.6499741915   -0.6874573054    1.2036060427
 O    1.2406556451    0.0932338759    2.2039678384
 C    0.0998373229   -1.9646657707    1.7989998020
 O    1.1052713651   -2.7199782891    2.4375719316
 H    0.6885229629    1.9864219231    0.4428541053
 H   -0.1985869259    1.8158945597   -1.0802190222
 H   -1.0680745206    1.8174405868    0.4638677472
 H   -0.8725052550   -0.5659587760   -0.3725988011
 H    1.3029795094   -1.6825220606   -0.7033548525
 H    2.1157526723    0.3869413230    1.9205975590
 H   -0.7115853389   -1.6971159314    2.4953679429
 H   -0.3297555593   -2.5946386337    1.0139852232
 H    1.5321463151   -2.1191345774    3.0600994234