17

 C   -0.0716194148   -1.2374169343   -0.0851712414
 C   -0.0524679337   -0.0358359211   -0.0407602013
 C   -0.0106473835    1.4177211687    0.0298701167
 C   -0.5288575343    2.0119798400    1.3945545737
 C    0.7062801616    2.7783667926    1.8432474897
 C    1.4045642210    3.4286409350    0.6125370459
 O    2.7299360493    3.2269787632    1.2116832318
 C    1.9917024724    1.9815721682    1.4701950532
 C    1.4151866821    1.9880676529    0.0256389532
 H   -0.0948024733   -2.2979056922   -0.1320635947
 H   -0.5851182112    1.8291192364   -0.8085259598
 H   -1.3975379112    2.6605430550    1.2495932645
 H   -0.8119283629    1.2224782434    2.0945379541
 H    0.6983331975    3.3314522066    2.7814516108
 H    1.2052163875    4.3799008718    0.1174046163
 H    2.5020209830    1.1848178029    2.0107886750
 H    2.0806388907    1.7611548509   -0.8051953177