19

 C   -0.0045104233    1.5052608871    0.0176767234
 C   -0.0034528069   -0.0193243450    0.0018106350
 C    0.5616563464   -0.6190024749   -1.3051892304
 O    0.0146563146   -1.9311671473   -1.4249239125
 C   -1.1960781129   -1.9615501009   -0.7184275785
 C   -1.1188563733   -1.9772466437    0.7991652760
 O    0.1573498627   -1.9601858788    1.3796204513
 C    0.6908265138   -0.6452968050    1.2319981771
 C   -1.3984003454   -0.6915173396    0.0658496545
 H    1.0156236253    1.9023283194   -0.0300650048
 H   -0.5563449646    1.9081394934   -0.8372845460
 H   -0.4663808664    1.8897799822    0.9323415478
 H    0.2588386717   -0.0034350567   -2.1670086778
 H    1.6529036204   -0.7052266797   -1.3054343272
 H   -2.0007670224   -2.4795663862   -1.2302731465
 H   -1.8679860370   -2.5065629533    1.3792344525
 H    1.7763548320   -0.7304366958    1.1195905817
 H    0.4778313651   -0.0479358912    2.1326345665
 H   -2.3130553198   -0.1139612742    0.1183637079