15

 C   -0.0602989603    1.2470905915    0.2744744552
 C   -0.1791444243   -0.2466132782    0.0604718098
 O    0.6416164680   -1.0433945891    0.4369485486
 C   -1.4474746688   -0.6998455860   -0.6749033027
 O   -1.4945105578   -2.1144682973   -0.8009454244
 C   -1.8611728949   -2.7819621086    0.3130648053
 O   -2.2395416918   -2.2839290755    1.3353596661
 C   -1.7419777067   -4.2891394657    0.0485287661
 O   -2.0807971271   -5.1006706869    0.8610869560
 H    0.9351486456    1.4861594564    0.6494105941
 H   -0.2565892857    1.7999955293   -0.6503831195
 H   -0.8078933675    1.5698063834    1.0086375580
 H   -2.3303754770   -0.3293638811   -0.1433472611
 H   -1.4497072061   -0.2992444657   -1.6926313879
 H   -1.3209614956   -4.5497481365   -0.9424043536