21

 O   -0.1220129079    1.5303227241   -0.2603344038
 C    0.0562630916    0.1511231844    0.0426760292
 C   -1.3088578202   -0.5019347378   -0.0384073260
 C   -2.0241478917   -0.7678816610   -1.4047666868
 C   -1.0239190715   -1.6692962341   -2.1502732027
 C   -0.6355885656   -2.6395361559   -0.9789579746
 C   -1.5095082510   -2.0392414362    0.1393043211
 C   -2.8586638185   -1.8426705118   -0.6337410817
 O   -3.9867954964   -1.4182126282    0.0886814987
 H    0.7372238899    1.9604430474   -0.2219712905
 H    0.7676998579   -0.3143886386   -0.6535859579
 H    0.4614474417    0.0154824808    1.0594953750
 H   -1.9617331129    0.0601125990    0.6378278923
 H   -2.5076073623    0.0316826731   -1.9659180396
 H   -1.4947765764   -2.1928337722   -2.9871304846
 H   -0.1688004831   -1.1169656906   -2.5482071669
 H   -0.9065309737   -3.6780592897   -1.1902578537
 H    0.4322230146   -2.6204839018   -0.7455524217
 H   -1.4822410981   -2.5155048917    1.1203703054
 H   -3.1986458784   -2.7026492605   -1.2191017019
 H   -3.7867484482   -0.5906950283    0.5369158109