19

 C   -0.0056370824    1.5508173213    0.0269974957
 C    0.0473340599    0.0495653205    0.0013321202
 C   -0.8429255711   -0.8230222326    0.8407320220
 C    0.6448874182   -0.9527167528    1.0144820927
 C    1.2428530425   -1.7668414645   -0.1488292916
 O    0.4091394723   -2.8187172813   -0.7085137715
 C   -0.0689380628   -1.9572303934   -1.7719121998
 C    0.6881008991   -0.7495496503   -1.1691630145
 O    1.4517631378    0.0790329456   -1.9851025314
 H    0.9381957938    1.9849418474   -0.3130203185
 H   -0.8018920694    1.9326810994   -0.6230874424
 H   -0.2067224920    1.9089399334    1.0419094908
 H   -1.3506192330   -0.2960185369    1.6428178910
 H   -1.4080407696   -1.6517090671    0.4283400564
 H    1.1379707449   -0.7646697624    1.9611204648
 H    2.2966640756   -2.0457208132   -0.0734664465
 H    0.3288886171   -2.2684224481   -2.7495709626
 H   -1.1625262611   -1.9167177482   -1.8261045802
 H    1.9822220100   -0.4718350170   -2.5711587346