11

 O   -0.0271141056    1.3159477508    0.0075953053
 C   -0.0688762058   -0.0113715020    0.0013519883
 N   -1.1828555420   -0.6303796957    0.0038081024
 C   -1.1145306786   -2.0235898994   -0.0042680679
 N   -2.1123803029   -2.8186029608   -0.0031777782
 C    0.2379262985   -2.6007115321   -0.0147692392
 N    1.3344138919   -1.9463198090   -0.0172012458
 O    1.1804896788   -0.5288034987   -0.0085488015
 H    0.8983258209    1.5977432199    0.0039573109
 H   -2.9775158483   -2.2726435085    0.0045032323
 H    0.3476640331   -3.6808512745   -0.0212216066