15

 O    0.2404056306    1.2927259360    0.4154302834
 C    0.0626055618   -0.0428188824    0.0687665537
 C   -1.4079978522   -0.5172018061   -0.0469249936
 N   -1.3666310449   -1.7093380822   -0.9272282004
 C   -0.3045862667   -1.4695242493   -1.9160595979
 C    0.5660137339   -0.3532667744   -1.3440918088
 O    1.4298772280    0.2826319552   -1.8890651526
 C   -2.0370430544   -0.8235796940    1.2331540355
 N   -2.5152347252   -1.0850331903    2.2515321672
 H    0.9231249985    1.6395446316   -0.1795420623
 H    0.5815346052   -0.7239565411    0.7678666158
 H   -1.9847551328    0.2792244566   -0.5360196877
 H   -1.1552016159   -2.5278983561   -0.3678777765
 H    0.2775402485   -2.3718029761   -2.1230092886
 H   -0.7199048943   -1.1275250473   -2.8731813672