21

 C   -1.1604854377    0.1705200817    0.5431998472
 O    0.2250072929    0.1121943566    0.2680445144
 C    0.6108389922   -0.5090670121   -0.9609415958
 C    0.2289497999   -1.9997258166   -1.0060448110
 C    0.0097347064    0.1955931223   -2.1073810082
 C   -0.5052057922    0.7791473308   -3.0234675026
 C    2.1531517179   -0.3057518555   -1.0020893392
 C    2.8794036536   -0.8951984092    0.2057278820
 O    2.5985835273   -0.8880261101   -2.2198143715
 H   -1.7143966800    0.6654357078   -0.2645357897
 H   -1.5942363894   -0.8243493486    0.7124349431
 H   -1.2658063366    0.7563146200    1.4594511338
 H   -0.8476540850   -2.1274303934   -1.1357935862
 H    0.7361430858   -2.4758604835   -1.8467879762
 H    0.5314929169   -2.4913067667   -0.0776748936
 H   -0.9459340697    1.2930377218   -3.8418153078
 H    2.3087473841    0.7828161028   -1.0155197284
 H    2.4700583070   -0.4945056883    1.1348790203
 H    2.7998891024   -1.9857450203    0.2193337268
 H    3.9434990679   -0.6358297639    0.1596513193
 H    3.5504782667   -0.7630445356   -2.2754187166