18

 C   -0.0937962463    1.5595213547    0.0326260725
 C   -0.0345691594    0.0194993256    0.0424477535
 C    0.7262861457   -0.5005268574    1.2777350993
 C   -1.3932630065   -0.5842083404   -0.0615004941
 C   -2.0406235515   -1.3753400387   -0.9445342901
 N   -3.3453806786   -1.6299510809   -0.5062568622
 C   -3.4039261646   -0.9803849376    0.6076216329
 O   -4.4248643368   -0.8739183631    1.4566332044
 O   -2.2957064149   -0.3204068290    0.9698707996
 H    0.9150330358    1.9823793125    0.0698854342
 H   -0.5891968818    1.9293255768   -0.8696501180
 H   -0.6491480253    1.9305445061    0.8995215992
 H    0.5018489348   -0.3100513858   -0.8561018665
 H    0.2065624084   -0.2189018448    2.1986869343
 H    0.8120619437   -1.5907239895    1.2579215817
 H    1.7344678736   -0.0760400032    1.3139589636
 H   -1.6685439591   -1.7861651612   -1.8697780400
 H   -5.1492575872   -1.3897654841    1.0800748855