17

 O   -0.6773574021    1.3857466441    0.8792002950
 C    0.0535477222    1.1198976654   -0.0413889530
 C    1.3916379209    1.7930557628   -0.2704990039
 C    1.2834190465    2.8959312990   -1.3518269942
 C    0.5286683303    4.1606929888   -0.8348437655
 O    1.7708935063    4.8518603111   -0.6073764968
 C    2.5100188132    3.8585657811   -1.3346795415
 C    0.8854306759    2.3665554294   -2.6432651785
 C    0.5623038338    1.9319374314   -3.7170134264
 H   -0.2371293036    0.3699289248   -0.8080437904
 H    1.7179532993    2.2496615434    0.6679249018
 H    2.1282993811    1.0482555882   -0.5930905353
 H   -0.0838469275    4.6491822507   -1.6016939682
 H   -0.0530892089    4.0281679324    0.0825258040
 H    3.3920708340    3.5073539235   -0.7877620344
 H    2.8047101097    4.2038956445   -2.3333426599
 H    0.2717536389    1.5524713893   -4.6657003128