18

 C   -1.1407825712   -0.7876468323    0.1259226502
 C   -0.5128486704    0.2352368925    0.2044606635
 C    0.2353197607    1.4987056055    0.2618032796
 C    1.6368982565    1.3186910088   -0.3081309387
 C    2.7660637339    2.0777711748    0.2301226967
 O    2.5886633425    0.6913123353    0.5434709425
 N   -0.3896989095    2.6452185282   -0.4181612945
 C   -1.1572996915    2.4142137970   -1.6410793602
 C   -1.8412546296    2.7876511501   -0.3729073013
 H   -1.6812400798   -1.7009662683    0.0772714007
 H    0.3501593921    1.7831573494    1.3152534975
 H    1.6674856060    0.9917065573   -1.3475770676
 H    3.6167034507    2.3084915456   -0.4086132274
 H    2.5993438234    2.7694630182    1.0542636711
 H   -1.0034679995    3.1479567002   -2.4267332520
 H   -1.2902453166    1.3894505283   -1.9797568762
 H   -2.4183418373    2.0062136687    0.1157859525
 H   -2.1988343803    3.8003680806   -0.2113566165