15

 N   -0.0011109966   -1.1571592486   -0.1491509575
 C   -0.0011952632   -0.0070377181   -0.0443924032
 C   -0.0190728594    1.4589914692    0.0241275795
 N   -0.6164641770    1.9484381778    1.2889846080
 C    0.1959422569    3.0890522210    1.6934228093
 C    1.6688106750    2.8211157064    1.9110151930
 O    2.0409564833    1.6007150699    1.2680812781
 C    1.3970392863    2.0714448166    0.0523378335
 C    1.2066192647    3.4874422491    0.6388930208
 H   -0.5501189883    1.8306169539   -0.8660236817
 H   -1.5770308770    2.2323644479    1.1390974060
 H   -0.2878706492    3.8346536254    2.3122642209
 H    2.2670590540    3.1620139906    2.7473212586
 H    2.0001868080    1.9022750742   -0.8388288133
 H    1.3922186825    4.4476190447    0.1783310782