21

 C    0.0165587329    1.5938020998    0.1023943996
 C    1.5463444007    1.5567849008   -0.1716141583
 C    1.3949973466    0.0775339507   -0.6338193696
 C    2.4108114734   -0.9471757065   -0.1941032325
 O    2.8336323633   -0.9047496492    1.1790692800
 C    2.0268148896   -2.0090344940    0.7522552125
 C    0.6209739217   -2.0634921286    1.3166119389
 C   -0.0029639488   -0.6630359472    1.4068275591
 C   -0.0121490446    0.0391834628    0.0455860672
 H   -0.3105043121    2.0566041824    1.0377013171
 H   -0.5418092570    2.0488765132   -0.7203881377
 H    1.9467955448    2.2698809788   -0.8957870107
 H    2.1343343446    1.6191118606    0.7466943755
 H    1.2963500951    0.0190943521   -1.7229500918
 H    3.2300354990   -1.1444434019   -0.8871342405
 H    2.5611589636   -2.9592825096    0.7107051363
 H    0.0164523354   -2.7219440457    0.6774338830
 H    0.6469215017   -2.5310910934    2.3083252779
 H   -1.0228826204   -0.7290661096    1.8012015214
 H    0.5789309005   -0.0757561246    2.1246682857
 H   -0.7996527100   -0.3934187410   -0.5804023132