21

 C   -1.3761428157   -1.2341384557    2.3597103104
 C   -0.6325213118   -0.9640295152    1.0747229454
 N   -0.7232680948    0.3996276292    0.5408855492
 C    0.5930064811   -0.1134444016    0.9617845891
 C    1.2824597884    0.6071257514    2.0927222388
 C    1.1358239887    2.1276053808    2.0765805697
 O    1.9828711066    2.7452035524    3.0182897897
 C    1.5614795864   -0.0760748248    3.3828328807
 N    2.6597341041    0.1906057390    2.4317478959
 H   -1.2778641338   -0.3977429421    3.0547335515
 H   -2.4419456850   -1.3761829863    2.1516194456
 H   -1.0070481551   -2.1420240770    2.8488653149
 H   -0.6880481734   -1.7754980426    0.3486872832
 H   -0.8018432064    0.3999261894   -0.4715766407
 H    1.2757466430   -0.3874666791    0.1555476612
 H    1.3380262059    2.4851959315    1.0521663443
 H    0.1054570844    2.4038828594    2.3161339388
 H    2.8302640667    2.2825902043    2.9379839033
 H    1.6077875910    0.5116198277    4.2942421036
 H    1.2316193136   -1.1025888799    3.5042395864
 H    2.9101223762   -0.6599537909    1.9333760391