20

 C    0.1699057224    2.3457353642   -0.2709776027
 C   -0.3441716424    0.9043385146   -0.3181729372
 N    0.3576081666    0.0777710614   -1.2861032922
 C   -0.0450643941   -0.1928124436   -2.5832761575
 C    0.9217839751   -0.9541239645   -3.1843618284
 C    1.9696466301   -1.1626274790   -2.2348086940
 C    1.5803128060   -0.5075954716   -1.0881574551
 O    2.1505560638   -0.3424778781    0.1299477453
 C    3.3919852469   -1.0024604137    0.2987887505
 H    1.2234716011    2.3652904485    0.0194128564
 H    0.0713184673    2.8265798925   -1.2486380973
 H   -0.4001618229    2.9279558330    0.4601313875
 H   -0.2428682279    0.4379524544    0.6661063085
 H   -1.4055476003    0.8827496214   -0.5826399473
 H   -0.9905185722    0.1788433079   -2.9440638753
 H    0.8901546271   -1.3355481746   -4.1933401925
 H    2.8785337267   -1.7226554982   -2.3798942493
 H    3.7214733510   -0.7913353167    1.3172255878
 H    3.2842266282   -2.0861077388    0.1629355499
 H    4.1379422275   -0.6282745790   -0.4140848772