18

 C   -0.0279916950    1.7285562374    0.0557625688
 C   -0.0227591365    0.1986626660   -0.0361686824
 N    0.6742416342   -0.2646848984   -1.2267597711
 C    0.0384169805   -0.6494385214   -2.3631670523
 O   -1.1642902764   -0.6516293850   -2.5257716201
 C    0.6503491372   -0.4848242831    1.1811389475
 O    2.0528642539   -0.2009798704    1.2058973554
 C   -0.0002268990   -0.1465348066    2.4451731693
 C   -0.5215088283    0.1573683877    3.4848617460
 H    0.9932973718    2.1234002649    0.0877690892
 H   -0.5228883457    2.1475420671   -0.8232687094
 H   -0.5607782918    2.0640753902    0.9495869744
 H   -1.0505495085   -0.1650532088   -0.1159209751
 H    1.6820719396   -0.2885460503   -1.1826905371
 H    0.7548186304   -0.9713655159   -3.1450140951
 H    0.5868123000   -1.5674306346    1.0221451293
 H    2.1741732891    0.6424256120    1.6552091812
 H   -0.9860050956    0.4094155992    4.4066105215