18

 O   -0.0644261302    1.3470601322    0.0664775806
 N    0.0393323247   -0.0499761145   -0.0035496422
 C   -1.1085393071   -0.6271102084   -0.0342450634
 C   -1.1063509026   -2.1362790393   -0.0834814320
 C   -2.2410707745   -2.6480246338   -0.9701003628
 O   -2.1821116022   -4.0658214194   -0.9490576241
 C   -3.5906964241   -2.1177915703   -0.4630763797
 C   -3.5470770703   -0.6393843296   -0.1853315540
 C   -2.4068326129    0.0420747074   -0.0057392020
 H    0.8598766853    1.6137314352    0.0968811980
 H   -0.1409893043   -2.5012227061   -0.4392059121
 H   -1.2593989580   -2.5404493905    0.9266941883
 H   -2.0804769433   -2.2712342421   -1.9934084799
 H   -2.8577134218   -4.4033012763   -1.5458348593
 H   -4.3848890274   -2.3389805543   -1.1888456785
 H   -3.8561382075   -2.6683700583    0.4514034694
 H   -4.4973758097   -0.1135250383   -0.1392403151
 H   -2.4145872442    1.1103844762    0.1679331088