11

 O   -0.0539554503    0.0078620227    0.0904771249
 C   -0.0127322753    1.1851447058   -0.0682749641
 O    1.0840723914    1.9118401507    0.3308616580
 C    1.0375358226    3.2635968734    0.1984381685
 C    2.1026823093    4.0966066852   -0.0477218970
 N    1.5243654254    5.3220351029   -0.0357405099
 N    0.2059843828    5.2578835092    0.1932514186
 N   -0.0935257564    3.9946897744    0.3444126006
 H   -0.7885438042    1.8143888111   -0.5272862520
 H    3.1506867363    3.9241098965   -0.2152867654
 H    1.9563450784    6.2236002781   -0.1645609022