18

 C   -1.1385242232    1.9225470273   -0.1445929498
 O   -1.0673741663    0.7744869838    0.6737753314
 C   -1.3546163310   -0.4480188414    0.0130736132
 C   -0.2401877827   -0.9306666724   -0.9153698911
 C   -1.7141796607   -1.4027125751    1.1443531978
 O   -1.3615401185   -2.7782100261    1.0440454859
 C   -0.7510126603   -2.0115180076    2.0862158520
 C    0.6796686891   -1.8084616403    2.0275413152
 N    1.8264955843   -1.6661719010    2.0474773482
 H   -1.0081075895    2.7871095419    0.5102186518
 H   -0.3510174575    1.9422310986   -0.9101254101
 H   -2.1152732907    2.0005736261   -0.6469955086
 H   -2.2726795654   -0.3228421555   -0.5875810229
 H   -0.4673459411   -1.9345232509   -1.2823657449
 H   -0.1557544644   -0.2651210076   -1.7783084398
 H    0.7235008952   -0.9556643530   -0.4039808191
 H   -2.7057800001   -1.2287066888    1.5636812647
 H   -1.1040424672   -2.2469762280    3.0892714262