17

 C   -0.0922591043    1.4988524644    0.0056250194
 C    0.0111755788   -0.0011074967   -0.0242843132
 C    0.6807077267   -0.6822376740   -1.2568587930
 C    0.1087965880   -2.1252956724   -1.1511474916
 C   -0.7604598412   -1.9689210013    0.1096732426
 O    0.1368857892   -1.9145765733    1.2495857813
 C    0.6720823138   -0.6582715992    1.2002622359
 O    1.4987159318   -0.2418131310    1.9551996659
 O   -1.2735069960   -0.6654166562    0.0156710939
 H    0.9079329237    1.9295818060    0.1013698615
 H   -0.5558732914    1.8748038780   -0.9101421732
 H   -0.6861070752    1.8250876346    0.8629118451
 H    0.3510025205   -0.1798264081   -2.1687683470
 H    1.7707928112   -0.6390887643   -1.2123093218
 H   -0.5113522701   -2.3866929151   -2.0109540722
 H    0.8709323858   -2.8948371176   -1.0195968054
 H   -1.5403632912   -2.7005703537    0.3075355118