19

 C   -0.2154165384    1.5383818400    0.0996892604
 C    0.0396964780    0.0497384647    0.0126810476
 C   -1.1859070741   -0.8999430517    0.1608351344
 C   -0.4400039589   -1.7093654405    1.2645747221
 C    0.7976383375   -0.7875588110    1.1185297405
 C    1.8287346468   -1.2499348777    0.0574671015
 C    1.0748100373   -0.4422148176   -1.0420614887
 H    0.7222927711    2.1028047989    0.1614264942
 H   -0.7584454431    1.8963643627   -0.7845259900
 H   -0.8169692613    1.7911345805    0.9805604478
 H   -2.0827868550   -0.3925753216    0.5280602560
 H   -1.4587297069   -1.4539195302   -0.7425836764
 H   -0.9209866129   -1.6448938514    2.2439089124
 H   -0.2602387950   -2.7667709766    1.0475022190
 H    1.1946031402   -0.3432862431    2.0337168796
 H    2.8415659684   -0.8828710910    0.2419507482
 H    1.8860276269   -2.3321597793   -0.0943519051
 H    0.6574229983   -1.0255384072   -1.8685050952
 H    1.6725347510    0.3677786321   -1.4702023581