16

 C   -0.0776663656    1.4964848765   -0.1205431312
 C    0.0058325902   -0.0031133188    0.0181142204
 N    1.3410209117   -0.6088931708   -0.1177607628
 C    0.6728067026   -0.6507418317    1.1733830423
 C    1.1908248056   -0.1390499270    2.5141671680
 O    0.6588940010   -1.3553566024    3.1448520181
 C    0.2306832849   -1.8589276109    1.9302952118
 N   -0.3008054922   -2.9501849141    1.6167933186
 H    0.8056974343    1.9746557418    0.3111407807
 H   -0.1322656516    1.7820191094   -1.1760344578
 H   -0.9694597720    1.8856153704    0.3818186659
 H   -0.8322424277   -0.5643483403   -0.3919834847
 H    1.2825389886   -1.5283734192   -0.5520131052
 H    2.2773527579   -0.0880748131    2.6133639128
 H    0.7156563603    0.7541984952    2.9264878139
 H   -0.4359634379   -3.5588705550    2.4244718095