17

 C   -0.0101804737    1.5217256299    0.1072905219
 C    0.0336386844    0.0352600376   -0.0192159589
 C   -0.0066421902   -0.7417921080   -1.1416306342
 C   -0.1044352861   -0.4014978609   -2.5906759581
 N    0.0668744005   -2.0652184635   -0.6715066816
 C    0.0634657500   -3.2451127349   -1.4113290434
 O    0.1306417201   -4.3421051310   -0.9221067349
 C    0.1468831788   -1.9877379932    0.7102434018
 N    0.1294820621   -0.7598857901    1.1264027053
 H    0.8893238323    1.8940706632    0.6091598099
 H   -0.0857969433    2.0127459958   -0.8658551645
 H   -0.8667823117    1.8331796574    0.7146677806
 H    0.7604167545   -0.7568822752   -3.1637708685
 H   -1.0043661451   -0.8177553264   -3.0591912174
 H   -0.1486681141    0.6829949349   -2.7077330181
 H   -0.0075703681   -3.0612518973   -2.4964632177
 H    0.2132708797   -2.8821119783    1.3092173678