20

 C   -0.0492139509    1.5758468605   -0.0361822397
 C    0.0000596128    0.0461202473   -0.0017088721
 C    0.7333477743   -0.4985011343    1.2285078967
 C    0.7758170654   -2.0305193983    1.2518097477
 N    1.4701794285   -2.5672390992    2.4154231727
 C    2.8043604126   -2.8280718083    2.5562147130
 N    3.0781392883   -3.2485008649    3.7649699996
 N    1.8881607417   -3.2681227034    4.4660287829
 C    0.9534103277   -2.8586095108    3.6466648795
 H    0.9586812357    2.0043794015   -0.0518298549
 H   -0.5780145380    1.9344965511   -0.9241179812
 H   -0.5647290401    1.9754573439    0.8437502631
 H   -1.0221202485   -0.3545685877   -0.0224949696
 H    0.4901681491   -0.3258760977   -0.9112350017
 H    1.7602241225   -0.1131448592    1.2545874091
 H    0.2461619226   -0.1415926491    2.1444275121
 H   -0.2388619446   -2.4417763147    1.2482105071
 H    1.2771322233   -2.4132804176    0.3569042073
 H    3.5142383324   -2.7025098939    1.7527223365
 H   -0.0961664148   -2.7620071950    3.8797904518