23

 C    0.5961651616    1.3431331036   -0.6414036897
 C   -0.2736413162    0.6929100569    0.4115398604
 C   -0.2812263623   -0.7833653219    0.6028284018
 N    0.2782717529    0.0957331041    1.6302400485
 C    1.7216748432    0.0906232839    1.8476366968
 C    2.0814200739   -0.4628592230    3.2254811883
 C    3.5616331627   -0.7171856708    3.4114174363
 C    1.2451510188   -0.0784812259    4.3875644422
 N    1.1959100087   -1.4574368255    3.8524124096
 H    1.4871505115    0.7515623451   -0.8661309103
 H    0.0295469940    1.4600383709   -1.5710890756
 H    0.9207176228    2.3413277047   -0.3267402676
 H   -1.2061897123    1.2253310971    0.5969048600
 H   -1.1939427238   -1.3122586495    0.8659304745
 H    0.4198120195   -1.3628214623    0.0023888565
 H    2.2595268663   -0.4940271096    1.0828139776
 H    2.0966607195    1.1200073915    1.7777165933
 H    4.1399385696    0.2069139175    3.2932081700
 H    3.7564169908   -1.1218865245    4.4072235858
 H    3.9309403413   -1.4419434004    2.6762800008
 H    1.6968852566    0.0175215597    5.3715036053
 H    0.3888794469    0.5620926834    4.1992935872
 H    0.3486884538   -1.5313417350    3.2923478883