21

 C   -0.0865113445    1.5320373395   -0.0747486618
 C    0.0058175906    0.0167474673    0.1315684702
 C   -1.3573636227   -0.6613740428    0.0618294893
 O   -2.0098862748   -0.4254790637   -1.2233475870
 C   -2.3569749677   -1.7551405588   -1.6342415809
 C   -2.8905781135   -2.4255690241   -0.3469167214
 C   -1.4053401824   -2.1968930011    0.0878877569
 C   -1.0255220485   -2.5286021312   -1.3888876315
 O   -1.0399154450   -3.9194187698   -1.6156519315
 H    0.9013861074    1.9990672645   -0.0215522133
 H   -0.5229130992    1.7579763806   -1.0512623660
 H   -0.7184911454    1.9971592763    0.6900406401
 H    0.6813319723   -0.4174128072   -0.6131251437
 H    0.4387229929   -0.2024525922    1.1166445818
 H   -1.9957782847   -0.2413282521    0.8534193770
 H   -2.8865818552   -1.7258900046   -2.5866723847
 H   -3.6737751702   -1.8975177142    0.2017668368
 H   -3.1289519088   -3.4786796164   -0.4798307893
 H   -0.9448251137   -2.7115150040    0.9302669479
 H   -0.1263878720   -2.0576392916   -1.8030320803
 H   -1.0036270848   -4.0648370343   -2.5663815587