23

 C   -0.0549899190    1.4722441267   -0.0560083901
 C    0.0328089266   -0.0523716769    0.0462192414
 C    0.7747565303   -0.5077225893    1.2947077912
 O    0.8077296000   -1.9274446162    1.3075434921
 C    1.4537853682   -2.4771522433    2.3897126921
 C    1.0864865060   -2.3648826293    3.9088342334
 C    2.3057920382   -3.3250280623    3.8129055393
 C    1.6059722464   -3.9998255670    2.5963194872
 C    2.9549254111   -2.3267950146    2.8129384302
 H    0.9405209533    1.9285115218   -0.0926238200
 H   -0.5914456453    1.7752343360   -0.9596738279
 H   -0.5835123099    1.9007851402    0.8028163841
 H   -0.9710626455   -0.4921067677    0.0581845045
 H    0.5432577477   -0.4645751946   -0.8317330169
 H    1.8000353183   -0.1047629002    1.3010369867
 H    0.2710594439   -0.1321078634    2.1996092984
 H    1.2618164701   -1.4026902211    4.3973596396
 H    0.1348597292   -2.8084812331    4.2137207676
 H    2.8013503979   -3.8264582988    4.6403137782
 H    0.6886516582   -4.5572155182    2.8032618455
 H    2.2506924491   -4.5254191110    1.8870372499
 H    3.6985177470   -2.7357978750    2.1236436921
 H    3.2664420882   -1.3618252028    3.2216067015