17

 O   -0.1351391562   -0.1342025130   -0.0261707578
 C   -0.1075504157    1.0762594561   -0.0000801622
 C    1.1284159274    1.7979249356    0.2662644179
 C    2.1418049970    2.4158474484    0.4679732713
 C   -1.3370124827    1.9632559642   -0.2223446995
 C   -2.6112646976    1.1631929493   -0.5878720102
 C   -3.4823945196    1.1339141865    0.6969897098
 C   -2.8574109278    2.1904348584    1.5730298612
 C   -1.7099768240    2.6529601860    1.0817722857
 H    3.0469209098    2.9429152464    0.6499130038
 H   -1.0585991436    2.6956589011   -0.9917157354
 H   -3.1423471004    1.6818425286   -1.3899196948
 H   -2.3565628588    0.1632960278   -0.9412644794
 H   -4.5381508802    1.3382932840    0.4851639362
 H   -3.4539203315    0.1543818869    1.1919198916
 H   -3.3028137143    2.5131475693    2.5080362603
 H   -1.0698892918    3.3943737444    1.5445645516