14

 C   -0.0177112979    1.4985747486    0.1821377175
 N    1.3167950013    1.9495578410   -0.2594279715
 C    2.3353042175    1.1503079492   -0.6817975655
 N    2.3249660832   -0.1414765972   -0.7744608054
 C    1.1121288156   -0.6393491792   -0.3796168933
 C    0.0050723832    0.0091972836    0.0630193669
 N   -0.9911466198   -0.9059226461    0.3497529563
 C   -0.4417717985   -2.0468673381    0.0687210536
 O    0.8391771858   -1.9755687558   -0.3819231836
 H   -0.2078639272    1.8308841789    1.2143451661
 H   -0.7988832261    1.9546045244   -0.4454412230
 H    1.4924637488    2.9406322717   -0.2479751190
 H    3.2364887817    1.6913935022   -0.9623894377
 H   -0.8702628976   -3.0328333633    0.1477944787