20

 C    0.2018045273    1.8476386620    0.0966804934
 N   -0.0035971547    0.4125711250    0.0136810146
 C    1.0039949987   -0.5390725774   -0.4228217649
 C    2.4818640207   -0.1718241048   -0.4102856980
 C    2.8229778798    0.2865058022    1.0397777052
 C    1.6324369189   -0.1854323628    1.9279680480
 C    0.4924802371   -0.5472853666    0.9852732087
 C    4.1268131297   -0.3206887564    1.5097583817
 O    5.0963396980    0.2956207275    1.8653138667
 H    1.1848494175    2.1815339183    0.4567578219
 H    0.0458882073    2.2783243286   -0.8976120126
 H   -0.5587125587    2.2688263357    0.7619914005
 H    0.6727972877   -1.2509159996   -1.1759277961
 H    3.0587831898   -1.0663071547   -0.6802974902
 H    2.7441182684    0.5995229254   -1.1413545070
 H    2.9461964456    1.3694214596    1.0908090310
 H    1.9048961821   -1.0848011788    2.4960689380
 H    1.3613948194    0.5773329874    2.6648167506
 H   -0.2421818612   -1.2656221258    1.3428355593
 H    4.1259251064   -1.4388190147    1.5032377094