16

 C   -0.5402331564    1.5170090948    0.3287623848
 C   -0.1996682890    0.0827215323    0.0831140121
 C    0.1775835245   -0.5298580385   -1.0883765188
 C    0.3391620223   -0.0101521677   -2.4875189716
 C    1.4287170060   -0.6731437355   -3.2094663351
 N    2.2687785195   -1.2438213310   -3.7608120807
 N    0.3541016951   -1.8625216842   -0.7684001206
 C    0.0947261868   -1.9908936716    0.5609771017
 N   -0.2478607446   -0.8465809915    1.1024180060
 H   -0.2924987522    2.1482067500   -0.5297454906
 H   -1.6086768944    1.6423829042    0.5374484995
 H    0.0045270705    1.8951617956    1.1990460407
 H   -0.5770571841   -0.1379641821   -3.0814477804
 H    0.5373486814    1.0659511343   -2.4575456517
 H    0.7010029581   -2.5759186147   -1.3897646266
 H    0.1772263267   -2.9371981142    1.0744741012