14

 O    0.2969905618    1.0351738645    0.6658687733
 C   -0.0258304500    0.0799121980   -0.3115464483
 C   -1.4429397075   -0.4343689039   -0.1721278440
 N   -2.0313369846   -0.2675326576    1.0261442606
 C   -3.2557249331   -0.7364885565    1.1507291256
 C   -3.8621838950   -1.3711132036    0.0547175497
 O   -5.1088290735   -1.8505555656    0.1621307333
 N   -3.2296450991   -1.5127369028   -1.1005077034
 N   -1.9943823828   -1.0343324391   -1.2216297569
 H   -0.2569997233    0.8388663215    1.4332428035
 H    0.0928848348    0.5277067433   -1.3035816599
 H    0.6550867883   -0.7886619061   -0.2735616202
 H   -3.7745516640   -0.6252824151    2.0988817322
 H   -5.3324568522   -2.2429304570   -0.6955475254