15

 C   -0.0983831759    1.5478275263   -0.0113350436
 C    0.0274907071    0.0216743931   -0.0195269432
 N    0.7963881813   -0.4874433958   -1.1554642869
 C    1.7542555783   -1.1610463069   -0.6653768653
 C    2.8255422633   -1.8847946176   -1.3970456922
 O    1.8332680590   -1.2473764679    0.7175945860
 C    0.7631173521   -0.5090323235    1.2104987869
 O    0.5567657286   -0.3722664316    2.3751382054
 H    0.8888905675    2.0181294731   -0.0155087733
 H   -0.6419906264    1.8797241298   -0.8983996762
 H   -0.6357376734    1.8704630226    0.8839560812
 H   -0.9775165173   -0.4194381210   -0.0357236332
 H    3.8087373733   -1.5028516475   -1.1045868882
 H    2.8024214747   -2.9500433437   -1.1463906809
 H    2.6831504277   -1.7554636192   -2.4695718964