18

 C    0.3197038397    1.3814842798   -0.0378565310
 N    0.1034985061   -0.0550950096   -0.0077510869
 C   -1.0580807889   -0.5956856015   -0.0137847480
 C   -2.3149562095    0.2464887424   -0.0327487568
 O   -3.4225493608   -0.0816700416    0.3152068579
 N   -1.1300733442   -1.9839617643    0.0526096783
 C    0.1373166198   -2.7021313219    0.2033952087
 C   -2.2981933527   -2.7191597067   -0.1303101769
 N   -2.2852552685   -3.9932511554   -0.1442038158
 H   -0.0375857496    1.8489834747   -0.9659305035
 H   -0.1422630082    1.9105147265    0.8056841101
 H    1.3963455216    1.5622336593    0.0181322404
 H   -2.1192420698    1.2791181500   -0.3741852071
 H    0.6711003471   -2.3201460052    1.0756281164
 H   -0.0967199153   -3.7577947327    0.3143504870
 H    0.7726140199   -2.5426661982   -0.6722974936
 H   -3.1828448834   -2.1003836940   -0.2404382656
 H   -3.2314847034   -4.3417935015   -0.2810314834