23

 C   -0.0650920536    1.5634715316   -0.0412780659
 C    0.0109938778    0.0305492531   -0.0200029383
 C    0.5377244228   -0.5383393443   -1.3518472522
 C    0.7997730103   -2.0451159403   -1.2600531636
 C    1.9144280198   -2.3531628722   -0.2484246728
 C    1.6874010603   -1.6912828890    1.1084421651
 C    2.2584594703   -0.3103887729    1.3765954584
 O    2.9687099453    0.3610049808    0.3732228799
 C    0.7778647956   -0.4721835466    1.2005162070
 H    0.9342318694    1.9947394854   -0.1496737143
 H   -0.6837833842    1.9135944550   -0.8751989946
 H   -0.5022215176    1.9524937446    0.8849780949
 H   -1.0129279231   -0.3552523000    0.0970230482
 H   -0.1983964561   -0.3273952211   -2.1368182646
 H    1.4626339360   -0.0232576951   -1.6326248980
 H   -0.1227325238   -2.5576166110   -0.9542316604
 H    1.0708915757   -2.4469719320   -2.2430431156
 H    2.0028539374   -3.4349834433   -0.1078927395
 H    2.8710557852   -2.0191555981   -0.6721677123
 H    1.6778699770   -2.3665531508    1.9588603423
 H    2.6191435456   -0.1055188144    2.3848112846
 H    3.8455056674   -0.0337298743    0.3110853677
 H    0.2127198825   -0.3751103250    2.1245743539