25

 C    0.7145676633   -0.9714221178    1.3160933450
 C   -0.0104649192   -0.3262248112    0.1284225333
 C    0.6705333697   -0.5553930927   -1.2295661513
 C    2.0237473965    0.1575712726   -1.3037416384
 C    0.7961304556   -2.0197975505   -1.7045163807
 C   -0.5427523194   -2.6634213684   -1.9277606891
 C   -0.0115093131   -1.7138851139   -2.9651571630
 C   -0.1866811076   -0.2501270406   -2.5358949727
 C   -1.5991369879    0.3191748848   -2.4427697923
 H    0.8387957927   -2.0484200481    1.1600600293
 H    1.7074279688   -0.5409841445    1.4771462809
 H    0.1446485225   -0.8336033732    2.2403074573
 H   -1.0335322236   -0.7151225090    0.0971570795
 H   -0.1080817516    0.7542922704    0.3000262330
 H    2.7145308607   -0.1976591983   -0.5316568525
 H    2.5021136308   -0.0165997087   -2.2732828044
 H    1.9048375012    1.2398518601   -1.1752962504
 H    1.7005082353   -2.6116403060   -1.6143116925
 H   -0.5058006379   -3.7121029112   -2.2065660813
 H   -1.4028288969   -2.4089707628   -1.3150160551
 H    0.1757069697   -2.0421516331   -3.9811490260
 H    0.4046729007    0.4023734340   -3.1865971168
 H   -2.2674946474   -0.3104505853   -1.8482092337
 H   -1.5986617067    1.3194734431   -1.9957428012
 H   -2.0379110560    0.4057633503   -3.4432837070