16

 O    0.0437857480    0.0078130982    0.0809890630
 C   -0.0018763131    1.2035293176   -0.0128633857
 C   -1.2667250422    2.0597644565   -0.1668054803
 C   -0.8104939432    3.3604472077   -0.8570167431
 C    0.6787252927    3.4959542965   -0.5433907039
 C    1.0987908876    3.3473391938    0.8738538828
 C    1.1942870905    2.1310864288   -0.0639799760
 C    2.4833765420    1.6096623509   -0.4019188134
 N    3.5291829132    1.2018695659   -0.6799392800
 H   -2.0169798048    1.5008905114   -0.7281580925
 H   -1.6885745856    2.2415830165    0.8284916288
 H   -0.9429086881    3.2778085654   -1.9400069853
 H   -1.3728896065    4.2381048552   -0.5248960478
 H    1.3027579900    4.0839847045   -1.2054815774
 H    2.0525776681    3.7676725466    1.1690663070
 H    0.3556290114    3.3123385245    1.6632568339