16

 C   -0.0062095750    1.5727922147   -0.2378407073
 C   -0.0279706093    0.0677204276   -0.0764404250
 C   -1.3360583724   -0.5185670680    0.4574502739
 C   -1.7361011061    0.0341546289    1.7478447592
 C   -2.0576676309    0.5035191085    2.8067003098
 C    0.7906276495   -0.7662949283   -0.9929646665
 N    1.1736466891   -0.6156341715    0.4252452882
 H    0.9492626606    1.9082897200   -0.6535331878
 H   -0.8018148798    1.9085783674   -0.9126592195
 H   -0.1592281554    2.0673825533    0.7265100573
 H   -2.1337012166   -0.3441037763   -0.2774180196
 H   -1.2167646416   -1.6036804733    0.5466452830
 H   -2.3447102330    0.9048223500    3.7467795018
 H    0.4612091757   -1.7639776154   -1.2722200671
 H    1.3789312728   -0.2586797863   -1.7532837777
 H    1.9420143523    0.0454472988    0.5098953272