17

 C    0.0181345710    1.4825032728    0.0184748930
 N    1.2800455563    0.7092224899   -0.0436378638
 C    2.0148157128    0.6028014910    1.1594810564
 N    2.0024918722   -0.3665761528    1.9795950670
 C    1.0770389109   -1.4742987287    1.7222363057
 C   -0.2484816432   -1.0206130484    1.0839403613
 O   -0.7703035191   -1.9442031261    0.0955357335
 C   -0.4778182559   -1.0382764732   -0.9988150319
 C    0.0179483413    0.0028129035   -0.0072667468
 H   -0.2228669521    1.9810339213    0.9546103164
 H   -0.2264167544    2.0372375574   -0.8829006298
 H    2.6787373944    1.4485944368    1.3407259472
 H    1.5470797912   -2.1914555642    1.0375012179
 H    0.9071235092   -1.9988877388    2.6663717186
 H   -1.0031248496   -0.7707603774    1.8372836153
 H    0.2836825737   -1.4324802705   -1.6822636061
 H   -1.3803753388   -0.7766921327   -1.5636392440