16

 O    0.0978619067    1.4105192617   -0.0748669265
 C    0.0138207473    0.0403609404   -0.0271277478
 C    0.7977872791   -0.7851201108   -1.0630229733
 N    0.0787698145   -2.0923122689   -0.9043526497
 C   -1.3158999200   -1.6647470894   -1.3303016910
 C   -1.3561709246   -0.8380122651   -0.0533331933
 C   -0.4046619070   -1.9348681154    0.5595220425
 C    0.3208561502   -0.7783733529    1.2241555329
 O    0.6420385268   -0.4917800742    2.3435820910
 H    0.0676241592    1.7429786797    0.8312566336
 H    0.7047760580   -0.4156627907   -2.0863174884
 H    1.8581695522   -0.8834546287   -0.8140630113
 H   -1.3699355755   -1.1733864128   -2.3066303059
 H   -1.9912213551   -2.5236495322   -1.3117294364
 H   -2.2283260236   -0.4230590561    0.4497464499
 H   -0.7174316782   -2.8533561947    1.0461031036