19

 C   -0.0832207240    1.5925580478    0.2039984993
 C   -0.0454941130    0.0703117689    0.0338643062
 C    0.9189100842   -0.6085668441    1.0120235807
 N   -1.3884823011   -0.5022517798    0.1394831738
 C   -2.2500189290   -0.4980269114    1.1951871703
 C   -3.3561713463   -1.1754624728    0.7236876036
 N   -4.5344464119   -1.5390623527    1.3745248346
 N   -3.1171162971   -1.5501220688   -0.5606052682
 N   -1.9200290398   -1.1434374357   -0.9062213576
 H    0.9123298530    2.0110123207    0.0299558301
 H   -0.7786162130    2.0461279550   -0.5068698172
 H   -0.3919601117    1.8728563205    1.2164302178
 H    0.2522919892   -0.1702930879   -0.9901296447
 H    0.6423539863   -0.4026253317    2.0511382983
 H    0.9228637508   -1.6914742021    0.8646112774
 H    1.9342558151   -0.2331938286    0.8545705529
 H   -2.0166843721   -0.0449764410    2.1426441050
 H   -4.9243595350   -0.8053133576    1.9506452958
 H   -5.2225168446   -1.8602242088    0.7047580619