15

 C   -0.2433870128    0.9769840817    0.2269492835
 C    1.0544279539    1.2486900042   -0.5579221167
 C    1.7311877576    0.4194298484    0.5674038450
 O    0.4505413265    0.1132259569    1.1597737074
 C    2.4608485506   -0.8233025957    0.1995782353
 C    2.0440902911   -2.1161899280    0.1935855865
 O    3.0480646247   -2.8915026398   -0.2095293310
 N    4.1488406107   -2.0175591953   -0.4684549103
 N    3.7746354934   -0.8434663636   -0.2179125673
 H   -0.6735687002    1.8498558832    0.7319496657
 H   -1.0388862318    0.4440182964   -0.3045344362
 H    1.1017105446    0.7809614290   -1.5417454452
 H    1.3704033043    2.2891449105   -0.6322325692
 H    2.3529951173    1.0291558326    1.2362548816
 H    1.1129026101   -2.5884212807    0.4549089508