15

 O   -0.0574152232    1.4431270714   -0.0256238229
 C   -0.0098668999    0.0321926252   -0.0146732048
 C   -1.3935689682   -0.5870297273    0.0536448498
 O   -2.0716206507   -0.1812971327   -1.1551799139
 C   -3.3341708187   -0.5576162725   -1.2783437012
 N   -3.9813486112   -1.2936770304   -0.4044117957
 O   -5.2557842778   -1.4086590005   -0.9938992304
 C   -5.1984842397   -0.7268671303   -2.1358508774
 N   -4.0554842767   -0.1745644862   -2.3847592726
 H   -0.5886721001    1.6995991628   -0.7876466848
 H    0.5207609262   -0.3658035931   -0.8935551937
 H    0.5517516996   -0.2627248035    0.8773900185
 H   -1.3528568065   -1.6808592040    0.1002363495
 H   -1.9537505798   -0.2140978623    0.9171219459
 H   -6.0952014534   -0.6983662666   -2.7378695961