20

 C   -1.4371880272   -0.9865989589    1.8733760860
 C   -0.5408122268   -0.6642727965    0.7023294011
 N   -0.4579826080    0.7498015639    0.3176498032
 C    0.7617438384    0.0693017386    0.7820029416
 C    1.4440673393    0.5971668271    2.0234847859
 C    1.5731230028    2.1048009916    2.0863505436
 C    1.4294281073   -0.1932623430    3.2853920771
 N    2.6528382166   -0.1334633275    2.4637702121
 H   -1.3508886834   -0.2288450044    2.6542674892
 H   -2.4817010077   -1.0137791575    1.5442638525
 H   -1.1976493037   -1.9654020181    2.3030608108
 H   -0.6009717106   -1.3882010132   -0.1112184692
 H   -0.4454135307    0.8623080489   -0.6916787012
 H    1.4799992218   -0.1914394616    0.0014455609
 H    0.5853394160    2.5723598748    2.1089654694
 H    2.1379805987    2.4008774046    2.9737510967
 H    2.1048252774    2.4837489052    1.2060542171
 H    1.4958406852    0.3214826370    4.2408554738
 H    0.8749640094   -1.1251180936    3.3143198846
 H    2.7372105750   -1.0002808874    1.9352736949