19

 O   -0.1635467334    0.0303372750   -0.4641262763
 C   -0.0955928495    1.1956039481   -0.1724389201
 C   -1.0835493661    2.3612346776    0.0682808339
 C    0.1824255116    3.2217363377    0.3459076571
 N    0.9787907090    2.0172344045    0.0826661897
 C    2.3980101507    1.7577876396    0.0977773118
 C    3.0282187143    1.9885875744    1.4545076724
 C    4.4518315806    2.3866372063    1.5548549846
 N    3.3876126869    3.3505597547    1.8889614698
 H   -1.6646658500    2.6463974411   -0.8102405982
 H   -1.7515363145    2.2160096035    0.9188625924
 H    0.3609321081    4.0348361536   -0.3674879493
 H    0.2786981574    3.6052766576    1.3662178745
 H    2.5156935409    0.7120323837   -0.2074232732
 H    2.9096046127    2.3813395239   -0.6522846814
 H    2.6021940736    1.3831843708    2.2518913560
 H    5.0523231547    2.0545318312    2.3962746370
 H    5.0073079420    2.5240754053    0.6299989822
 H    3.2688144609    4.0022699116    1.1155306770