16

 O   -0.8818309800    1.0841886538    0.2357948672
 C    0.2544916564    0.7371716958    0.0472703641
 C    1.4413904206    1.6865056239    0.0400309658
 C    1.2984781413    2.8525569096    1.0225352155
 C    2.6223978697    3.5552360824    1.1628824425
 C    3.7573866379    2.9992163009    0.7465109248
 C    3.8007725533    1.6184719921    0.1531705129
 O    2.5874798149    0.9031065325    0.3166424675
 H    0.5319960730   -0.3211661328   -0.1517867981
 H    1.5068750130    2.0948025097   -0.9876713937
 H    0.5229342309    3.5364868446    0.6621650033
 H    0.9465988990    2.4815747790    1.9940997251
 H    2.6243151215    4.5439402566    1.6132027576
 H    4.7059872250    3.5239821012    0.8200956095
 H    4.0709912274    1.6733465108   -0.9176652464
 H    4.5731451260    1.0132033801    0.6420547824