23

 C    0.0885795486    1.5407573208   -0.0662513674
 C   -0.0690991952    0.0354679374    0.0746439143
 O   -0.2722497934   -0.4853796843    1.1475371148
 C    0.0434029023   -0.7761665686   -1.2103181994
 C   -0.1334597067   -2.2822867859   -1.0140523803
 C    0.0011624299   -3.0703326520   -2.3094432099
 C    1.3920868234   -3.1683714187   -3.0056204919
 C    1.0754263846   -4.6496243380   -3.3452713439
 C   -0.0233552483   -4.6244681200   -2.2492493964
 H    1.0617302426    1.7844380733   -0.5071553872
 H   -0.6745102924    1.9429736563   -0.7422319674
 H   -0.0009678463    2.0161987247    0.9111722324
 H   -0.6950522011   -0.3827677649   -1.9243498547
 H    1.0190863956   -0.5521898684   -1.6654455119
 H    0.6057077281   -2.6373315554   -0.2859908354
 H   -1.1125407378   -2.4725685942   -0.5584878574
 H   -0.7444756119   -2.7210969299   -3.0355851550
 H    1.6047950415   -2.4874403481   -3.8339536076
 H    2.2041171260   -3.0887738506   -2.2741391916
 H    0.6468641674   -4.7517135908   -4.3465499056
 H    1.8823756900   -5.3784926857   -3.2399814950
 H    0.3576549496   -4.9863837358   -1.2884277246
 H   -0.9702754164   -5.1288808711   -2.4576503489