19

 C   -0.3220724333    1.5659336173    0.2761676219
 C    0.1199266322    0.1356158601    0.0570740262
 C   -1.0119512370   -0.9446154511    0.1055532635
 C   -0.4117390910   -1.4945911078    1.4296196821
 C    0.8519381149   -0.6089327318    1.2038485150
 C    1.9802502925   -1.3358747174    0.4843949686
 O    2.7874055953   -2.0873430170    0.9646107327
 C    1.8906523224   -0.9523138417   -0.9991102244
 O    0.9559761317    0.1009531230   -1.1050111236
 H    0.5436495871    2.2184872747    0.4230841676
 H   -0.8782871746    1.9240781954   -0.5959704343
 H   -0.9725199547    1.6422796728    1.1528389167
 H   -2.0343951342   -0.5636473330    0.1533970067
 H   -0.9435345162   -1.6452747492   -0.7301186923
 H   -0.9686118744   -1.1820289830    2.3152611252
 H   -0.2378957016   -2.5707577739    1.4935532872
 H    1.2364588079   -0.0484753172    2.0586256705
 H    2.8643652484   -0.6244753323   -1.3777928125
 H    1.5894262846   -1.8405878481   -1.5782704868