20

 C   -0.1206135387    1.5945796221   -0.1231431172
 C    0.2074627395    0.1075186534    0.0366850133
 N    0.7852875212   -0.5096822882   -1.1511268406
 C    2.0871689447   -0.9014440981   -1.1888117864
 O    2.6140459638   -1.4335834305   -2.1474371122
 C   -0.0245261992   -0.7122973199   -2.3555194632
 C    0.2751010629    0.2658090392   -3.4947327402
 C    0.0768653068   -2.1722773127   -2.8185567794
 O   -0.1379506338   -2.5259688197   -3.9457351567
 H    0.7757391829    2.1660449888   -0.3812756380
 H   -0.8675224559    1.7604043850   -0.9049161652
 H   -0.5258979938    1.9902033968    0.8133372023
 H    0.9242819789   -0.0269456700    0.8531810774
 H   -0.6969133999   -0.4458987024    0.3208804367
 H    2.6256033621   -0.6917462983   -0.2450273923
 H   -1.0709986376   -0.5953884251   -2.0385968012
 H   -0.3252012231   -0.0050513771   -4.3657086497
 H    0.0433515770    1.2930459131   -3.2037189054
 H    1.3286777299    0.1986821912   -3.7719648654
 H    0.2875079221   -2.8938758676   -2.0000966667