18

 C    0.0266424041    1.4784225056    0.0679869413
 C   -0.0216348825   -0.0100315756   -0.0654378284
 C    0.6577658442   -0.9528537816   -1.1010914102
 C    0.0535653416   -1.8126835463    0.0337333047
 O    0.5947059443   -0.8410917339    1.0141337993
 C   -1.2247939145   -0.9740737422   -0.0378618326
 C   -2.4855073914   -0.9795952155    0.7411280126
 C   -2.5090470443   -1.0661887205   -0.7859235326
 H    1.0628686272    1.8247995515    0.1230441859
 H   -0.4512444144    1.9531051878   -0.7950009998
 H   -0.4945475482    1.7989393049    0.9753365539
 H    0.2144742289   -1.0255937891   -2.0974703714
 H    1.7481096262   -0.9094833985   -1.1110038292
 H    0.1830489343   -2.8730200973    0.2502274373
 H   -2.7467919384   -1.8700650450    1.3038051677
 H   -2.8178357014   -0.0532166320    1.1994512784
 H   -2.8563676276   -0.1973063819   -1.3369603571
 H   -2.7856722381   -2.0146730403   -1.2359293698