21

 O   -0.1377715714    1.5184795364   -0.1256343695
 C    0.0281902361    0.1082619702   -0.0259373477
 C   -1.3756965922   -0.4970490972    0.1243359833
 C   -1.3719630369   -2.0252520099   -0.0759133638
 C   -0.2742720630   -2.7176416054    0.7505464521
 O    0.9334825859   -2.5898348991   -0.0155558015
 C    0.6128642453   -2.0035443989   -1.2901386720
 C   -0.8658459639   -2.3476785579   -1.4928791268
 C    0.7922327368   -0.4776225520   -1.2297654112
 H    0.7371979364    1.9195920267   -0.1336544920
 H    0.6043568047   -0.1337648305    0.8791341857
 H   -1.7737935078   -0.2303277029    1.1093643573
 H   -2.0337458680   -0.0315873091   -0.6193072294
 H   -2.3601390636   -2.4414696493    0.1360425822
 H   -0.1269206085   -2.2603782649    1.7365649045
 H   -0.4974608260   -3.7832765161    0.8989749087
 H    1.2786296010   -2.4528005371   -2.0325595643
 H   -0.9881422433   -3.4092309792   -1.7298712548
 H   -1.3475887969   -1.7546792033   -2.2740567095
 H    0.4148439949   -0.0240395811   -2.1543217149
 H    1.8559789704   -0.2227419395   -1.1499023164