14

 N   -0.0150705838    1.3235209668   -0.0486737395
 C    0.1042525116   -0.0150422599    0.0978905518
 N    1.1646109283   -0.6435479788   -0.2594961057
 C    1.1307773079   -2.0183590266   -0.2178053160
 N    0.0515670330   -2.7273558455   -0.4856171329
 O    0.5130224138   -4.0678842439   -0.3346486243
 C    1.8069540998   -3.9693290994   -0.0157170605
 N    2.4807666363   -5.1256727890    0.2319821401
 N    2.2624060735   -2.7526115148    0.0659044027
 H    0.7911644580    1.8423551094   -0.3596324006
 H   -0.7430768303    1.8222474742    0.4305197885
 H   -0.7740301098   -0.5103156254    0.5236376891
 H    2.1015349147   -5.9587270094   -0.1901531466
 H    3.4843076570   -5.0414263776    0.1954719939