17

 C   -0.0856176153    1.4433389065    0.0698381444
 C   -0.0300149728   -0.0389230583   -0.0220177265
 N    0.0088555800   -0.7714065080   -1.0957456005
 C    0.0404859457   -2.0761542773   -0.6295232298
 N    0.0311085020   -3.1545796854   -1.5001107548
 C    0.0244126345   -2.0726439299    0.7335069543
 C    0.0819254378   -3.1531008641    1.7522564707
 O    1.0425893995   -4.1554736982    1.4031496008
 O   -0.0184760023   -0.7434879978    1.1277314570
 H    0.7657657102    1.8371298966    0.6347805454
 H   -0.0703894629    1.8619593616   -0.9365961436
 H   -0.9977038763    1.7724756266    0.5788403069
 H    0.4290395850   -2.9298039494   -2.4015033759
 H    0.4381114734   -3.9868972008   -1.0940776238
 H    0.2835360979   -2.7128551681    2.7394438021
 H   -0.8644401664   -3.7020772566    1.8287023592
 H    1.8912269200   -3.7082691473    1.3085522339