18

 C   -0.0057152125    1.5592388841    0.0670202272
 C    0.0233893755    0.0597778940    0.0090134746
 C   -0.8819014185   -0.8266482848    0.8074908019
 C    0.6056941997   -0.9754789291    0.9967171746
 C    1.2373249332   -1.7336151292   -0.1799047028
 O    0.4284609208   -2.8025130423   -0.7892557791
 C   -0.0772923067   -1.9205550899   -1.7392678129
 N   -0.8543549223   -2.1286490681   -2.7010485249
 C    0.6670196770   -0.7226412858   -1.1821444982
 H    0.9686838129    1.9915087031   -0.1873106202
 H   -0.7437290066    1.9649145645   -0.6350508527
 H   -0.2758161568    1.9061673749    1.0695864179
 H   -1.3835608447   -0.3285436920    1.6314885642
 H   -1.4651344202   -1.6191388858    0.3500889962
 H    1.0818215586   -0.8264162586    1.9583575136
 H    2.2873337667   -2.0126455285   -0.1142194662
 H   -1.1332098435   -3.1108094733   -2.7468008871
 H    1.2841630374   -0.1364368031   -1.8595594061