21

 C    0.1132221378    1.5047238186   -0.0844197358
 C    1.2804894521    0.5700155347    0.1216560787
 C   -0.1219668799    0.0239727381   -0.0275125725
 C   -0.8224274515   -0.6743143315    1.1326826746
 C   -0.7096256642   -2.1720136131    0.7664494967
 C   -0.8215477529   -2.2123841982   -0.7676966384
 C   -2.2128353455   -1.9146972587   -1.3619971654
 O   -1.8378113305   -0.5650625194   -1.7057076644
 C   -0.4726204374   -0.7769735628   -1.2585347750
 H   -0.2186903424    2.1007918218    0.7593299944
 H    0.0142065181    2.0016609631   -1.0436379695
 H    1.9781778904    0.4335894294   -0.6986982093
 H    1.7368733512    0.5290049732    1.1053762555
 H   -0.3811183520   -0.4384483006    2.1052895230
 H   -1.8749431254   -0.3689408423    1.1673091457
 H    0.2724405491   -2.5530906910    1.0680609334
 H   -1.4652064699   -2.7919005407    1.2597199506
 H   -0.2909602285   -3.0502199710   -1.2210044005
 H   -2.4749921086   -2.5028752350   -2.2510540462
 H   -3.0556185857   -1.9437638984   -0.6584608144
 H    0.2362621456   -0.6529345862   -2.0852369111