14

 C   -0.0137563735    1.3083724798    0.0099452848
 C    1.2775701322    1.8062665210   -0.0000961214
 N    2.0879749664    0.7044932511   -0.0143716823
 C    3.4490408513    0.5388847433   -0.0288409296
 C    3.9392535073   -0.7323342756   -0.0408839189
 N    3.1578781587   -1.8529317695   -0.0394305041
 C    1.8568444712   -1.6846274261   -0.0255414561
 C    1.2397363053   -0.4144411643   -0.0122431828
 N   -0.0378856140   -0.0484856481    0.0025267704
 H   -0.9270353531    1.8858983556    0.0222900646
 H    1.6722578246    2.8084290277    0.0016234886
 H    4.0606098125    1.4313796371   -0.0298929524
 H    5.0117259588   -0.8909901431   -0.0524444891
 H    1.2188548521   -2.5644603788   -0.0241589718