23

 C    0.8520536593    1.4278361293    0.5778210278
 C    0.9816091694   -0.0674466161    0.2679463180
 C    0.8065840309   -0.4485539533   -1.2191494042
 C   -0.5522760289    0.0076487191   -1.7704070824
 O    1.7619224551    0.1829424390   -2.0740555051
 C    3.1298364415    0.2009891731   -1.6860448645
 C    0.8537726253   -1.9735470985   -1.3503042514
 C    1.3945626973   -2.6530748060   -2.5298515527
 O    2.1181857816   -2.6366017768   -1.2899096763
 H    1.5036915935    2.0279656222   -0.0632711638
 H   -0.1714858550    1.7851287165    0.4321425458
 H    1.1234483183    1.6276853988    1.6188246800
 H    1.9544134830   -0.4384848687    0.6085886917
 H    0.2351904830   -0.6266186984    0.8452950435
 H   -0.6337072640    1.0953523027   -1.7313845727
 H   -0.6524355052   -0.3007554860   -2.8144672447
 H   -1.3773063600   -0.4267238606   -1.1973703118
 H    3.5087437888   -0.7963060187   -1.4512351051
 H    3.6742823735    0.6026585126   -2.5451781859
 H    3.3088444558    0.8654719732   -0.8302696330
 H    0.0682602907   -2.4825980371   -0.7867654244
 H    1.0038951929   -3.6261421090   -2.8229055711
 H    1.8299510633   -2.0530235174   -3.3245373980