15

 N   -0.0473341506    1.3081050707   -0.2136168761
 C    0.0217178496    0.0695147202    0.0186174840
 O    1.2079363289   -0.5769404329    0.2186665048
 C    1.1289069947   -1.9592103004    0.4671854307
 C    0.0427100241   -2.5715243461    1.2902200679
 C    0.1463338603   -2.8492651400   -0.2216471416
 C   -1.1936354674   -2.0866024712   -0.4246410088
 C   -1.2934399624   -1.8191086970    1.0314627969
 N   -1.1543442396   -0.7108351011    0.0813563307
 H    0.8937534914    1.7057981875   -0.2221586528
 H    2.1289106440   -2.3526111866    0.6079977604
 H    0.2211508413   -3.2273809262    2.1315178343
 H    0.4183133248   -3.7558265494   -0.7450440768
 H   -1.9476996352   -2.3342936967   -1.1604419698
 H   -2.1438191540   -1.8086548010    1.7008745263