12

 N   -0.3119752456   -1.1585517582   -0.3118749561
 C   -0.1974210914   -0.0201792235   -0.1513517301
 C   -0.0736276670    1.4076126791    0.0657185991
 C    0.0842009138    1.9237324639    1.5217509463
 O    1.2455190472    2.6998713464    1.1541850707
 C    1.3113914607    2.1090689036   -0.1514953673
 C    2.4724614540    1.2317535255   -0.3236803483
 N    3.3958842802    0.5527845535   -0.4662774761
 H   -0.8595184063    1.9317874518   -0.4808839114
 H   -0.7277828546    2.5517290836    1.8959657616
 H    0.3252271591    1.1421282862    2.2488912809
 H    1.3157131401    2.8656356482   -0.9427987194