14

 N    0.4657892852    1.2655432901    0.1976760548
 C    0.2066533448    0.0421862637    0.1196978915
 O    0.9750086795   -1.0763373341    0.3279085139
 C   -0.1975664137   -1.9556981939    0.2182228038
 C   -1.0675766674   -0.7326183292   -0.1529584337
 N   -2.1748761153   -0.3696377210    0.6925009905
 C   -3.3509345848   -1.0491009505    0.6292784527
 O   -3.5185091469   -2.0418024200   -0.0472012292
 H    1.4395553112    1.4337793501    0.4550513442
 H   -0.0555465466   -2.7089050270   -0.5572442399
 H   -0.4315711779   -2.4143197336    1.1803218114
 H   -1.3641567825   -0.7417553936   -1.2059503495
 H   -2.1098038649    0.4965208374    1.2054894732
 H   -4.1334454306   -0.6041261284    1.2730918862