21

 O   -0.0284295079    1.4205884387    0.1116244267
 C    0.0286708360    0.0158024475   -0.0165752503
 C    1.0644727654   -0.5809245081    0.9386474917
 C    1.4488128919   -2.0068920736    0.5275412879
 C    0.1978323827   -2.7743266751    0.0852683237
 C   -0.7040315750   -1.8712692850   -0.7524942963
 C   -1.3781421232   -0.6382803725   -0.0725062825
 C   -1.5439431249   -0.0369850262   -1.4985360491
 C   -0.0996755186   -0.6091780771   -1.4622558673
 H    0.8694642056    1.7618569411    0.0502627999
 H    1.9584431258    0.0575971971    0.9514021435
 H    0.6570625335   -0.5544796814    1.9574169318
 H    2.1427048029   -1.9523053814   -0.3201184908
 H    1.9798464757   -2.5243468315    1.3328607148
 H    0.4825981977   -3.6644976168   -0.4870411862
 H   -0.3643612453   -3.1356495627    0.9571924117
 H   -1.3929755528   -2.4404879279   -1.3831203240
 H   -2.1124211019   -0.6563649525    0.7364589490
 H   -2.2454410668   -0.5578660419   -2.1558702269
 H   -1.6419717320    1.0443726527   -1.5647905802
 H    0.6391819412   -0.5922521932   -2.2670637872