13

 N   -0.0974186591    1.3571753557   -0.3236973504
 C   -0.0401072245    0.0127302470   -0.0905901242
 N   -1.0882750466   -0.7218661397    0.2119500163
 O   -0.5416049961   -2.0244474711    0.2767706656
 C    0.7562036907   -1.8995363090    0.0205546392
 C    1.6035580129   -3.1364443191    0.0088166866
 C    1.6914083543   -3.7815543169    1.3206112389
 N    1.7710897339   -4.2961926951    2.3508074968
 N    1.1455774860   -0.6868065360   -0.2157917211
 H    0.7709281762    1.8468986113   -0.1745549932
 H   -0.9138625947    1.8261321323    0.0377376176
 H    1.1952770519   -3.8555168394   -0.7104987597
 H    2.6040942352   -2.8541504200   -0.3275047224