21

 C    0.0573152914    1.3387019617   -0.1555614289
 O    0.1714602890   -0.0621141283   -0.0985882469
 C    0.4598617351   -0.5294551326    1.2063458893
 C    0.5620393734   -2.0317311324    1.1327054813
 C    1.8454835737   -2.7076714250    0.7951935168
 C    1.2856673090   -2.8578701524    2.2017151925
 C    2.0075027501   -2.2071665534    3.3373407349
 C    1.8170484449   -2.8574606431    4.6957273402
 O    2.7110111733   -1.2272471035    3.1951083110
 H    0.9877338298    1.8388727097    0.1569762638
 H   -0.1576773803    1.6082911691   -1.1926790890
 H   -0.7597247296    1.7110034184    0.4840258429
 H    1.3947200262   -0.0957426417    1.5836389628
 H   -0.3470372943   -0.2336379220    1.9001093951
 H   -0.3430232673   -2.5029610303    0.7595741564
 H    1.8357452491   -3.5810426306    0.1534916360
 H    2.7276525658   -2.0806410165    0.7218330141
 H    0.8100999462   -3.8017935084    2.4465653280
 H    2.1691616201   -3.8953369081    4.6694204148
 H    2.3672191945   -2.3020506003    5.4557922725
 H    0.7527362799   -2.8914220903    4.9555286324