20

 C    0.0834431520    1.5968972247   -0.0537523328
 C    0.0000795414    0.0642511912   -0.0676019666
 C    0.6189223094   -0.5737423352   -1.2858883362
 C    1.5761662834   -1.7015696714   -1.2481883214
 N    2.0697797037   -0.3601787701   -1.6425445943
 C    1.6315476151   -0.0263431506   -3.0567642003
 C    0.8041786389   -1.0552074434   -3.7983919756
 C    0.1778731227   -0.1960735638   -2.7329836192
 O   -0.8697635964    0.6722057582   -2.9833969299
 H    1.1262980330    1.9176939955   -0.1318403906
 H   -0.4710133350    2.0283895757   -0.8899041286
 H   -0.3294331637    1.9961605433    0.8777817719
 H    0.5004394639   -0.3385135719    0.8205541771
 H   -1.0486098090   -0.2564104784   -0.0011805468
 H    1.9495981761   -1.9913871681   -0.2691869131
 H    1.5531383951   -2.5174758525   -1.9607177502
 H    2.1723697908    0.7618516585   -3.5638780492
 H    0.5481485874   -0.7081909146   -4.7957805128
 H    0.9405724980   -2.1291593820   -3.7329564460
 H   -1.6637394168    0.1501887849   -3.1447943155