25

 C    0.3027501538    1.7766966978   -0.0220417016
 C    0.0003672735    0.2674123266   -0.0918950282
 C    0.6746686603   -0.4348373073   -1.2424848173
 C    1.8761239044   -1.0158099959   -1.2005829484
 C    2.2669941256   -1.6612302196   -2.5055684601
 C    1.2143935068   -1.0951428939   -3.4866863641
 C    0.0111371812   -0.6361663348   -2.6118314395
 C   -1.0478084935   -1.7562387214   -2.5032339654
 C   -0.6503334975    0.6282277043   -3.1812486988
 H    1.3790912694    1.9488680143    0.0744861277
 H   -0.0381608629    2.2992859310   -0.9197454412
 H   -0.1942335679    2.2319906190    0.8409490965
 H    0.3206326962   -0.1954232927    0.8486972108
 H   -1.0860028933    0.1237873461   -0.1490967685
 H    2.5015429999   -1.0663715360   -0.3138619432
 H    3.2927238477   -1.4261614079   -2.8127238036
 H    2.2173430434   -2.7573355585   -2.4316083318
 H    1.6341495846   -0.2234725812   -4.0004318936
 H    0.9159781555   -1.8113189366   -4.2583940070
 H   -0.5950270070   -2.6967140076   -2.1738824489
 H   -1.8346925963   -1.4966420305   -1.7865301216
 H   -1.5287910201   -1.9295831268   -3.4727089125
 H   -1.0445686335    0.4338397132   -4.1854504535
 H   -1.4898269084    0.9615892512   -2.5613136503
 H    0.0650945881    1.4531605771   -3.2575512658