16

 N    0.1558175990    0.9949992396    0.1483247337
 H    0.1939086230    0.0279822621   -0.1338908163
 H    0.9633808316    1.5257807559   -0.1462954652
 C   -1.0744595375    1.5885295207    0.0679697901
 N   -1.2489655417    2.8919033751    0.0623186035
 C   -2.4735131189    3.5523139984    0.0509624421
 C   -3.7666341097    2.9948243734    0.0447185260
 C   -4.7007790550    4.0735739744    0.0314551668
 O   -5.9262347043    4.1562942495    0.0217529297
 N   -3.8592713232    5.2554341718    0.0297599669
 C   -2.5379331800    4.9400709610    0.0405946441
 H   -1.7476483150    5.6751194932    0.0443991909
 H   -1.9531641390    0.9617660836    0.0903540897
 H   -0.4298475410    3.4877640261    0.0708255231
 H   -4.0517834536    1.9559355276    0.0489291234
 H   -4.2515608747    6.1817074574    0.0235120713