15

 C   -0.0790875503    1.5287337316    0.0421370600
 C    0.1487196405    0.0499006090    0.0146541398
 O   -0.7042226337   -0.7977284120    0.8081064144
 C    0.7071069384   -0.8097049486    1.0724074120
 C    1.3945326309   -1.9697667750    0.4109843779
 N    2.0802268346   -2.8399997712    1.0248333148
 N    1.1287242048   -1.8278413586   -0.9561958642
 C    0.4701322448   -0.6519487696   -1.3010774645
 O    0.2257449646   -0.2773544789   -2.4194342822
 H    0.8181349694    2.0633420118   -0.2835567722
 H   -0.8920212600    1.7929050824   -0.6399592083
 H   -0.3415672921    1.8518237782    1.0516679797
 H    1.0302791302   -0.4709362712    2.0495710793
 H    2.4753684248   -3.5375078091    0.3908210974
 H    1.3797594632   -2.5123877686   -1.6542004338