20

 C   -0.1283994029    1.5141809336    0.0391015628
 C    0.0194371557    0.0128761931   -0.0182105066
 C    1.3753644870   -0.6174154675   -0.3162553269
 C    0.7293384581   -0.8080058043    1.0310915781
 C    1.3139755576   -0.3286565492    2.3271544291
 O    0.0450285786   -2.0502898478    1.1799764051
 C   -1.0024332436   -2.1413929401    0.3017489410
 N   -1.7099409780   -3.1735268823    0.1384288297
 C   -1.1819924780   -0.8223842425   -0.4293808287
 H    0.7691494070    1.9939273737    0.4403583545
 H   -0.2994917084    1.9275144446   -0.9613697065
 H   -0.9764010991    1.8069459926    0.6687475477
 H    1.4287309156   -1.4739925516   -0.9814422391
 H    2.2258567253    0.0544543526   -0.3740348924
 H    1.8137657754    0.6337037285    2.1920105274
 H    0.5348378751   -0.2122759416    3.0871672625
 H    2.0531547137   -1.0429480087    2.7036585840
 H   -1.3871577578   -3.9274457302    0.7475462819
 H   -2.1166418224   -0.3531795135   -0.1014507581
 H   -1.2675176388   -0.9919012496   -1.5060564954