21

 O   -0.1251137913    1.4337573866    0.1060062203
 C   -0.0035708028    0.0150134066    0.0224527471
 C    0.8219689868   -0.5381199170    1.1992320526
 C    0.8528022865   -2.0624003288    1.2385838469
 C    0.0863641615   -2.8293380882    2.2908359986
 C   -0.4253156732   -2.7880239223    0.8728409686
 C   -1.6190278908   -1.9763182962    0.4356305861
 C   -2.1803055579   -0.8182215964    1.2257102248
 C   -1.4042188479   -0.5524770812   -0.0392818937
 H    0.7636067630    1.8047072512    0.0964935040
 H    0.5069209986   -0.2595062680   -0.9171601453
 H    1.8440404623   -0.1489340487    1.1197668389
 H    0.4127148948   -0.1190924888    2.1249418561
 H    1.7768641227   -2.5151168053    0.8931364302
 H    0.5047263435   -3.7606554452    2.6574029283
 H   -0.4476703858   -2.2579937331    3.0433626823
 H   -0.3028924101   -3.7044202130    0.3034892655
 H   -2.3552832706   -2.5533195762   -0.1151664768
 H   -3.2544386844   -0.6711605737    1.2026694546
 H   -1.7294901350   -0.5560500483    2.1754222320
 H   -1.9686185599   -0.2174347239   -0.9037844311