20

 C    0.3131539499    1.4330508086   -0.7949629020
 C    0.0731430366    0.0055139486   -0.5989218406
 C   -0.1031518570   -1.1737203718   -0.4201688411
 C   -0.3147575233   -2.5772803555   -0.2136461753
 C    0.1671145035   -3.2437999325    1.0659568367
 C   -1.3034679965   -3.0594967786    0.8369451087
 C    1.4069042480    1.9874080787    0.1063787215
 C    1.3392002599    3.3935822997    0.5705785165
 N    1.1292249729    2.2813283214    1.5171416681
 H    0.5851714558    1.6182588014   -1.8433927631
 H   -0.6132791651    1.9992109076   -0.6203583709
 H   -0.2518280627   -3.1865553005   -1.1108686913
 H    0.5859027620   -4.2400229356    0.9788955816
 H    0.6530808424   -2.6087029972    1.7967762764
 H   -1.8179258940   -2.3001067145    1.4134771525
 H   -1.9044041532   -3.9278225065    0.5911791361
 H    2.3841677053    1.5375226468   -0.0543981090
 H    2.2487390186    3.9657966944    0.7294232518
 H    0.4815029623    3.9875770029    0.2629110185
 H    0.1349478644    2.1663742327    1.7019941448