18

 O    0.1037532908    1.4263329011    0.1022908827
 C    0.0254136554    0.0196021797   -0.0685403280
 C   -1.3827022598   -0.5216036206    0.2017262614
 C   -1.4625883203   -2.0376697306    0.0527739158
 C   -2.8320474002   -2.7432624987    0.0942591067
 N   -3.5937514110   -2.2210995655   -1.0437461018
 C   -2.6349727035   -3.3662703227   -1.2587378960
 C   -1.2783170325   -2.7015543999   -1.3522649024
 O   -0.3605073770   -2.7675084101   -2.1166862695
 H   -0.4281572337    1.8339573960   -0.5884975696
 H    0.3626247070   -0.2887090634   -1.0685180022
 H    0.7341238724   -0.4043220214    0.6522858252
 H   -1.6830977366   -0.2290208025    1.2153203627
 H   -2.0962680172   -0.0603805618   -0.4906751792
 H   -0.7547447772   -2.5381983286    0.7275079748
 H   -3.3158962828   -3.1810559495    0.9576222657
 H   -4.5231652362   -2.6417118895   -1.0239019807
 H   -2.9812379176   -4.3046131619   -1.6722803355