19

 C    0.1842369851    1.4306880731    0.1666667335
 C   -0.0712673969   -0.0777190587   -0.0079762980
 C   -1.5724087275   -0.3475122828   -0.1377338756
 C    0.7267996668   -0.5994962205   -1.2345674642
 C    2.1376426411   -0.8442843009   -0.7260614467
 O    3.1620196105   -0.9073162016   -1.3487941005
 C    2.0326327725   -1.0061173210    0.8252373592
 O    2.9656175948   -1.2099953506    1.5526235256
 C    0.5633249343   -0.8514182085    1.1804563684
 H    1.2533057701    1.6547205455    0.2624052295
 H   -0.1943941938    1.9930407800   -0.6930592673
 H   -0.3134211285    1.8096238882    1.0652628680
 H   -1.9924597170    0.1771817063   -1.0028535186
 H   -1.7752294081   -1.4166131558   -0.2629856235
 H   -2.1113048196   -0.0059615746    0.7528349277
 H    0.3244878520   -1.5673681039   -1.5669397833
 H    0.7146624961    0.0706574703   -2.0975760273
 H    0.4269279386   -0.3727592500    2.1532453323
 H    0.1337880594   -1.8612358845    1.2502262508