22

 C   -0.6668751869    3.1095145136    0.6296062985
 C   -1.0781167940    1.6525340391    0.6561992139
 C   -0.1326957359    0.5653881619    0.1900685144
 O    1.1885783415    0.8936773063   -0.1327015203
 C   -0.4970562017    0.6509084599    1.6505249163
 C    0.5191359151    1.0574310431    2.6729428646
 C    0.1814057923    1.0155855532    4.1279999519
 N    1.1659493631    0.0957662429    3.5725375172
 C    0.8214577976   -1.3153646419    3.5056397873
 H    0.4186989711    3.2237034133    0.6674680497
 H   -1.0182916206    3.5892615725   -0.2909200043
 H   -1.0948597590    3.6618436331    1.4725610743
 H   -2.1253228776    1.4861095152    0.4151875564
 H   -0.5448370860   -0.2624109837   -0.3875839333
 H    1.1883935897    1.3217417694   -0.9954413756
 H   -1.2007196692   -0.1012321776    1.9915604705
 H    1.2103475170    1.8225345828    2.3343001469
 H    0.5567872551    1.7690900484    4.8165979814
 H   -0.7979880449    0.6132388480    4.3903501388
 H   -0.2544330458   -1.5262794581    3.3971828141
 H    1.3478295661   -1.7768941072    2.6641604908
 H    1.1615267333   -1.8002510443    4.4267030464