17

 O   -0.0755419014    1.3017554942   -0.0789849960
 C   -0.0599638359   -0.0877328257   -0.1476173206
 C    0.8574006230   -0.8105767816   -1.1574012709
 C    0.3278384679   -2.2240134788   -0.9625750137
 C   -0.8422854712   -2.1880890840   -0.2895783988
 C   -0.7860245706   -2.3703293699    1.2374580201
 C   -0.6942522529   -0.8060432474    1.1878075894
 C   -1.3676019993   -0.7503937898   -0.1592818228
 O   -2.5903925215   -0.2983162449   -0.6016888540
 H    0.7117160168    1.6039150079    0.3863706782
 H    0.7600905078   -0.3411377015   -2.1460527064
 H    1.9246906953   -0.8006542798   -0.9002295302
 H    1.0251233019   -3.0504737144   -0.8536464829
 H   -1.7156446158   -2.6670255002    1.7360223212
 H    0.0555027578   -2.9506108432    1.6264352558
 H   -0.8516404709   -0.1406106797    2.0334002311
 H   -2.5511600312    0.6659765587   -0.6009154395