19

 O    0.0781049564    1.4882530099   -0.0558946318
 C    0.0195586238    0.0847477063    0.0238394140
 C    0.1368805935   -0.6396539869    1.4043509330
 C   -0.9210510118    0.1109731236    2.2328691993
 C   -2.1090344766   -0.3428948589    1.3544133020
 C   -2.0816894886   -1.8836821176    1.5759300991
 C   -0.7734122607   -1.7791421152    0.7852294519
 O   -0.0616842679   -2.8494050664    0.2590621324
 C   -1.3591224553   -0.5588972590   -0.0293898503
 H    1.0029030224    1.7551539807   -0.0402344453
 H    0.6763906240   -0.3913171706   -0.7154764103
 H    1.1018347901   -0.8789407634    1.8499854644
 H   -1.0084244097   -0.2389407794    3.2649600469
 H   -0.7521388422    1.1893624684    2.2255460127
 H   -3.0417710841    0.2142440058    1.4043142530
 H   -2.0771355186   -2.2639163048    2.6028201804
 H   -2.8492158235   -2.4014609837    0.9894721672
 H   -0.6682303700   -3.3916810234   -0.2565061800
 H   -1.9610193412   -0.6552842152   -0.9323111387