19

 O    0.0347802560    1.3046523272   -0.2869642152
 C    0.0043215375   -0.1074961654   -0.2147911858
 C   -1.3900989676   -0.5851878774    0.1919376685
 O   -2.3602519858   -0.0791692860   -0.7443465922
 C   -2.6894688386   -1.1030134732   -1.6797654171
 C   -2.5963396094   -2.4328504681   -0.9129891451
 C   -1.5186158146   -3.4229018220   -1.3929666918
 O   -0.5550279937   -2.8856126537   -0.4597351154
 C   -1.5831639302   -2.1096082713    0.2062058986
 H   -0.7405546885    1.5543423759   -0.8047992925
 H    0.2915745072   -0.5725519885   -1.1679240488
 H    0.7424186031   -0.4147149912    0.5332900080
 H   -1.6467455882   -0.1396801620    1.1592487100
 H   -3.6916471288   -0.8878683092   -2.0595757816
 H   -1.9924378741   -1.0967547960   -2.5315258747
 H   -3.5665668507   -2.8403170484   -0.6307654493
 H   -1.7408232567   -4.4747833154   -1.1748944964
 H   -1.1864540607   -3.3318448821   -2.4337710899
 H   -1.7826750161   -2.5052030333    1.2072992308