20

 C   -0.0550546645    1.5110412398   -0.0132548765
 C   -0.0325099498   -0.0036677475    0.0031394601
 C   -0.7805943064   -0.7218420804    1.0888038536
 C    0.7417239649   -0.6924724026    1.1169222552
 C    1.4908482400   -1.9483455495    0.8596484225
 N    2.1812613808   -2.5035539469    1.7649565472
 O    1.3515447720   -2.5059663651   -0.3865189240
 C    1.2555992730   -1.5810956481   -1.4797115222
 C    0.0262270112   -0.6889429135   -1.3672302661
 H    0.8292651001    1.9167818311   -0.5181544045
 H   -0.9408561037    1.8827649733   -0.5415948329
 H   -0.0762219457    1.9188177786    1.0021687237
 H   -1.2914964333   -0.1380163222    1.8468496495
 H   -1.2597357186   -1.6643202611    0.8450549431
 H    1.1930401166   -0.0780920583    1.8864926255
 H    2.6169033072   -3.3502912480    1.3922957606
 H    2.1704430582   -0.9734708066   -1.5146431022
 H    1.2253096771   -2.2004823745   -2.3792908705
 H   -0.8753032983   -1.2861253639   -1.5410717997
 H    0.0670334093    0.0634954354   -2.1623972224