18

 C   -0.1045772483    1.6119275712   -0.1032183543
 C   -0.1060343578    0.0832730319   -0.0822639647
 C    0.8135945049   -0.5315352911   -1.1638986573
 N    2.1934729429   -0.0969365141   -0.9798850760
 C    3.1285793784   -0.9416143883   -0.9288226749
 O    3.0849383813   -2.2943069375   -0.9853396798
 C    1.8032440509   -2.9111645365   -0.8481248326
 C    0.6114357639   -2.0390344118   -1.2229896787
 O   -0.4451978889   -2.5529334332   -1.5017383081
 H    0.9065701409    2.0018121824    0.0338864545
 H   -0.4853036568    1.9916825536   -1.0577119727
 H   -0.7416898712    2.0086744818    0.6929178417
 H    0.2224036164   -0.2784801213    0.9003821798
 H   -1.1144408322   -0.3074377591   -0.2491578459
 H    0.4746160116   -0.1416948929   -2.1347357457
 H    4.1640715071   -0.6182425564   -0.8398198690
 H    1.8001882427   -3.8130279042   -1.4637091586
 H    1.6702284942   -3.2167047247    0.2002433425