16

 N   -0.0273773566    1.4097123903    0.1450510458
 C   -0.0021678034    0.0313812922    0.0581523970
 C   -1.1973039343   -0.7087482149    0.0454355245
 C   -1.1585861554   -2.0919866618    0.0115050296
 C    0.0596190793   -2.7803777982   -0.0126931861
 C    0.0859504012   -4.2474137340   -0.0527136933
 O    1.0878991305   -4.9297752316   -0.0784763358
 C    1.2516257819   -2.0396144590   -0.0008535553
 C    1.2258634298   -0.6602956822    0.0338286412
 H    0.8044676712    1.8977936865   -0.1478032369
 H   -0.8798490368    1.8673852499   -0.1373449093
 H   -2.1486034374   -0.1856470325    0.0655527738
 H   -2.0876994831   -2.6558007967    0.0002249260
 H   -0.9242404827   -4.7192918782   -0.0582993755
 H    2.1918547536   -2.5798273652   -0.0221326417
 H    2.1528153924   -0.0943350847    0.0451281959