21

 C    0.4502248041    1.7336289639   -0.6061741583
 C    0.4716128923    0.2360202882   -0.3825416857
 C    1.7187497756   -0.5895334840   -0.3693759281
 O    2.7984329484    0.1105564863    0.2659407728
 C    2.1011673149    0.0301475632    1.5471486995
 C    2.1354760546    1.3357877735    2.3207413294
 O    3.4773332727    1.7265658195    2.5599405214
 C    0.8493477409   -0.5437500033    0.8776909965
 C   -0.0481517094   -1.5666960049    1.5135153747
 H    1.4248733523    2.1750318219   -0.3910490190
 H    0.2137386332    1.9503673106   -1.6535426722
 H   -0.3034003165    2.2317612811    0.0129368868
 H   -0.3391093779   -0.2920389696   -0.8846807490
 H    1.9809172107   -1.3846561769   -1.0592909833
 H    2.5943534930   -0.7445922426    2.1518480082
 H    1.5738808426    2.1216622555    1.8007890036
 H    1.6693854214    1.1866778206    3.3016538303
 H    3.9130163275    1.7390948256    1.6995099521
 H   -0.7453950859   -1.1042271007    2.2226012709
 H   -0.6483785216   -2.0881997115    0.7612275396
 H    0.5308483168   -2.3203091564    2.0595618900