20

 C   -0.1079057527    1.5550320450   -0.0412362863
 C    0.0376589292    0.0277187896   -0.0245584262
 C    0.7635960150   -0.4531653108   -1.2861161507
 O   -0.0215072873   -0.0949772210   -2.4129989451
 C    0.7569703618   -0.5015895069    1.2402170148
 C    0.0995636298   -0.0317850327    2.5528050576
 C    0.7522455648   -2.0192410443    1.2498302353
 O    1.7236858538   -2.7235228195    1.3499148889
 H    0.8645081205    2.0428949562    0.0983434331
 H   -0.5103632323    1.8729069942   -1.0052213992
 H   -0.7807415738    1.9127679368    0.7418629207
 H   -0.9692597299   -0.4141086522   -0.0538278485
 H    1.7633034618    0.0104161139   -1.3303279519
 H    0.9142637684   -1.5431659596   -1.2461387446
 H    0.4561401135   -0.3508809384   -3.2070228473
 H    1.8070490728   -0.1849479801    1.2291620208
 H   -0.9520669377   -0.3368257580    2.6010203079
 H    0.6156093122   -0.4588162874    3.4179134166
 H    0.1388045523    1.0557001970    2.6434931912
 H   -0.2715185220   -2.4630540820    1.1801037228