18

 C   -0.0771304354    1.5487992304    0.6545414915
 C    0.0494579369    0.0895111001    0.2646444488
 C    0.3869328395   -0.3843227138   -1.1163433762
 C    0.6524208007    0.5544446371   -2.2661489426
 O    1.5574047903   -0.1033841771   -3.1470652063
 N    1.3227393002   -0.5787418358   -0.0086851510
 C    2.5818256173    0.1499842037    0.0287966608
 H    0.5681250824    2.2159013586    0.0811882541
 H   -1.1102855639    1.8837527575    0.5121258088
 H    0.1660336622    1.6818301857    1.7146601027
 H   -0.6324746839   -0.5450950242    0.8321391023
 H   -0.0632137217   -1.3164165933   -1.4589816479
 H   -0.3040812639    0.7712029144   -2.7691644841
 H    1.0642848120    1.5133178076   -1.9259884397
 H    1.6869084640    0.4589255140   -3.9167206838
 H    2.5316873441    1.2142981375   -0.2423450178
 H    2.9935484333    0.0847742668    1.0413055810
 H    3.2800087158   -0.3348595692   -0.6591986809