14

 N    0.0105117567    1.4039476350    0.1070744385
 C   -0.0050859468    0.0205709105   -0.0090873364
 C   -1.1305184565   -0.7318768167    0.0868438089
 O   -2.3576565205   -0.2043612164    0.2388794018
 C   -1.0516875823   -2.1734670255    0.0233627097
 N   -2.1319906095   -2.8491876177    0.1119206692
 O    0.1779719218   -2.7491232260   -0.1408963326
 N    1.3529275877   -1.9968491827   -0.2422573576
 C    1.2194954157   -0.7166242056   -0.1709020471
 H    0.7199163463    1.8742334898   -0.4367990766
 H   -0.8989855501    1.8300566495   -0.0059886566
 H   -2.9538637604   -0.9794463925    0.2672825686
 H   -1.9784760766   -3.8525246715    0.0466092826
 H    2.1630064246   -0.1804781802   -0.2447448025