21

 O   -0.0663558986    1.3944631340   -0.0148747082
 C    0.0107228089    0.0028947071    0.0233181526
 C    0.3509663891   -0.8049179608    1.3143191172
 C   -0.4085832943   -1.9173546619    0.5619255753
 C   -1.3245249912   -0.8118356468   -0.0470438943
 C   -1.8054789898   -1.2697583105   -1.4296603199
 C   -0.7935076612   -2.4000147164   -1.7878463615
 C    0.3476702097   -2.1617269971   -0.7821063172
 C    0.8944801859   -0.7196048937   -1.0152422367
 H    0.8252616469    1.7472131710   -0.1069863985
 H    1.4044365858   -0.9584856947    1.5702470874
 H   -0.2018525661   -0.4398361129    2.1831594399
 H   -0.8158804010   -2.7919864035    1.0682573217
 H   -2.0827344646   -0.4066250562    0.6241604902
 H   -2.8346419997   -1.6387654645   -1.3974743238
 H   -1.7861193347   -0.4499470099   -2.1554563605
 H   -1.2444189915   -3.3862589874   -1.6285262185
 H   -0.4514603100   -2.3602588247   -2.8267700225
 H    1.1106475851   -2.9423495651   -0.7688618689
 H    0.7313458538   -0.3646812165   -2.0374341886
 H    1.9592322075   -0.6121243495   -0.7808500453