15

 C   -0.4593809400    1.3763840076    0.2596588183
 C   -0.1296946417   -0.0749919600    0.0938665342
 C   -0.0496398276   -0.8009107048   -1.0659398200
 N   -0.2834283669   -0.4825766019   -2.3790167949
 O    0.2665905228   -2.0839909072   -0.8111349930
 N    0.4082185471   -2.2542645050    0.5624607283
 C    0.1711846598   -1.0609144135    1.0761221468
 C    0.2596460810   -0.9404443493    2.5442947732
 O    0.0837028889    0.0868037568    3.1577947153
 H   -0.3419716216    1.6670739919    1.3035418583
 H    0.1973995517    2.0135123784   -0.3461701244
 H   -1.4917456278    1.5954327953   -0.0383633095
 H   -0.1654885806    0.4942112389   -2.6038751690
 H    0.1559426224   -1.0985407794   -3.0483758692
 H    0.5088774325   -1.8938948781    3.0516922856