14

 O    0.0466879209    0.0987569762    0.3291966900
 C    0.0218852660    1.2438147434    0.0194812485
 O   -1.0251310887    1.9746005867   -0.4708922714
 C   -0.2295209634    3.2041414145   -0.5110964750
 C    0.9999436535    2.4438719328    0.0308048031
 C    1.6392771884    2.8104800428    1.3898512580
 O    3.0502304027    2.9240064182    1.0887557209
 C    3.1619094755    2.6089722919   -0.2165533735
 N    2.1250993831    2.3307098905   -0.8962764473
 H   -0.1234462870    3.5700519958   -1.5326511774
 H   -0.6599252852    3.9636452567    0.1458046847
 H    1.2940180018    3.7639315510    1.7970233624
 H    1.5125781829    2.0223889501    2.1363746549
 H    4.1747558595    2.6280173993   -0.6020611280