14

 C    0.6839403977    0.5498599787   -0.0648737492
 O   -0.2845901582   -0.1599096883   -0.8275741739
 C   -1.4885051614   -0.3815896863   -0.1241708247
 C   -2.5581231512   -0.5883476781   -1.1099182436
 N   -3.3996723201   -0.7649208126   -1.8804391629
 C   -1.4395134773   -1.6139364620    0.8329822460
 N   -0.4968906931   -2.5187198961    0.4801666156
 O   -2.1928505679   -1.7000771407    1.7754522709
 H    1.5549086741    0.6753629910   -0.7101080816
 H    0.3067692008    1.5385451092    0.2283516130
 H    0.9777789841   -0.0037849490    0.8366563861
 H   -1.7597631870    0.4776731463    0.5042087632
 H    0.0479394431   -2.3810796431   -0.3547516686
 H   -0.4345033136   -3.3841275491    0.9904937997