16

 O    0.0572625483    1.3399152629   -0.1849783541
 C   -0.0248124027    0.0543274831    0.3934281726
 C   -1.3911388259   -0.5650343564    0.0899169966
 N   -1.6426120569   -0.6028526520   -1.3928270290
 C   -1.8576306108   -2.0860106872   -1.3671671012
 C   -1.5025384639   -2.0740249076    0.1031262935
 N   -1.3229980145   -2.9159801971    1.0280012186
 O   -1.5143265136   -4.2267603183    0.5576289674
 H   -0.1341231816    1.2033845515   -1.1227453172
 H    0.7660949931   -0.6122092058    0.0166148649
 H    0.1144297199    0.1673576136    1.4728022923
 H   -2.1720919568   -0.0452662673    0.6583414323
 H   -2.4807143356   -0.0983255181   -1.6570479280
 H   -2.8836205686   -2.4162043217   -1.5707458922
 H   -1.1797458005   -2.6431441577   -2.0225121338
 H   -1.3480254097   -4.7538670319    1.3466939273