20

 C   -0.2908719156    1.5155042666    0.3264517233
 C    0.0051647693    0.0643610614   -0.0015653775
 C    0.5446408603   -0.5310582914   -1.2881318832
 C    1.4206129497    0.2362681221   -2.2607285221
 N    1.8131322827    1.6198197204   -1.8821403684
 C    2.7410731752    0.4976451767   -1.6423644854
 C    2.6982159513    0.0454655667   -0.1740335590
 O    2.9790766246    1.0989850408    0.7285757788
 C    1.3346227351   -0.6585703108    0.0077978551
 H   -1.3064247514    1.7666552745   -0.0008791523
 H   -0.2490191941    1.6680972413    1.4106842982
 H    0.3886929268    2.2082213785   -0.1626300810
 H   -0.7648408678   -0.5834107329    0.4178488410
 H    0.0174899167   -1.3777679721   -1.7158469739
 H    1.3200582223    0.0168146131   -3.3185023349
 H    2.0992191848    2.1292078429   -2.7142653332
 H    3.6789713738    0.4700487738   -2.1874147351
 H    3.4838971539   -0.6993919443   -0.0079990106
 H    2.4827093117    1.8607722747    0.4053758200
 H    1.3669676707   -1.5988333723    0.5485789705