19

 C   -0.0294273794    1.4589306162   -0.1720403083
 N    0.0493000261    0.0130861198    0.0262290563
 C    0.6789882305   -0.4544813379    1.2679188486
 C    0.0153541542    0.0583506945    2.5695861507
 C    0.6482255310   -2.0064443830    1.2230785004
 C    1.3832904370   -2.6878015585    2.3605390770
 O    0.8938379351   -3.5349840132    3.0618946123
 C    2.0902931375   -0.0053471506    1.2479579879
 N    3.1913169278    0.3451541414    1.2576439317
 H    0.9803235096    1.8796566871   -0.1817341127
 H   -0.4762153779    1.6468405909   -1.1518580450
 H   -0.6199181424    2.0026460172    0.5815897069
 H   -0.8759839870   -0.3994384889   -0.0316223081
 H   -1.0268491112   -0.2752090595    2.5969555119
 H    0.5222097765   -0.3316753785    3.4568557129
 H    0.0376049565    1.1484733362    2.6216378412
 H   -0.3917979245   -2.3462780004    1.2364199495
 H    1.1057317682   -2.3207551874    0.2771493858
 H    2.4369442924   -2.3614250554    2.4996445210