21

 C   -0.2151681591    1.5200316445    0.0125377740
 C    0.1312375907    0.0556191946   -0.0178846407
 C    0.3849192818   -0.6220565271   -1.3677027745
 C    1.2868618366   -1.8116854477   -1.0458231142
 C    2.6616921889   -1.5064124633   -0.5013366625
 C    1.5380672645   -1.8602650000    0.4434725717
 C    0.8121498546   -0.6963929886    1.0611223615
 C    1.2793762699   -0.1401235321    2.3791250700
 O   -0.6156574051   -0.7942268278    0.8729773514
 H    0.5746660100    2.1176783634   -0.4551156099
 H   -1.1422373587    1.7013564933   -0.5432472065
 H   -0.3652436236    1.8739668145    1.0345536020
 H   -0.5677959185   -0.9448501961   -1.8020807818
 H    0.8502033755    0.0731408641   -2.0770930117
 H    1.1539205174   -2.7301595985   -1.6049960190
 H    3.4412014488   -2.2450024010   -0.6529698838
 H    3.0123685727   -0.4781161540   -0.5281491889
 H    1.5722815992   -2.7995927393    0.9857829076
 H    2.3380229368    0.1348449832    2.3276566804
 H    0.7002533916    0.7373977368    2.6741356901
 H    1.1693703461   -0.8939228888    3.1667919149