18

 O   -0.0539879691    1.3997172036   -0.2727037099
 C    0.0072781912    0.0298913629    0.1112963170
 C   -1.4140210576   -0.4950436330    0.1130584934
 C   -2.0119434129   -0.7318886523   -1.2964107578
 O   -1.2228815986   -1.9785164595   -1.3690707973
 C   -1.5370450220   -2.0387932262    0.0695329815
 C   -3.0606809365   -2.3034879282    0.0116213285
 N   -3.9067298257   -1.1387126150    0.3635851845
 C   -3.4201284569   -1.3117593240   -1.0268399938
 H    0.8458540661    1.7334613534   -0.3304629793
 H    0.6240080552   -0.5550623148   -0.5830535342
 H    0.4339103634   -0.0782188670    1.1222723544
 H   -2.0321448809    0.0418457741    0.8300867684
 H   -1.8572900059   -0.0580834511   -2.1367919644
 H   -0.9008208937   -2.7221703694    0.6322990720
 H   -3.4570701865   -3.3103728458    0.0539229459
 H   -4.8770644306   -1.4477603127    0.4043101625
 H   -4.1145419689   -1.5048384848   -1.8350531613