23

 C   -0.7765545015    1.5109542104    0.0409445390
 C   -0.1139290732    0.1347202217    0.0186131082
 C   -1.1026636536   -0.9132552424   -0.5050809546
 C    1.2663026525    0.0476750786   -0.7097477330
 C    1.7882639486   -0.8348281188    0.4503610266
 O    3.0609522239   -0.5331142905    1.0042242606
 C    0.6001024489   -0.3647726310    1.3316337816
 C    0.9926219749    0.6978490151    2.3603306865
 O    1.7687676288    0.1416590842    3.4064757137
 H   -0.0983297981    2.2914926411    0.3963350604
 H   -1.1027352263    1.7908502692   -0.9676367410
 H   -1.6633201257    1.5161782484    0.6853614712
 H   -1.4439706993   -0.6571867250   -1.5149477923
 H   -0.6575584921   -1.9127961742   -0.5484414666
 H   -1.9856182648   -0.9730139827    0.1414501542
 H    1.2779720239   -0.3731208338   -1.7195121560
 H    1.7839690536    1.0113098550   -0.7174018077
 H    1.7228889404   -1.9044064610    0.2151480911
 H    3.7459921507   -0.8445793231    0.4054170180
 H    0.0792015619   -1.1678887829    1.8619534070
 H    1.5237286144    1.5313479579    1.8766453685
 H    0.0925063386    1.1137645047    2.8256211187
 H    2.5695824634   -0.1905170807    2.9816934658