19

 C    0.3656320796    1.5458996850    0.0459747389
 O   -0.1225110153    0.2574451057   -0.2737256130
 C    0.6639302917   -0.4310852846   -1.2201348239
 C    2.0037261338   -0.7534650819   -0.6986450051
 C    3.0968926338   -1.0195172523   -0.2763101063
 C   -0.0275097571   -1.7122843415   -1.6827561359
 O   -0.6917471573   -2.5216507655   -0.7267269888
 C   -1.4742919902   -1.9638407652   -1.7968767340
 C   -2.5934855485   -1.0179094635   -1.4469266796
 H    1.3653872196    1.4989480117    0.4962299974
 H    0.4101830383    2.1918390239   -0.8445346200
 H   -0.3335344743    1.9774178024    0.7650082290
 H    0.7965496634    0.1957013736   -2.1221386748
 H    4.0605578107   -1.2598218342    0.1005581957
 H    0.6257591779   -2.2636869237   -2.3641221821
 H   -1.7469376007   -2.7102506891   -2.5483531548
 H   -2.2896584695   -0.3168938666   -0.6728900620
 H   -2.9021260651   -0.4582700081   -2.3373815507
 H   -3.4611941608   -1.5890706159   -1.0997613298