19

 C   -0.1320768743    1.5675471822    0.0062342982
 C    0.0277054110    0.0454314069   -0.0060610049
 C    0.7342704340   -0.4756763815   -1.2504837562
 C    0.9633069017   -1.9882849559   -1.2377057299
 C    1.3099326445   -2.5752002513   -2.5999417227
 O    1.8186767753   -3.6517496060   -2.7408653801
 O    0.9415601554   -1.8581004115   -3.6927191346
 C    0.5844375903   -0.4726569676   -3.5629516414
 O   -0.0777442418   -0.1709894259   -2.3883476526
 H    0.8424118170    2.0682091016   -0.0029476891
 H   -0.6920839112    1.9044193762   -0.8697663963
 H   -0.6671692205    1.8967856801    0.9013573546
 H    0.5974596535   -0.2857096520    0.8706174039
 H   -0.9546039945   -0.4389360183    0.0546055814
 H    1.7019425094    0.0430810002   -1.3673545305
 H    1.7488792388   -2.2825532595   -0.5377987077
 H    0.0410321068   -2.4895133989   -0.9180001744
 H    1.5123934740    0.1136168034   -3.6606299340
 H   -0.0879834195   -0.2595034322   -4.3954556036