19

 C   -0.0962189510    1.4286365904   -0.2324386238
 C    0.0231647714   -0.0872538177    0.0373500967
 C    0.7955829598   -0.4263728235    1.3175215740
 C    2.2696818001   -0.0419990664    1.2635522224
 O    2.8729756827   -0.5142089383    2.4582426703
 C   -1.3727539490   -0.7077213416    0.0715428822
 O   -1.8550125536   -1.2232496380    1.0557915209
 C   -2.1175440596   -0.6472573542   -1.1805980789
 C   -2.7229002035   -0.6122917431   -2.2207697585
 H    0.8886262448    1.8729266671   -0.3964054133
 H   -0.7031695671    1.6254900531   -1.1200467913
 H   -0.5605818488    1.9359445374    0.6197634560
 H    0.5299959742   -0.5367292306   -0.8298960908
 H    0.3254975985    0.0635852412    2.1765491625
 H    0.7303773834   -1.5017383960    1.5097034884
 H    2.7402590210   -0.4945848457    0.3737599227
 H    2.3830980249    1.0491116115    1.1711423794
 H    3.7956881067   -0.2437885949    2.4572890438
 H   -3.2720213249   -0.5887380905   -3.1307670928