13

 N   -0.1796510359    1.4260618237    0.0455995575
 C   -0.0682890456    0.0018453929    0.0385712212
 C    1.0481257645   -0.5933533092   -0.6781992278
 N    1.9576018999   -1.0224553029   -1.2504083126
 C   -0.5270406805   -0.8155453075    1.2293375897
 O   -1.5476677129   -0.1045200514    1.9486799592
 C   -2.3848556397   -0.1611275224    0.8365223937
 O   -3.5094278593    0.1919927507    0.7517330953
 C   -1.3480521658   -0.8640818408   -0.0248526500
 H    0.6320378268    1.8607748769    0.4716703536
 H   -0.2842171313    1.7911667977   -0.8949703155
 H    0.0556310472   -1.5558010370    1.7579847080
 H   -1.5093713773   -1.6240605308   -0.7745946523