18

 C   -0.1785824676    1.4367964914    0.0117011176
 C    0.0692570405   -0.0433262471   -0.0019331732
 C    0.7040861828   -0.9445797464   -1.0950479106
 C    0.1703365382   -1.9347194465   -0.0156985236
 C    0.7405702097   -0.9582630869    1.0574671616
 N   -1.1152279623   -1.0374281521    0.0117978001
 H   -1.6694673898   -1.1624650890    0.8575494848
 H   -1.6978850274   -1.1513122876   -0.8162348988
 C   -0.0922851478   -3.4672824187   -0.0202749545
 O    0.9373869247   -4.1423852782   -0.0429874686
 O   -1.3152817152   -3.7060822604    0.0012494711
 H    0.7810820877    1.9620101896    0.0009717840
 H   -0.7476576897    1.7545062615   -0.8676039540
 H   -0.7211657553    1.7424865115    0.9117707138
 H    0.2149381725   -0.9651474118   -2.0725814457
 H    1.7868180173   -0.8945417296   -1.1831953478
 H    1.8256842049   -0.9091325130    1.1094826412
 H    0.2848031768   -0.9914441865    2.0506567626