15

 N   -0.0502058181    1.4099554463    0.0151981236
 C   -0.0810284550    0.0184251554   -0.0092837711
 C   -1.1413624714   -0.8367759856   -0.0118854479
 N   -2.4934442991   -0.5152198169   -0.0547540241
 C   -0.5906246470   -2.1752201446   -0.0425951475
 C    0.7691277911   -2.0121455564   -0.0610582039
 O    1.1034282304   -0.7114573277   -0.0506027001
 C   -1.3271564854   -3.3790515156   -0.0362026571
 C   -1.9969001721   -4.3809375420   -0.0186992094
 H    0.5216066093    1.7797681851    0.7677987055
 H    0.2673819931    1.8227410659   -0.8569415680
 H   -2.6740188553    0.4287049836    0.2617352910
 H   -3.0783932906   -1.1862692647    0.4254078400
 H    1.5776707331   -2.7244487501   -0.0711194597
 H   -2.5727396028   -5.2726816428   -0.0159806914