20

 C   -0.1982133542    1.3211930312   -0.2138269600
 N    0.2915070893   -0.0487666573   -0.1349460510
 C    1.7322340323   -0.2361242379    0.0384677088
 C    0.7834606639   -0.5193043645    1.1443558974
 C    0.7402537283    0.1550606407    2.5247513194
 C    0.6899235632   -1.2636923064    3.1681835343
 C    0.4303962014   -1.8913018536    1.7741495512
 C   -1.0042964242   -2.2769743273    1.5008934688
 O   -1.9056354210   -2.1840932675    2.2967507906
 H    0.3603153804    2.0306310545    0.4175803926
 H   -0.1331797275    1.6628662022   -1.2513041888
 H   -1.2500377459    1.3477956851    0.0877237678
 H    2.1805083450   -1.0419582908   -0.5384125429
 H    2.3547468509    0.6531563418    0.1412742078
 H    1.5892461189    0.7883083264    2.7912489761
 H   -0.1826993031    0.7191304715    2.6892799398
 H    1.6440748940   -1.5723074992    3.5983033588
 H   -0.1111464077   -1.4311643468    3.8883087075
 H    1.0801065132   -2.7156696968    1.4597202829
 H   -1.1893760574   -2.6413022551    0.4675689090