21

 C   -0.2282869831    1.6163518413   -0.0406718859
 C    0.0335543926    0.1155416672   -0.0126025507
 C    1.1056687062   -0.5724569231   -0.9118550893
 C    2.4121421016    0.1353690093   -0.5061051995
 C    2.3505006071   -0.3888934609    0.9399835069
 O    2.4996146709   -1.8254361899    0.7146770999
 C    1.1691788858   -1.7334007431    0.1959676479
 C    0.7808293163   -0.5772836769    1.1471170222
 C    0.2544558977   -0.7483623224    2.5479691686
 H    0.6662216695    2.2071971503    0.1752347112
 H   -0.6086752548    1.9329834043   -1.0182864650
 H   -0.9826176510    1.8861046787    0.7067094219
 H   -0.9200101238   -0.4147547019   -0.1400095114
 H    0.9213390095   -0.7747394898   -1.9657540531
 H    3.3018878005   -0.2509416730   -1.0075839009
 H    2.3759030782    1.2204216942   -0.6149988797
 H    3.0145356750    0.0057977822    1.7087377158
 H    0.6434199495   -2.6768517807    0.0527252982
 H    0.8774821512   -1.4521789855    3.1098529293
 H    0.2492959003    0.2032048342    3.0925747710
 H   -0.7715017691   -1.1328126844    2.5431710627