19

 C    0.0015974912    1.4466159764   -0.0089733352
 C    0.0380382842   -0.0535461330   -0.0563885694
 C    0.5455799423   -0.9624438045   -1.2043807687
 O    1.8900346748   -0.8988324502   -1.6053932955
 C    0.0995873784   -1.9488403889   -0.1254204466
 O    0.1776172995   -3.3190296909   -0.2406229697
 C    0.5995648965   -1.0224798830    1.0579854220
 C   -0.7665640639   -1.0897560328    1.7698010265
 C   -1.1330653120   -1.0498060255    0.2720891983
 H    1.0040751573    1.8606592462   -0.1619971046
 H   -0.6456155005    1.8482935407   -0.7963573192
 H   -0.3719986339    1.8136521468    0.9530652560
 H   -0.0512370748   -0.9483301366   -2.1226297043
 H    2.4459357724   -1.0591668066   -0.8349603036
 H   -0.1599580971   -3.7230426379    0.5671386107
 H    1.5965360714   -0.9928953539    1.5031757250
 H   -1.0005915551   -2.0097911429    2.3178131735
 H   -1.0522610579   -0.2214372665    2.3711817537
 H   -2.1142526528   -1.0558184272   -0.2051787389