17

 O    0.4020705921    0.4351487508   -0.8147549623
 C   -0.2964160772   -0.3780126796    0.0933070598
 C    0.1557544517   -0.3980073630    1.5797592847
 C   -1.3540760166   -0.2799780317    1.9976416643
 C   -1.6495236779    0.2099416767    0.5343669560
 C   -1.9689657172   -1.5476670116    2.3246549270
 C   -2.4696511796   -2.6211290680    2.5709230880
 C   -3.0806911385   -3.8803280403    2.9000209135
 O   -2.9931053288   -4.8848132270    2.2295715851
 H    1.1694727519   -0.0485390048   -1.1357049539
 H   -0.4183060815   -1.3995145851   -0.2897956871
 H    0.7119125409   -1.2606268842    1.9496300800
 H    0.6876336928    0.5246878177    1.8245777837
 H   -1.5619646264    0.4524745599    2.7811406714
 H   -1.6148834896    1.3011159526    0.4889574637
 H   -2.5570922057   -0.1529748760    0.0516242176
 H   -3.6600041803   -3.8691750965    3.8461841386