25

 C   -0.1486464791    1.5336647937   -0.0284886438
 C    0.0550197484    0.0198563297   -0.0012013366
 C    1.0536324812   -0.5714176359   -1.0260314024
 C    2.4142113074   -0.0425514306   -0.5166683788
 C    2.2369993505   -0.0602650066    1.0328735701
 C    0.7884431577   -0.5806695183    1.2361802793
 C    0.2022152787   -0.2894442973    2.6089193219
 C    0.7907319706   -2.0845457112    0.8568516841
 C    0.9712393232   -2.0778144851   -0.6945433558
 H    0.7855975859    2.0893663060    0.0933838074
 H   -0.5941625686    1.8461867424   -0.9792135102
 H   -0.8267884970    1.8532054220    0.7699932494
 H   -0.9272323831   -0.4586161055   -0.1140171865
 H    0.8543288842   -0.3391066871   -2.0751465030
 H    3.2440836711   -0.6696121626   -0.8562492937
 H    2.6114933918    0.9693490963   -0.8825119305
 H    2.9643531390   -0.7056010708    1.5353882205
 H    2.3561587678    0.9407118411    1.4596237629
 H    0.2013190809    0.7838313105    2.8289204159
 H   -0.8305782779   -0.6487609699    2.6850697074
 H    0.7807077139   -0.7835933909    3.3981993686
 H    1.5842554497   -2.6318969863    1.3756649563
 H   -0.1587085286   -2.5501056027    1.1421017403
 H    0.1140922826   -2.5412754790   -1.1928220820
 H    1.8645428297   -2.6198584623   -1.0193252104