15

 O   -0.0833464125    1.3638733764    0.2077523168
 N    0.0448769604   -0.0289201231    0.1164856605
 C   -1.0913349763   -0.5985933045   -0.0121463233
 C   -1.2092496074   -2.1076326577   -0.1402340232
 C   -2.7435100218   -2.3746717791   -0.0157660040
 C   -3.3605305359   -0.9845970217   -0.0820861953
 C   -2.4339600971   -0.0212650052   -0.0605454814
 C   -3.2659279473   -3.2785642249   -1.0424883012
 N   -3.6831117063   -3.9888091101   -1.8530928112
 H    0.8327547987    1.6482566607    0.2925849141
 H   -0.8427573416   -2.4377794434   -1.1158987450
 H   -0.6349955642   -2.6361105241    0.6222058867
 H   -2.9756193378   -2.8307331851    0.9562596917
 H   -4.4336194059   -0.8436567659   -0.1150338002
 H   -2.6161330051    1.0435256778   -0.0577125049