17

 C   -0.0283014126    1.4600973894   -0.1416030264
 C    1.3361338971    2.0599920454    0.1092482572
 C    2.4382602679    1.3596804774    0.3787673291
 C    2.5112791763   -0.1454516805    0.4789340711
 C    1.1697946805   -0.7636893223    0.2343174763
 C    0.0690911135   -0.0175599422   -0.0375227606
 O   -1.0214968909   -0.8105897014   -0.2198515521
 C   -0.5967794496   -2.0969542628   -0.0580434722
 C    0.7313481842   -2.1326253501    0.2204566046
 H   -0.7576009950    1.8638855256    0.5769642220
 H   -0.4011298011    1.7671369278   -1.1305420799
 H    1.3927186433    3.1440993280    0.0598397984
 H    3.3720317140    1.8916717190    0.5435645580
 H    3.2577791432   -0.5248858160   -0.2352523412
 H    2.9030312088   -0.4288339299    1.4676234662
 H   -1.3537922959   -2.8551489736   -0.1726521587
 H    1.3254960465   -3.0169799438    0.3944173283