20

 C   -0.0182273010    1.4604020098   -0.0769750900
 C    0.0060384074   -0.0612068339   -0.0603385878
 O    1.0415528152   -0.6946890840   -0.1882307163
 N   -1.1991733787   -0.6797395131    0.1256585986
 C   -2.5189000128   -0.0541705641    0.2213361533
 C   -3.4131619046   -1.1343531870    0.8792474744
 C   -2.7062647426   -2.4532585559    0.5989365940
 C   -2.2703665247   -2.7462474849   -0.8218192728
 C   -1.3091345959   -2.1172673342    0.1596999708
 H    0.9969292558    1.8084302979   -0.2646024247
 H   -0.6837755586    1.8470901399   -0.8555664011
 H   -0.3627356586    1.8648733373    0.8809444666
 H   -2.4811064228    0.8644848454    0.8111783373
 H   -2.9014127203    0.2133259968   -0.7731177062
 H   -3.4585989557   -0.9769088330    1.9618317793
 H   -4.4372022789   -1.0920640381    0.4965683606
 H   -2.8957353027   -3.2862836561    1.2654271976
 H   -2.1012929663   -3.7853104968   -1.0820964412
 H   -2.6584630753   -2.1403521547   -1.6344567192
 H   -0.4124178188   -2.6288540313    0.4777857067