17

 O    0.2196143413    1.0237445783   -0.7211745543
 C    0.0042605305    0.0310382351    0.2749919205
 C   -1.3304242044   -0.5616862585    0.2355417947
 C   -2.4497654748   -1.0099707381    0.2002512429
 C   -3.7698746915   -1.5623741438    0.1450401390
 C   -4.4380999564   -2.0162861933   -1.1574548702
 C   -3.4040519002   -2.7194486480   -2.0304745181
 O   -3.0472009145   -3.6183333361   -0.9399769326
 C   -4.0456721070   -3.0315062163   -0.1210468734
 H   -0.5144329803    1.6445269899   -0.6680198482
 H    0.7632361199   -0.7385494803    0.0951881112
 H    0.1931897249    0.4311614087    1.2843698103
 H   -4.4929499664   -1.1290766860    0.8334733699
 H   -5.4021768332   -1.6401680188   -1.4709199881
 H   -3.8454431854   -3.2850749945   -2.8572116366
 H   -2.5500167768   -2.1302979400   -2.3788204139
 H   -4.6033756859   -3.6726136881    0.5523688270