15

 C   -0.1865627688    1.4234995741   -0.0261972664
 N    0.1914747177    0.0335604500    0.1484106264
 C    0.6898254200   -0.6358265311   -0.9706288766
 C    1.2351577454   -0.1426290386   -2.1417654763
 N    1.6174641428   -1.2246140285   -2.8792757110
 N    1.3483512126   -2.3999676994   -2.2665157091
 C    0.7927157439   -2.0414463928   -1.1228133502
 O    0.3526489647   -2.9344943804   -0.2035420441
 H    0.7061200431    2.0267681471   -0.2289253758
 H   -0.8985908776    1.5900283135   -0.8524715929
 H   -0.6316623821    1.7956740975    0.8995877981
 H   -0.5124640169   -0.5140455769    0.6240712537
 H    1.3791223790    0.8652424584   -2.4938876106
 H    2.0652053069   -1.2334741999   -3.7767028305
 H    0.5172286995   -3.8152095630   -0.5617283949