18

 N    0.1012321624    1.1689009797   -0.4885230902
 C    0.0076038371   -0.0283540268    0.1739154631
 O    0.9446384588   -0.5074941468    0.7882166531
 C   -1.3046117127   -0.7190481483    0.0543210169
 C   -1.7773425266   -1.6150944739    1.1747966495
 C   -1.4749019878   -2.2439239624   -0.1416623237
 C   -2.6007464028   -1.9920523613   -1.1365584688
 O   -3.8120863962   -2.6175146006   -0.7783039825
 C   -2.4653303419   -0.4408120394   -0.9102340574
 H    0.9301842828    1.7153852563   -0.3156708326
 H   -0.7243325695    1.6570374978   -0.7909184106
 H   -1.0301278925   -1.7847461435    1.9411295952
 H   -2.8039918356   -1.5350004188    1.5187316430
 H   -0.6822517603   -2.9716771275   -0.2568391742
 H   -2.3014779388   -2.2609219716   -2.1576099343
 H   -4.4711928177   -2.4068481734   -1.4474896475
 H   -3.3436462042    0.0454471596   -0.4731284169
 H   -2.1740961146    0.0840424609   -1.8238943122