17

 C    0.0538893143    1.5195048982    0.0027958388
 C    0.0010306044    0.0223605924    0.0178413072
 C   -0.0453774621   -0.8055050135   -1.0694953061
 N   -0.0768366666   -2.1210026614   -0.6286527696
 C   -0.0584176459   -2.1208345899    0.7601867078
 C   -0.0131760376   -0.8228845721    1.1802753079
 C   -0.1124265189   -3.2188817966   -1.5136432166
 N    0.0935133114   -4.4369030723   -0.9106270121
 O   -0.3378909884   -3.0792504269   -2.6940984845
 H    0.9600576262    1.8969025915    0.4909574280
 H    0.0432315815    1.9039963066   -1.0207302482
 H   -0.8001071080    1.9584616200    0.5317403467
 H   -0.0533463131   -0.6052421864   -2.1273241928
 H   -0.1444823386   -3.0364497726    1.3207116030
 H   -0.0022105210   -0.4950931597    2.2095693101
 H    0.6686551283   -4.4853675663   -0.0854180524
 H    0.2052116543   -5.1941980009   -1.5664061370