19

 C   -0.0156081824    1.5042346129    0.1517026474
 O    1.3368104237    1.5793178221   -0.3584839622
 C    1.4850576846    0.1593541348   -0.4576079714
 C    0.9764852984   -0.3578875228   -1.8698996809
 C   -0.3073052940   -0.8108611074   -1.1341375047
 C   -1.8226229868   -0.7519947854   -0.7535215199
 C   -1.0198907534   -1.0869440214    0.5899819370
 C   -0.2067384430   -2.0945161018   -0.2496270089
 C    0.0101301171   -0.0207822227    0.1370597278
 H   -0.0707607570    1.9512142678    1.1532585238
 H   -0.7417693258    2.0125915439   -0.4986417411
 H    2.4483030874   -0.1899709256   -0.0768630891
 H    0.8786660140    0.4882012242   -2.5533771031
 H    1.5384132539   -1.1601022403   -2.3550517524
 H   -2.3048962871    0.2263130710   -0.8051023974
 H   -2.4872871258   -1.5404738598   -1.1205272193
 H   -1.4631198462   -1.2497244995    1.5762287405
 H   -0.7370758448   -2.9752378932   -0.6213240549
 H    0.7856662375   -2.3534049468    0.1284596289