17

 N   -0.0471824671    1.3032893441    0.0659817491
 C   -0.0302806277    0.0409942993    0.0405323208
 O   -1.1707138689   -0.6495782069   -0.1378613815
 C   -1.1121955706   -2.0652770572    0.0021525725
 C   -1.5512963699   -2.6746915592    1.3756879577
 C   -2.6364937014   -3.4627618608    0.6325881334
 C   -3.5602878264   -2.5061674499   -0.0570965462
 C   -2.2334133308   -2.8101059030   -0.6998378529
 H    0.8998132035    1.6585016931    0.1808174030
 H    0.8585905230   -0.5995293273    0.1390167380
 H   -0.1210485610   -2.4227506026   -0.2987381011
 H   -0.7695775521   -3.2907134395    1.8253875589
 H   -1.9102530075   -1.9522674164    2.1146325673
 H   -2.8964670195   -4.4970592831    0.8155148219
 H   -4.4120872054   -2.9530326099   -0.5589603561
 H   -3.7508552475   -1.5229692456    0.3636216249
 H   -2.1636116205   -3.2430388750   -1.6898498896