21

 C   -0.0780683674    1.5944620973   -0.1103167710
 C   -0.0209810668    0.0662566494   -0.1710323818
 C   -1.3703043263   -0.5910489594    0.1785115093
 C   -1.3459520834   -2.0894474577    0.1416551712
 C   -1.6088999049   -2.9228257557    1.1573226552
 C   -1.5952586021   -4.3415495537    0.7010075418
 O   -2.5941293823   -4.6250653136   -0.3121299100
 C   -1.2648729912   -4.3187737662   -0.7338445259
 C   -1.0496778875   -2.8657709452   -1.1378933420
 H    0.8905711332    2.0393129349   -0.3582040172
 H   -0.8175310939    1.9914969686   -0.8147518913
 H   -0.3577243076    1.9409127157    0.8908144097
 H    0.2916595781   -0.2481308184   -1.1742542773
 H    0.7455480667   -0.3060009023    0.5198196897
 H   -1.6881492836   -0.2584122286    1.1739155922
 H   -2.1299995368   -0.2224201824   -0.5269372175
 H   -1.8545905876   -2.6202487792    2.1684339023
 H   -1.3705903875   -5.1708496228    1.3646630356
 H   -0.7383773303   -5.1217457103   -1.2430126680
 H   -1.7139812171   -2.5678143174   -1.9587022158
 H   -0.0216587117   -2.7033677631   -1.4861538991