15

 N    0.0293413260    1.0933566759   -0.0367559479
 H    0.1835853344    0.3748943933   -0.7261997722
 H    0.7925790400    1.2781165772    0.5926472142
 C   -1.2222731341    1.4336226849    0.3407460073
 N   -2.3100289200    0.9252545785   -0.2008812153
 C   -3.5609448994    1.5450076230   -0.0849611712
 C   -4.8000285779    0.9617892826    0.2377995969
 C   -5.7685912795    1.9907740135    0.2100191140
 O   -6.9493949329    2.1065589404    0.4287692118
 O   -5.0082448055    3.2207324389   -0.1787737376
 C   -3.7258487168    2.8906057917   -0.3336655564
 H   -3.0616079305    3.5968114523   -0.8117797655
 H   -1.3553083198    2.2354708014    1.0554061166
 H   -2.2593074117    0.0378797451   -0.6937971200
 H   -4.9958169722   -0.0372991187    0.5892908553