21

 C    0.5054384189    1.7926820317   -0.2047153652
 C    1.0434580447    0.3635575116   -0.2974559769
 C    0.8424631162   -0.4920674442    0.9432487528
 C    0.7566424529    0.0741202979    2.2961086902
 O   -0.4232161170   -0.3567315911    1.6079165894
 C    1.3452860602   -1.9145526800    0.7895467237
 C    0.7777793072   -3.0024333022    1.7259656757
 C    0.2705431710   -3.6545772015    0.4250232837
 O    0.7816711832   -2.5671525515   -0.3754668836
 H    1.0799057223    2.4027669601    0.4998965278
 H    0.5613339057    2.2828797418   -1.1807103290
 H   -0.5389136736    1.7916365879    0.1183057433
 H    0.5586670571   -0.1659992793   -1.1249822127
 H    2.1158541766    0.3746753682   -0.5325046434
 H    1.0393921808   -0.5331535519    3.1559591417
 H    0.8424849359    1.1478808767    2.4454228669
 H    2.4432622449   -1.8929057934    0.7219845177
 H    1.5145645950   -3.5726312444    2.2923192131
 H   -0.0116019293   -2.6408546886    2.3843434261
 H    0.7441044607   -4.6081916486    0.1607732159
 H   -0.8162195535   -3.7557780590    0.3281554828