25

 C    0.0748078952    1.2700868606    0.3862388472
 C    0.0267081888   -0.1817217268   -0.1028592403
 C    0.7353633579   -0.4689685136   -1.4471122701
 C    0.0745104207    0.3086946040   -2.5977813949
 C    2.2640648409   -0.1463289962   -1.3648938957
 C    2.9807545277   -1.3541448322   -1.9912875099
 C    2.1092252782   -2.5394900558   -1.5563259180
 O    2.2664987797   -2.8271933388   -0.1654260591
 C    0.6873381195   -2.0057536582   -1.7482644265
 H    1.1040180847    1.6321584621    0.4811631379
 H   -0.4549604227    1.9502793961   -0.2880826287
 H   -0.3948158184    1.3582435712    1.3711975332
 H    0.4794558050   -0.8345287593    0.6527006094
 H   -1.0230180751   -0.4940332717   -0.1886588866
 H    0.1069343446    1.3902740739   -2.4333483350
 H    0.5814727022    0.1071857584   -3.5484530334
 H   -0.9761606236    0.0190726034   -2.7168591128
 H    2.5181606596    0.7955020062   -1.8594025354
 H    2.5685038160   -0.0552973732   -0.3182472862
 H    2.9783891817   -1.2896248851   -3.0865912837
 H    4.0261580393   -1.4544771207   -1.6771262181
 H    2.2974698301   -3.4448963205   -2.1514162369
 H    3.1961715669   -3.0201680242   -0.0067217964
 H   -0.0137311150   -2.5384863031   -1.1003869565
 H    0.3754858063   -2.1827429465   -2.7831040532