21

 C   -0.3256472501    1.3235946158    0.1896181661
 C    0.1360785773   -0.1282101106    0.1008429004
 C    0.7603829620   -0.5230354603   -1.2531367503
 C    1.5869456016   -1.8017362040   -0.9664616572
 C    1.7609065995   -1.8625322868    0.5724138448
 C    1.2473187810   -0.5142055263    1.0922929881
 O    0.9196433488   -2.9189192734    1.0900246051
 C    1.4576494745   -3.8190898296    1.9280714257
 O    0.8270834003   -4.7048312487    2.4241405532
 H    0.5104687589    2.0124432007    0.0189032746
 H   -1.0942094536    1.5421505715   -0.5591242250
 H   -0.7485621043    1.5494744528    1.1740767993
 H   -0.7208158810   -0.7878282985    0.2910007787
 H    0.0111523058   -0.6744413476   -2.0347963194
 H    1.4191332473    0.2853038142   -1.5944347865
 H    1.0669448529   -2.7060287169   -1.2907906113
 H    2.5555591885   -1.7859239615   -1.4729763972
 H    2.7932419450   -2.0688143661    0.8747292598
 H    2.0605797532    0.2221591646    1.0383359047
 H    0.9193310609   -0.5754193102    2.1333345627
 H    2.5399256013   -3.6526295188    2.1003377337