19

 C   -0.0210204239    1.5629435926   -0.0965725984
 C    1.5395998187    1.6044880314    0.0226021049
 C    2.1061875446    1.9594392543    1.4381529113
 C    1.5712608068    0.6059953294    1.8555805580
 C    0.7266075093    0.1694707715    2.7846594674
 C   -0.1964627248   -0.9321387375    2.3226121561
 O   -0.8500942566   -0.5715116021    1.0866642179
 C   -0.0165134259    0.0002216195    0.0981536327
 C    1.4872849189    0.0908004784    0.4275804339
 H   -0.5559046724    2.1013045296    0.6885377813
 H   -0.4040112460    1.8857750423   -1.0669847187
 H    2.0844553517    1.9697735148   -0.8481184895
 H    3.2006544686    2.0116148743    1.4000310682
 H    1.7221834044    2.8417404669    1.9591840777
 H    0.5468618469    0.6845850612    3.7233394035
 H    0.3430241666   -1.8805615695    2.1804167754
 H   -1.0045798351   -1.1145391797    3.0345385086
 H   -0.2295633499   -0.5186654713   -0.8432085159
 H    2.1901870480   -0.6726716163    0.0909079856