17

 N   -0.1240194986   -1.0912686053    0.3658813996
 C    0.0067006699    0.0561360349    0.3166698169
 C    0.1363175279    1.4964721938    0.2352699224
 O    0.9630831733    2.1246154972    1.2150692302
 C    1.4143983847    2.1373127099   -0.1415481030
 C    2.6613268286    1.3521958200   -0.4619866533
 N    3.8330614628    2.1640350876   -0.1642449370
 C    4.3315740673    2.0843229806    1.2088977205
 C    5.0704521268    1.4327797582    0.0935030398
 H   -0.7967462009    2.0119143848    0.0151959076
 H    1.3474630906    3.1144854068   -0.6195333211
 H    2.6420891159    0.3974593987    0.0894197552
 H    2.6668430296    1.1174912348   -1.5339169566
 H    4.6859457890    3.0190595093    1.6324251526
 H    3.7989914393    1.4398626712    1.9046089779
 H    5.0399931019    0.3456692022    0.0432603129
 H    5.9729404022    1.8821159552   -0.3099288046