20

 C    0.0466329232    1.4524026542    0.0539239934
 C   -0.0873466980   -0.0489196795   -0.0978263168
 C    0.9173492299   -0.6798139845   -1.0861577876
 C    0.1825102728   -1.6681423362   -2.0513272766
 C   -0.4066082528   -2.6627738757   -1.0844932248
 C   -1.1585976546   -2.1405778932   -0.1121640907
 C   -0.7689923440   -2.1157849100    1.3496480126
 N   -0.6498276372   -0.5973864054    1.2362020205
 C   -1.4337769846   -0.6486753756   -0.0482668911
 H    1.0287785951    1.7157403983    0.4617672362
 H   -0.0570903524    1.9479357353   -0.9183205318
 H   -0.7157934652    1.8414346082    0.7323735590
 H    1.3930777341    0.1321005162   -1.6491593179
 H    1.7226014190   -1.2122269667   -0.5676139693
 H   -0.5715378692   -1.1170124434   -2.6229697124
 H    0.8751719722   -2.1244401350   -2.7625631046
 H    0.1268196927   -3.5965354879   -0.9178572004
 H   -1.5606985972   -2.2916961481    2.0847527498
 H    0.1376814538   -2.6564597720    1.6407338838
 H   -2.3820275278   -0.1331240193   -0.1722169914