19

 O   -0.6110358247    0.6330776595   -0.8732742578
 C    0.1662631674    0.9214273963    0.0000977784
 C    1.1995252847    2.0361381548   -0.0497483581
 C    1.1399443995    2.8477102363   -1.3686895894
 C    0.4581038210    4.1943666341   -1.1367518182
 C   -0.7325335337    4.0908954029   -0.1619627714
 C    0.3933285310    4.2512278127    0.8808655731
 C    1.0726873865    2.9270944764    1.2289901166
 O    1.2158442942    4.9147691666   -0.1185234306
 H    0.1831677788    0.3462416322    0.9559472567
 H    2.1564142928    1.4995151499    0.0151868664
 H    2.1490216282    3.0387904777   -1.7454444585
 H    0.5986749374    2.2659891084   -2.1214025949
 H    0.3454919755    4.7768319588   -2.0546348399
 H   -1.3699379426    4.9750429963   -0.2037017492
 H   -1.3396059038    3.1844895252   -0.1663382737
 H    0.2215873664    4.8787227987    1.7599063749
 H    0.5167158703    2.3973659760    2.0139753215
 H    2.0623494412    3.1549667873    1.6351101340