18

 C    0.1178552371    1.4149022272   -0.4211376843
 C    1.2745150638    1.9104413250    0.4831347427
 C    2.1358216586    0.6455691781    0.7221414442
 C    1.1290047554   -0.4640770289    0.3582451589
 O    0.4114739128    0.0564835292   -0.7438235017
 C    3.4366673361    0.5804050733   -0.1283524844
 O    4.4719026599    0.2499295882    0.8295728263
 C    3.8604974287    0.2904845048    2.0346912422
 N    2.6150181684    0.5143446786    2.1089396794
 H   -0.8452107962    1.4796034841    0.1060336846
 H    0.0292678947    1.9658461416   -1.3611811017
 H    1.8536447306    2.7127419797    0.0194624056
 H    0.9073060871    2.2768616189    1.4439493865
 H    1.6004509574   -1.4016018504    0.0515988460
 H    0.4757915945   -0.6596892550    1.2231661435
 H    3.4178884934   -0.1930525032   -0.8997923080
 H    3.7001651364    1.5375309698   -0.5890043287
 H    4.5198376412    0.1162026990    2.8779231991