19

 C    0.0586402471   -1.2818930024    0.4578822199
 C    0.0503452435   -0.0999706104    0.2352780954
 C    0.0507226815    1.3370779504   -0.0225962576
 C   -0.6742722574    2.1299817879    1.0949163062
 C    0.3864444466    2.2340058115    2.2053777163
 C    1.7155779357    2.4645304374    1.4491995605
 C    1.4751264808    1.9277143533    0.0337500514
 C    2.5262449506    1.5410020743   -0.9062700306
 O    1.8330733524    2.7867020288   -1.0539871920
 H    0.0602881593   -2.3269834070    0.6457131441
 H   -0.3760801329    1.5314293361   -1.0114416525
 H   -0.9208300287    3.1254433309    0.7086799879
 H   -1.6001001222    1.6511132969    1.4195759728
 H    0.1678734394    3.0269059713    2.9246874542
 H    0.4259746558    1.2903279308    2.7586567230
 H    1.9536204811    3.5295836218    1.3685062760
 H    2.5628442666    1.9755735161    1.9370810243
 H    3.5711443348    1.6211942219   -0.6082720025
 H    2.3198453962    0.7940085903   -1.6719488667