17

 C   -0.1556276510    1.4495933415   -0.0279221856
 C    0.0275605301   -0.0359955684   -0.0360713709
 C    0.9730768008   -0.8835327868   -0.8933643723
 C    0.1601183854   -2.0970888696   -0.3877955041
 O    0.4636242898   -2.1442450751    1.0342530861
 C   -0.2874494241   -0.9433356196    1.1568147534
 C   -1.0689555755   -1.1301048577   -0.1205700717
 C   -2.4313342599   -1.1043151636   -0.4732113318
 C   -3.5939133594   -1.0816107889   -0.7895667530
 H    0.7419341729    1.9520330698    0.3503929993
 H   -0.3585232289    1.8327751850   -1.0336663956
 H   -0.9959294940    1.7394192921    0.6117015054
 H    0.8127752529   -0.6984650880   -1.9587781047
 H    2.0418649277   -0.8862058093   -0.6555690542
 H    0.1522838219   -3.0720310190   -0.8685710455
 H   -0.5981547596   -0.6060944734    2.1371788265
 H   -4.6197474791   -1.0657269288   -1.0620991913