19

 C   -0.0152059751    1.5034452615   -0.0035587346
 N    0.0104301803    0.0562906177    0.1141896934
 C   -1.2409262948   -0.6578289390    0.4521547550
 C   -0.4193606381   -1.6293045022    1.3327963601
 C    0.7114239952   -0.5735955174    1.2537732138
 C    2.1133803499   -1.0777545469    0.8563199306
 O    2.0669289411   -1.7183852121   -0.3925957003
 C    3.0777281831    0.0497756486    0.8475419200
 N    3.8076315683    0.9461060662    0.8394151881
 H    1.0013757887    1.8840104624   -0.1330688578
 H   -0.6011372033    1.7886226496   -0.8830765250
 H   -0.4597375667    1.9922407647    0.8809575796
 H   -1.9305025195   -0.0390123754    1.0460583456
 H   -1.7818721299   -1.0660733123   -0.4069931173
 H   -0.8102376823   -1.8535712524    2.3246031758
 H   -0.1539851682   -2.5530203476    0.8171717249
 H    0.7696442565    0.0635548393    2.1478400466
 H    2.4605283828   -1.8070016350    1.5979704855
 H    1.4170538121   -1.1984143094   -0.8990147740