18

 C    0.0787506941    1.5007524525    0.0414023311
 C    0.0469861581    0.0459612030    0.0324176368
 C    0.0244325924   -1.1585508274    0.0395878350
 C   -0.0129108380   -2.5932562048    0.0076174645
 N   -0.5734793804   -3.3017639217    1.1984068750
 C   -1.2953623484   -3.3457757499   -0.0536808320
 C   -2.7131262789   -2.8435902890   -0.2822526293
 O   -2.9738632183   -3.9616124736   -1.1677033132
 C   -1.6740064660   -4.5375747408   -0.9288947587
 H    1.1074422203    1.8756104229    0.0802737966
 H   -0.3935337171    1.9171581189   -0.8552335147
 H   -0.4525330702    1.8997995088    0.9123952057
 H    0.8331782014   -3.0684084677   -0.4869990951
 H   -0.0615058820   -4.1692961118    1.3490336577
 H   -3.3544332236   -2.8583774548    0.6071869994
 H   -2.8066072223   -1.8780801224   -0.7922544493
 H   -1.0997043919   -4.6733446973   -1.8541747029
 H   -1.7381558689   -5.4990203048   -0.3989134567