19

 C   -0.0206526261    1.5198528652    0.0148720464
 C    0.0213379361    0.0186788369   -0.0321053982
 C    0.5782623663   -0.8963559952   -1.1894685733
 C   -0.4551722549   -1.9016040469   -0.7579271758
 C    0.9257420715   -1.8833456694   -0.1078722874
 C    0.7973439847   -0.8300732377    1.0377116028
 C   -0.2199415361   -1.1879402081    2.0883114193
 C   -1.4327605103   -1.2040085469    1.5173990079
 C   -1.2789514750   -0.8575503794    0.0603426687
 H    0.9853824915    1.9487459821   -0.0557618734
 H   -0.6160520168    1.9275458150   -0.8099497268
 H   -0.4680772013    1.8613662988    0.9553282650
 H    1.0267009811   -0.6803326816   -2.1481522831
 H   -0.8252367025   -2.7686534339   -1.2892726018
 H    1.5896712387   -2.7367268491   -0.1524686742
 H    1.7543909659   -0.4252939385    1.3710994663
 H    0.0155291114   -1.4656761368    3.1091478617
 H   -2.3633599538   -1.4971866201    1.9893333715
 H   -2.1542467701   -0.4770172744   -0.4687931554