19

 O    0.0330855100    1.5017288437   -0.2527231117
 C    0.0826645590    0.0924388622   -0.0872244101
 C   -1.3186053543   -0.5065270012    0.0743528637
 C   -1.3635866346   -2.0515091752    0.0436281714
 O   -0.6917425380   -2.5779082817   -1.1013174516
 C   -0.6276557816   -2.6866890711    1.2501277503
 O   -1.1554361507   -2.2614269481    2.4871361515
 C   -2.7671983158   -2.4958463378    0.0771920246
 C   -3.9133183569   -2.8595954596    0.1226306717
 H   -0.3076027738    1.8817789261    0.5633871687
 H    0.5524108514   -0.3029625299   -0.9912289840
 H    0.7246089765   -0.1815779361    0.7623907020
 H   -1.7608982010   -0.1770147115    1.0212009157
 H   -1.9514082110   -0.1167766150   -0.7313610544
 H   -1.2038614178   -2.3424631494   -1.8826632485
 H   -0.6643900639   -3.7772887445    1.1282219566
 H    0.4209950569   -2.3813472125    1.2279380673
 H   -2.0690255195   -2.5681601206    2.5285158011
 H   -4.9259157951   -3.1809724877    0.1446582257