23

 C   -0.1358240772    1.5325363822    0.0377021794
 C   -0.0201039030    0.0021478654    0.0132210974
 C   -1.4337301690   -0.5446099637   -0.2293384139
 C    1.1841334692   -0.6500476548   -0.7676508177
 C    2.1409070222   -0.1322023078    0.3464638188
 C    0.8965430756   -0.7090405592    1.0909603620
 C    0.6731588189   -0.7600846077    2.5761643049
 O    1.7391672030   -1.4988261625    3.1592810817
 C    1.0228551765   -1.9215700788    0.1167062853
 H    0.8029227921    2.0592362317    0.2081674362
 H   -0.5431532227    1.8901174945   -0.9152071398
 H   -0.8364711625    1.8486504388    0.8195415693
 H   -1.8234929215   -0.1597766592   -1.1789733606
 H   -1.5033637948   -1.6315922484   -0.2658400719
 H   -2.1157351035   -0.1979693428    0.5560354320
 H    1.3552942407   -0.6185546207   -1.8457889741
 H    3.0633417539   -0.7007235450    0.4786919018
 H    2.3379579216    0.9364616323    0.4131098147
 H    0.6322651236    0.2661743698    2.9778993273
 H   -0.3011445515   -1.2322833183    2.7859801622
 H    1.5951961238   -1.5315170319    4.1095177993
 H    0.1537472431   -2.5593157069   -0.0357738365
 H    1.9232706117   -2.5253658071    0.2443325422