18

 C   -0.0741081341    1.4164472267    0.0753097775
 C    1.3599744454    1.8988238575    0.0828827156
 C    2.1783927760    0.9089621512   -0.2877899471
 C    3.4931555371    0.6046952654    0.3511904864
 O    3.2094152053   -0.3786759586    1.3780593251
 C    1.8396391736   -0.4902247298    1.7914097012
 C    0.9256866187   -0.8905951414    0.6172264311
 C    1.3605735375   -0.2955072008   -0.6676204610
 N   -0.0006920934   -0.0333986833   -0.1993646715
 H   -0.5498185510    1.6088543397    1.0454313898
 H   -0.7138858247    1.8795456338   -0.6879634381
 H    1.6743443202    2.8212948935    0.5602138448
 H    4.2322039651    0.1431505787   -0.3126673756
 H    3.9378307236    1.5013650189    0.8033549755
 H    1.8530736045   -1.2960346808    2.5296934141
 H    1.4947600366    0.4167658577    2.3042598438
 H    0.5625310692   -1.9138378014    0.6384953605
 H    1.5339314702   -0.8557083970   -1.5825081922