15

 O   -0.1479499553    1.4120407673   -0.1608524496
 C   -0.0253463556    0.0392912739    0.0223697760
 C   -0.2290491241   -0.8890994225   -1.1266237473
 C   -1.2997614505   -0.7875946978   -0.0220102845
 C   -1.2260834424   -1.8300562594    1.0327355277
 O   -2.0905643078   -2.5619379221    1.4360103151
 C    0.2219274162   -1.7693736208    1.6287547644
 O    0.7033221339   -2.6047709942    2.3410226128
 C    0.8610080339   -0.4627101228    1.1573574820
 H    0.6308178420    1.7267847376   -0.6337507489
 H   -0.5287412381   -0.4468992770   -2.0697074989
 H    0.3614689450   -1.7964398551   -1.2116053545
 H   -2.2541196487   -0.3522978014   -0.2864752756
 H    1.9129622179   -0.6046890747    0.8912893760
 H    0.8160109134    0.2546339790    1.9863840953