19

 C   -0.2191567596    1.5243845753    0.0929727915
 C    0.0627691153    0.0438437354   -0.0012922330
 O   -0.7039843072   -0.7788849475    0.9080096305
 C    0.7163096547   -0.6891158551    1.0956703444
 C    1.5231868949   -1.9462559300    0.7992284729
 C    2.1514648226   -1.9292351306   -0.5997370017
 O    2.5693700386   -3.2630550601   -0.8705745287
 C    1.1795754308   -1.4163330282   -1.6420697583
 C    0.2320460826   -0.5211973034   -1.3724660281
 H    0.5899522369    2.1063748039   -0.3610961973
 H   -1.1468267230    1.7721366322   -0.4351017196
 H   -0.3297485216    1.8275140936    1.1370709825
 H    1.0008092491   -0.1285002700    1.9863623517
 H    2.3067437744   -2.0896441741    1.5486433540
 H    0.8550067952   -2.8112325026    0.8515634369
 H    3.0316020963   -1.2618624607   -0.5883258576
 H    3.0703430480   -3.2611232003   -1.6923816542
 H    1.2968620236   -1.8144047629   -2.6481124218
 H   -0.4447773717   -0.1684847450   -2.1468892641