17

 O    0.1013968716    1.5164979747    0.0573768895
 C   -0.0050084213    0.1176010022    0.0095720121
 C    0.3154641211   -0.6849397817    1.3002592522
 C   -0.7927527247   -0.3594692757    2.3097601878
 C   -1.6337021705    0.8841367590    2.1867145798
 C   -2.0320531463   -0.3248630788    1.3778041249
 C   -1.3798448851   -0.6398478776    0.0276058147
 C   -0.4752001085   -1.8099921431    0.5455110826
 O   -0.4168154753   -2.9927147395    0.4253019738
 H   -0.1606768673    1.8641212628   -0.8011840424
 H    0.6035203049   -0.2788289814   -0.8157284890
 H    1.3344786214   -0.8146507336    1.6560181343
 H   -0.8018180224   -0.9273060720    3.2320846430
 H   -2.2753241636    1.0634519099    3.0445430452
 H   -1.2428294097    1.7698002400    1.7118662885
 H   -2.9362738262   -0.8651927706    1.6304578979
 H   -2.0055154980   -0.7278688147   -0.8580977048