21

 C    0.1689076678    1.5652625189   -0.4061175831
 O   -0.1299161939    0.1980368392   -0.2205995974
 C    0.7091044135   -0.6992664975   -0.9359822624
 C    1.9693308733   -0.9834090690   -0.0958105726
 O    2.7612659087   -2.0511061305   -0.5754345277
 C   -0.0868406891   -1.9804964439   -1.2429516968
 C   -1.5602819505   -1.7059000241   -1.6135622433
 C    0.5256395644   -2.7791570332   -2.3762480852
 O    1.4470768056   -2.4325607869   -3.0768484171
 H    1.1599718077    1.8390496450   -0.0183822123
 H    0.1236388007    1.8476419826   -1.4689157756
 H   -0.5861294990    2.1341720132    0.1422312420
 H    0.9981814820   -0.2469009537   -1.8975604979
 H    2.5575437296   -0.0573004952   -0.0020274131
 H    1.6412558714   -1.2628157001    0.9118977499
 H    2.8674037395   -1.9397754503   -1.5280689735
 H   -0.0797540851   -2.6414416839   -0.3637364831
 H   -2.0792754773   -2.6384943508   -1.8573555494
 H   -2.0710749898   -1.2270779481   -0.7788592272
 H   -1.6298116768   -1.0417798475   -2.4812181899
 H    0.0122791971   -3.7481427742   -2.5673667343