23

 C   -0.2375344387    1.5799793079   -0.0704442035
 C    0.0271474201    0.0831972901    0.0025681130
 C    0.9909217304   -0.5907076429   -1.0133272232
 C    1.3767472164   -1.5988213274    0.1010848803
 C    2.8049593015   -2.1046365867    0.2477828484
 O    3.7089817630   -1.0928391317    0.6604821685
 C    3.3025490086   -0.5023310398    1.8841121330
 C    2.0277393683    0.3192610261    1.6877418187
 C    0.8769800237   -0.5546223123    1.1536663796
 H    0.6877553994    2.1640549528   -0.0746599332
 H   -0.7815973359    1.8269838187   -0.9890599326
 H   -0.8459182708    1.9221804172    0.7746422088
 H   -0.9324233068   -0.4470595577   -0.0294007206
 H    0.5674371105   -0.9869985963   -1.9400627867
 H    1.8334771720    0.0623410280   -1.2633631893
 H    0.6970222726   -2.4575377410    0.0730361506
 H    2.8283170210   -2.9344034726    0.9767018788
 H    3.1878708621   -2.4883418322   -0.7043636269
 H    3.1534498081   -1.2832424544    2.6507049480
 H    4.1319721722    0.1326165835    2.2100707923
 H    1.7396474734    0.8066615214    2.6260235335
 H    2.2715222474    1.1179171906    0.9800593354
 H    0.3073130114   -0.9682155414    1.9916554571