21

 C   -0.0206377818    1.4749438976    0.0146267698
 C    0.0161732561   -0.0274029234   -0.0407696780
 C    0.2345244748   -0.7902587916   -1.3453556228
 C    0.1696486447   -2.2147008119   -0.7596489342
 O    0.3397240410   -3.2146835026   -1.7268011092
 C    1.2084756025   -2.1271774490    0.3916101607
 C    0.6324630946   -0.8855023363    1.0551277251
 C   -0.8735097801   -0.9137241664    0.8194850076
 C   -1.1735199457   -2.1718996451    0.0189841282
 H    0.9216151472    1.9115761715   -0.3371365208
 H   -0.8259247701    1.8788148716   -0.6103745177
 H   -0.1872310408    1.8287291758    1.0376761724
 H   -0.5536581585   -0.6156257597   -2.0856728480
 H    1.2041205309   -0.5826313043   -1.8107266989
 H    0.2863877576   -4.0689163910   -1.2857506353
 H    1.1906569635   -3.0134245841    1.0380225077
 H    2.2257183471   -1.9918709953    0.0103961112
 H    1.0577550169   -0.4420496596    1.9468978742
 H   -1.5667428408   -0.4912301117    1.5362158650
 H   -2.0300582685   -2.0717929240   -0.6553575763
 H   -1.3214334904   -3.0605759706    0.6450678594