18

 C    0.1537177140    1.0811071503   -0.3242198667
 O   -0.0890486321   -0.1901118235    0.2518770117
 C   -1.3930242611   -0.6618250565    0.0996957805
 C   -2.4453535060    0.0565278622    0.9196897417
 C   -1.8223550671   -1.2561363225   -1.2190154118
 N   -0.7151595437   -1.8900339495   -1.9344118899
 C   -0.3798205761   -2.7022614698   -0.8295421929
 O    0.5010550991   -3.4927827615   -0.6628555025
 C   -1.5530651410   -2.1703572538   -0.0152196478
 H    1.2302910018    1.2522663458   -0.2612833287
 H   -0.1556421940    1.1130584652   -1.3789966431
 H   -0.3619290673    1.8881446228    0.2131093743
 H   -2.5309212810    1.1067536705    0.6243593399
 H   -3.4266459882   -0.4070398064    0.7865808155
 H   -2.1857726041    0.0185162551    1.9817320332
 H   -2.7637784155   -1.0603670161   -1.7174346578
 H   -0.0095412843   -1.3635333528   -2.4374915452
 H   -2.2349360235   -2.7326819394    0.6074222197