20

 C   -0.0162672746    1.4876699050    0.1204388601
 N    0.0909411285    0.0533542291    0.0116251226
 C    1.1169622267   -0.5172904630   -0.8777133740
 C    1.3889239098   -1.6233912951    0.1688923560
 O    0.7044408143   -2.7999460017   -0.1945944930
 C    2.8489067771   -1.9252929009    0.5055499989
 C    3.0196128177   -2.9036074892    1.6427870358
 O    2.1184484653   -3.5295969235    2.1515516777
 C    0.6032341766   -0.7107440049    1.1619280827
 H    0.9362166408    1.9793317738    0.4043567308
 H   -0.3413051686    1.9109722552   -0.8361048572
 H   -0.7675065290    1.7488786537    0.8734323334
 H    0.7498353805   -0.8667299898   -1.8479918459
 H    1.9889522020    0.1413505218   -1.0302848455
 H    0.7271824322   -3.3717558020    0.5852244158
 H    3.3545260299   -2.3630538570   -0.3690895695
 H    3.4137661816   -1.0163900164    0.7509018092
 H    4.0639214971   -3.0343118711    2.0022216474
 H    1.2694077217   -0.1257986865    1.8194307521
 H   -0.1625490598   -1.2011234976    1.7715445325