16

 O   -0.0820075680    1.3241328155    0.4167449297
 N   -0.0243563064   -0.0725150313    0.5275547447
 C   -1.0483664377   -0.6116814457    0.0134563105
 C   -2.3261824060   -0.1406896291   -0.6416998332
 C   -2.8472428491   -1.6089853764   -0.5013485015
 O   -3.2916523920   -2.2629522078   -1.6630438692
 C   -1.4190870194   -2.0852085813   -0.0549765846
 C   -0.6582794263   -2.8483501208   -1.1291055082
 O   -0.1390341150   -3.9159202790   -0.9410333266
 H    0.7314580942    1.5979105765    0.8548847654
 H   -2.8751398020    0.6523915225   -0.1279920682
 H   -2.1857661626    0.1440232322   -1.6905553722
 H   -3.5640226813   -1.7108548424    0.3226652356
 H   -4.1670859017   -1.9333531743   -1.8892554088
 H   -1.3660713253   -2.6534217914    0.8749032583
 H   -0.5989641611   -2.3386362070   -2.1128391716