20

 O   -0.2375149319    1.5526820073    0.0654010058
 C   -0.0025754766    0.1539052978    0.1452576775
 C   -1.3437883952   -0.5387410040   -0.0444296036
 C   -2.0009216316   -0.3252562989   -1.4171094641
 C   -3.1080296889   -1.4014692929   -1.4967571470
 C   -2.7034820645   -2.5138499083   -0.4857967750
 C   -1.3224327787   -2.0851356532    0.0948783374
 C   -0.2168766140   -2.6885578286   -0.6554100355
 N    0.6515678980   -3.1674684366   -1.2506014381
 H    0.6118244596    2.0023190993    0.0951226826
 H    0.7003679962   -0.1806581163   -0.6320444650
 H    0.4289097774   -0.1218702204    1.1215325007
 H   -2.0226471629   -0.1686170608    0.7349140674
 H   -2.3760657397    0.6919683030   -1.5379845052
 H   -1.2516661709   -0.4906399569   -2.2006755815
 H   -4.0794052351   -0.9813810597   -1.2207634281
 H   -3.2129930709   -1.7951430539   -2.5104727320
 H   -3.4199623267   -2.5692863459    0.3381391153
 H   -2.6567522298   -3.5060530836   -0.9381404259
 H   -1.2126792439   -2.3958248474    1.1386567743