17

 O   -0.0222746185    1.4365810190   -0.0612688430
 C    0.0046815492    0.0347894636   -0.0004428291
 C   -0.0360136283   -0.6614702648    1.3881692136
 O    1.0204728936   -0.6184771835    2.2796777020
 C   -1.4953656101   -0.1325624478    1.5539268314
 C   -1.3900858047   -0.6626779338    0.1012527782
 O   -2.4333411897   -0.6371805699   -0.7946120463
 C   -0.6561291831   -1.9067067041    0.6791190147
 O    0.1053383813   -2.6553011991   -0.2368444917
 H    0.8578946953    1.7574597217    0.1595767349
 H    0.7019796331   -0.3991895707   -0.7219654933
 H    0.7121070297   -0.9250768874    3.1391380985
 H   -2.1512170384   -0.6935725645    2.2257303574
 H   -1.6030353091    0.9442793103    1.6562675529
 H   -2.1401675312   -1.0647932715   -1.6073113928
 H   -1.2788652210   -2.5481032377    1.3174380896
 H    0.8261390519   -3.0751806998    0.2438116431