19

 C   -0.4264985564    1.5262732710   -0.1774518961
 C    0.0009902891    0.0679844987    0.0285622767
 C    0.6596630641   -0.5342015275   -1.2213190511
 C    1.9719218416    0.1048104789   -1.3845671652
 N    3.0053885148    0.6197380081   -1.4478961362
 C    0.5827311349   -2.0579377065   -1.5651660404
 C   -0.8911229961   -1.7798440808   -1.9224913855
 N   -0.1788592600   -0.5605373059   -2.5461133471
 C    0.8477236736   -1.6152192988   -3.0198589592
 H    0.4319481043    2.1588113320   -0.4217151683
 H   -1.1468034617    1.6076020182   -0.9959120986
 H   -0.8880282674    1.9203222019    0.7321062914
 H    0.7279060571    0.0013035195    0.8460431822
 H   -0.8565586953   -0.5334093105    0.3362472354
 H    1.0201517936   -2.8873774343   -1.0003560545
 H   -1.3461521854   -2.4238119601   -2.6773188930
 H   -1.6101589715   -1.5407230984   -1.1413131730
 H    1.8236429589   -1.2025040712   -3.2775504472
 H    0.4585771919   -2.2502282444   -3.8175855604