19

 C   -0.1024753198    1.5570003070   -0.1425609345
 C   -0.0989131012    0.0280400748   -0.1697528015
 O    1.0530708677   -0.5029230574    0.4663783599
 C   -1.4013001643   -0.5472133361    0.4339560160
 C   -1.4815422371   -2.0007855363    0.3737984986
 C   -1.5455596811   -3.1999733191    0.3081741080
 C   -1.6104919588   -4.6607733680    0.2357074661
 C   -2.7358351039   -5.1627045671   -0.5562499363
 C   -3.6543478499   -5.5868348191   -1.2026745020
 H    0.8335192918    1.9404913342   -0.5563779883
 H   -0.9347217790    1.9664188633   -0.7243194259
 H   -0.1986702834    1.9277672789    0.8859237495
 H   -0.0223914640   -0.3176243101   -1.2065883076
 H    1.0360310097   -0.2261222533    1.3895606426
 H   -1.4810335175   -0.2088466942    1.4779593133
 H   -2.2594948023   -0.1069650600   -0.0905249080
 H   -0.6723688064   -5.0481700841   -0.1855808472
 H   -1.6704374149   -5.0782443038    1.2505516985
 H   -4.4678449256   -5.9568986095   -1.7757945212