19

 C   -0.0536175915    1.4782807606   -0.0596937876
 C   -0.0632403921   -0.0380764332   -0.0084163800
 C    1.0456385227   -0.7213778830   -0.8196427746
 C    0.6599164385   -2.0475349240   -1.4243143315
 C   -0.3883116411   -2.7481570234   -0.9953446009
 C   -1.2013958290   -2.1931051629    0.1359474701
 O   -0.3985108452   -2.0286727237    1.3647602371
 C   -0.5702096795   -0.6170095064    1.2934607286
 C   -1.4384440005   -0.6751560795    0.0683108457
 H    0.9117590940    1.8761434686    0.2738565017
 H   -0.2310603643    1.8414703162   -1.0785683250
 H   -0.8295510920    1.9064589986    0.5836197675
 H    1.3639325854   -0.0476574724   -1.6262869724
 H    1.9337362693   -0.8556000472   -0.1854015643
 H    1.2838019005   -2.4171142744   -2.2339844300
 H   -0.6557559349   -3.7056724778   -1.4298688331
 H   -2.0931239232   -2.7816061847    0.3637790859
 H   -0.6400828035   -0.0666115556    2.2254805841
 H   -2.3627540637   -0.1822675857   -0.2033535115