18

 C    0.1043105601    1.6024948672    0.0187859533
 O    1.4434191675    1.5054258491   -0.5107437972
 C    1.3512883018    0.0676502224   -0.6173781548
 C    2.5448233962   -0.6689694192   -0.0224927339
 N    2.9521756314   -0.3757017064    1.3402147901
 C    2.2152739103   -0.0260763054    2.2964070286
 O    0.8667502661    0.1222074090    2.4318207753
 C   -0.0153559954   -0.5289611054    1.5114476676
 C   -0.0106451793    0.0662093818    0.1168791650
 H    0.0789103581    2.1500210517    0.9663871613
 H   -0.5857274200    2.0702168966   -0.6946169561
 H    1.2653292762   -0.2371444313   -1.6721607799
 H    2.3759131972   -1.7501042135   -0.1352890959
 H    3.4103967564   -0.4437331795   -0.6582798602
 H    2.6741421725    0.2369387436    3.2499933313
 H    0.2251264719   -1.5997584729    1.4743704335
 H   -1.0049394510   -0.4253527250    1.9666687342
 H   -0.8314218202   -0.3778604227   -0.4529010122