13

 O   -0.5953440463    0.6997891868   -0.5646459369
 C    0.3150552745    0.7953494171    0.2148944922
 C    1.3898566950    1.8583874258    0.1196388155
 C    1.0776385792    3.0761158075   -0.7645028991
 O    1.1024986300    3.9660280743    0.3838112183
 C    1.4608409840    2.9059686462    1.2785417436
 C    0.5153045032    2.7379558565    2.3876721925
 N   -0.2194004391    2.5817989148    3.2658055173
 H    0.4330135717    0.0871361013    1.0626198235
 H    2.3499150794    1.3648677417   -0.0568736623
 H    1.8456222852    3.3442245368   -1.4959015544
 H    0.0945807030    3.0443079212   -1.2410821867
 H    2.4654033701    3.0451239602    1.6962072765