16

 C    0.1195350774    1.3913044806    0.1430270020
 N    0.1569035899   -0.0556903607    0.1362483194
 C    0.4857567746   -0.6424583909   -0.9504115622
 N    0.8199106968   -0.0051695842   -2.1590130452
 C    1.1677875832   -0.6663069140   -3.3047961221
 N    1.2288745664   -1.9469312829   -3.4072594720
 C    0.9156536230   -2.6601426171   -2.2647350789
 C    0.5591334598   -2.0961796444   -1.0808092667
 O    0.2512518313   -2.7833054360    0.0410985478
 H    1.0993106057    1.8482587496   -0.0831616116
 H   -0.6084753325    1.8063947581   -0.5764281230
 H   -0.1755009518    1.7419137178    1.1347785784
 H    0.7983132325    1.0028656282   -2.1699594688
 H    1.3989384261   -0.0326339401   -4.1570528925
 H    0.9695813611   -3.7426282100   -2.3592973700
 H    0.3278215564   -3.7265347139   -0.1432078146