16

 C   -0.0734598559    1.5217967741    0.0041692759
 C    0.0367468460    0.0228690589    0.0640323186
 O   -1.2131151046   -0.6608502811    0.2751700870
 C   -0.6491938638   -1.4679028642    1.3418184185
 C    0.7335458826   -0.8007137582    1.1823999963
 C    1.6633656300   -1.4072273732    0.1030523755
 O    0.8443326215   -2.0714762017   -0.8590573762
 C    0.9895466991   -0.6572211980   -0.9773653521
 H    0.9149150037    1.9811846986   -0.1041795352
 H   -0.6823109962    1.8179353890   -0.8576614717
 H   -0.5468015262    1.9146369940    0.9081299568
 H   -1.1452862991   -1.2584632780    2.2964651685
 H   -0.6987204711   -2.5364487034    1.1163100354
 H    1.2096016384   -0.3312969840    2.0415427691
 H    2.6886635026   -1.7445658953    0.2018818590
 H    1.3501064730   -0.2744328275   -1.9270866654