16

 C   -0.0160910239    1.5300157244    0.0014638004
 C    1.4578895918    1.9504473407    0.0531336355
 C    2.2826905076    0.9133367598   -0.1460583816
 C    3.4616705461    0.4016557331    0.7151793945
 N    2.6616995722   -0.3939792801    1.7432700699
 C    1.6120181889   -0.6784468696    1.0816132950
 O    0.2665425759   -0.6330710874    1.3841084345
 C    0.0270347301   -0.0190745744    0.0200394269
 C    1.4701138752   -0.3418156589   -0.3651347386
 H   -0.5602056248    1.9314131302    0.8635570806
 H   -0.5540116709    1.8668417744   -0.8953836473
 H    1.7543390616    2.9102633730    0.4620528041
 H    4.1834986907   -0.2092592664    0.1621150753
 H    3.9969635431    1.1883246765    1.2491731968
 H   -0.8118834789   -0.5265225430   -0.4517213899
 H    1.7301962754   -1.0494139824   -1.1487394860