18

 C   -0.1714219624    1.4826704470    0.0307440693
 N    0.0904445001    0.0528247799    0.0353010696
 C    1.4513776306   -0.4100236652   -0.1882056023
 C    0.8026054837   -0.5638048970    1.1487050664
 C    1.3301305185    0.2079857761    2.3396579778
 C    0.2698997606    0.4981871568    3.3937443575
 O   -0.9048793775    0.2426952503    3.2475618776
 C    0.7677791080    1.1212611901    4.6113332889
 C    1.1995781126    1.6386464207    5.6088281239
 H    0.6759617888    2.1089209614    0.3555409335
 H   -0.4318425724    1.7863420292   -0.9880915199
 H   -1.0261186221    1.6891047858    0.6812550666
 H    1.5699137204   -1.2605962400   -0.8548749424
 H    2.2413509031    0.3384116669   -0.2674008027
 H    0.3973706231   -1.5374221905    1.4177587808
 H    2.1402533106   -0.3539841362    2.8242018255
 H    1.7839792729    1.1641422686    2.0534710851
 H    1.5603708312    2.0957401761    6.4983141947