19

 C   -0.1235465768    1.5483451955    0.1057318805
 C    0.1321770629    0.0741759422   -0.0243650849
 O   -0.7495637870   -0.7973228564    0.7379534928
 C    0.6499838440   -0.8167190149    1.0308365474
 C    1.4109645190   -1.9593337126    0.3701280039
 C    1.2234157719   -1.6858420694   -1.1154211994
 C    1.7198803676   -2.6393778197   -2.1601544115
 O    1.3153041416   -2.3176615984   -3.4769386018
 C    0.5471313889   -0.5502909028   -1.3219187981
 H    0.7492135420    2.1242166257   -0.2197215701
 H   -0.9743020001    1.8503054027   -0.5152339771
 H   -0.3518679965    1.8085610749    1.1420392395
 H    0.9250265693   -0.4697127662    2.0240294271
 H    2.4715911943   -1.9475720439    0.6547539716
 H    1.0124157870   -2.9378294628    0.6653615823
 H    2.8183721301   -2.6383276087   -2.1763038317
 H    1.4246330700   -3.6669215623   -1.8836510567
 H    0.3520852620   -2.3230764383   -3.4887248621
 H    0.3057803398   -0.1320353945   -2.2912036418