19

 C   -0.1031755905   -1.2943274870    0.0635260742
 C   -0.0822617999   -0.0916332357    0.0542429928
 C   -0.0418564876    1.3591708240    0.0576535825
 C   -0.0504484497    2.0382914856    1.4654228901
 O    1.1598168589    2.7586932169    1.1750158569
 C    1.3803379242    2.0019401920   -0.0277958817
 C   -1.0297897106    2.0006160174   -0.9045694434
 C   -1.3531870126    1.3943280096   -2.2450767938
 C   -2.3973557977    1.4209076663   -1.1552616823
 H   -0.1184192924   -2.3562964229    0.0750136069
 H   -0.8975340764    2.7050406140    1.6608203064
 H    0.0727326469    1.3385047831    2.3005106903
 H    2.2026864369    1.2843927173    0.0776161765
 H    1.5552913565    2.6427253892   -0.8990445433
 H   -0.9703698738    3.0855580026   -0.8741052556
 H   -1.4662874538    2.0608687377   -3.0926569378
 H   -0.9118903434    0.4324573807   -2.4814575303
 H   -2.6378677976    0.4763852818   -0.6800289978
 H   -3.2325409073    2.1058175674   -1.2492044405