15

 C   -0.0582737924    1.4982138381    0.0104535285
 C    1.4043574468    1.8823903445   -0.0010275724
 C    2.2006570436    0.7973991179   -0.0146371451
 C    1.3673609406   -0.4032164682   -0.0136700982
 N    1.7433541599   -1.6780735231   -0.0244280071
 C    0.7216581007   -2.5496735495   -0.0198294104
 C   -0.6134461076   -2.1565057547   -0.0051160327
 N   -0.9919130240   -0.8637358778    0.0057708308
 C    0.0106146792   -0.0058459975    0.0012762188
 H   -0.5847150804    1.8799305116    0.8947198070
 H   -0.6011333317    1.8899054659   -0.8594039378
 H    1.7375245182    2.9123333226    0.0017080968
 H    3.2825214691    0.7820491422   -0.0248324598
 H    0.9800166071   -3.6052542208   -0.0282446353
 H   -1.4063751192   -2.8987182513   -0.0019186130