20

 C   -0.1046206714    1.5593413524    0.0199264874
 C    0.0558647652    0.0277540031   -0.0122580142
 C    0.7072255567   -0.4999146484    1.2417814144
 N    0.1089034192   -0.6954433914    2.3515155044
 O   -1.2577603090   -0.3763560951    2.2782789162
 C    2.2058651371   -0.7910351512    1.2155286554
 C    2.8087510481   -1.1289119263    2.5906766417
 C    2.4909067223   -1.8466273380    0.2381271684
 C    2.7246177677   -2.7228248022   -0.5510950729
 H    0.8631660847    2.0612326925    0.1237752788
 H   -0.5662954700    1.9143822022   -0.9062361482
 H   -0.7374036607    1.8600143392    0.8580278579
 H   -0.9290686171   -0.4356994691   -0.1164300113
 H    0.6563751606   -0.2703922594   -0.8764107033
 H   -1.5626213083   -0.5984861175    3.1641596650
 H    2.6896722536    0.1279567799    0.8478478768
 H    2.6257999470   -0.3142970326    3.2945654369
 H    2.3577566924   -2.0355946232    2.9972284376
 H    3.8857726518   -1.2849447182    2.4920461665
 H    2.9338399500   -3.4949376967   -1.2494875974