17

 C    0.0524620978    1.6498093680    0.0505828480
 N    1.5341785082    1.3569633704    0.0499665956
 C    1.1670935018    0.0969537419    0.8549811792
 C   -0.0816007418    0.1162737287   -0.0417286804
 O   -1.3627825904   -0.5098467653   -0.0805380539
 C   -1.6225326710   -0.4855391274   -1.4377487597
 N   -0.6791730708   -0.2567555522   -2.2628520046
 C    0.5181392973   -0.2152686931   -1.4014653982
 C    1.6569650066    0.8381214869   -1.3673639149
 H   -0.2619442520    2.0561439903    1.0138055733
 H   -0.3030653773    2.2730802387   -0.7722502915
 H    1.8640495993   -0.7398757181    0.7658548605
 H    1.0166350565    0.3763501648    1.8982561264
 H   -2.6610188745   -0.6642500106   -1.6938323857
 H    0.9505817374   -1.2248651411   -1.4248146810
 H    1.5311625417    1.6703323805   -2.0621955539
 H    2.6427965712    0.3957240975   -1.5214722891