20

 C   -0.0572622583    1.5696545110    0.0813236429
 C   -0.0007315188    0.0333248891    0.0657242867
 C    0.7112263251   -0.4884173460    1.3245446187
 C   -1.4270608690   -0.5371135506    0.0030268134
 O   -2.1459322067   -0.1123577580    1.1506758158
 C    0.7325728380   -0.4653960981   -1.2131383229
 C    2.1154179635   -0.0188682124   -1.3286046040
 C    3.2558147724    0.3509736744   -1.4210125565
 H    0.9498813611    1.9936876964    0.1153017760
 H   -0.5545306695    1.9545258804   -0.8167354605
 H   -0.6168818645    1.9197341187    0.9513824588
 H    0.1683626428   -0.1826221144    2.2214947794
 H    0.7662879669   -1.5833454565    1.3205134875
 H    1.7320742386   -0.1010552149    1.3804157717
 H   -1.9189925372   -0.1878527021   -0.9200420465
 H   -1.3776320333   -1.6377171511   -0.0443501626
 H   -3.0345947373   -0.4751656205    1.1018758362
 H    0.7111653473   -1.5635737496   -1.2338108885
 H    0.1762128035   -0.1307233192   -2.0993282505
 H    4.2633587256    0.6739422235   -1.5087829152