25

 C   -0.1431135522    1.1526140137    1.1068466967
 C    0.0750723409   -0.3232897567    0.7626251890
 C    0.6980821583   -0.5247993562   -0.6230195999
 C    0.9220934386   -1.9903094071   -0.9995117245
 O   -0.3427600158   -2.6699295061   -1.0361342868
 C   -0.4728271083   -3.7326779800   -0.1111107998
 C    1.5747895993   -2.1704408435   -2.3874760765
 C    3.0509795640   -1.7961143135   -2.4155986130
 O    1.4792740490   -3.5278866819   -2.7894442443
 H    0.8026304284    1.7061546321    1.1027337080
 H   -0.8091700706    1.6331641908    0.3816151038
 H   -0.5920145712    1.2689218497    2.0982377437
 H    0.7197543482   -0.7845119773    1.5229607898
 H   -0.8817955228   -0.8554728549    0.8004285506
 H    0.0503236446   -0.0693386768   -1.3837320058
 H    1.6578813659    0.0044213103   -0.6715549376
 H    1.5671057973   -2.4756040472   -0.2521264541
 H    0.2883154914   -4.5084274096   -0.2743866282
 H   -0.3992590438   -3.3831375790    0.9281925225
 H   -1.4638494291   -4.1697578261   -0.2627572115
 H    1.0248900480   -1.5302110389   -3.0994091284
 H    3.6101494593   -2.3885330840   -1.6840127635
 H    3.4626979716   -2.0069375242   -3.4060524615
 H    3.2027576056   -0.7353666671   -2.2001495911
 H    0.5498995534   -3.7584941266   -2.6686519177