15

 N    0.0367218297    1.4092791850    0.1544317376
 C   -0.0755356779    0.0317361878    0.0535382617
 C   -1.1393378262   -0.8211449725    0.0310206660
 C   -0.5625650127   -2.1404473352    0.0110398128
 N   -1.3100851836   -3.3226110915   -0.0154265810
 C   -0.7882789044   -4.5826813116   -0.0468116027
 O    0.3946867136   -4.8449672516   -0.0584305589
 C    0.7887223580   -1.9960100669    0.0197210766
 O    1.0887262756   -0.6463308087    0.0462840379
 H    0.8997565748    1.7568246538   -0.2435128414
 H   -0.7602008933    1.9028246365   -0.2222385112
 H   -2.1856337539   -0.5601172552    0.0327376092
 H   -2.3137092409   -3.2336278015   -0.0054074723
 H   -1.5846506324   -5.3516090240   -0.0610132639
 H    1.6138931935   -2.6793708044    0.0074482497