12

 O    0.0418976004   -0.0417025724    0.0040866921
 C   -0.0529478455    1.1674060901    0.0071128083
 C    1.1687556244    2.0026043728    0.0011639361
 N    2.1635750199    2.5908430502   -0.0040397726
 C   -1.3156071028    1.8954666228    0.0186782811
 C   -2.5774570935    1.3346891179    0.0267348134
 N   -3.4320735488    2.3947500561    0.0360642777
 C   -2.6746091752    3.5418251455    0.0333963464
 N   -1.3976137146    3.2727157071    0.0230279230
 H   -2.9071367912    0.3098616204    0.0264555906
 H   -4.4383470749    2.3432777391    0.0435499018
 H   -3.1210392183    4.5247253504    0.0394135424