15

 O    0.1738657833    1.3246786043    0.2714242508
 C   -0.0299209439   -0.0704736545    0.0597349184
 C   -1.5172827253   -0.3749773520   -0.1453727073
 N   -1.7894489859   -0.5386823998   -1.6008320822
 C   -1.3556202988    0.6056567242   -2.3843030552
 C   -0.4809512519   -0.6129289910   -2.2865980781
 C    0.6172944600   -0.4940782292   -1.2846246748
 O    1.7963594234   -0.6847886223   -1.4527663849
 H    1.1259364504    1.4812665628    0.2554054539
 H    0.4047057426   -0.6584760546    0.8779520164
 H   -1.7772955814   -1.3210772300    0.3376617139
 H   -2.1509857502    0.4128519313    0.2687796664
 H   -1.8949382442    0.7617023551   -3.3139822474
 H   -1.0365877752    1.5052234273   -1.8657729371
 H   -0.3639654329   -1.2830946716   -3.1306114028