20

 C   -0.0639452473    1.5192640023    0.0598801741
 C   -0.0241679401    0.0262428969   -0.0067470878
 C    0.0376854097   -0.7513531025   -1.0939894788
 C    0.0619475278   -2.2353342968   -0.7756962980
 C    1.2549547992   -2.9942773952   -1.3838745113
 O    1.2687692771   -2.9494771986   -2.8042508392
 C    0.0676635285   -2.2403118199    0.7543256106
 N    1.2646535286   -1.6025783577    1.3538798658
 C   -0.0075201336   -0.8326514801    1.2213596875
 H    0.8102513062    1.9127287354    0.5938039165
 H   -0.0847957589    1.9664979748   -0.9375352275
 H   -0.9485809424    1.8703134833    0.6065261975
 H    0.0829846865   -0.3775777580   -2.1121338156
 H   -0.8533898037   -2.7166099409   -1.1483874249
 H    2.1849295362   -2.6035466667   -0.9528775325
 H    1.1834279291   -4.0553856389   -1.1204216545
 H    1.5610046556   -2.0708981713   -3.0642719289
 H   -0.4079025431   -3.0524998783    1.2936495717
 H    1.3450287909   -1.9320069259    2.3150235481
 H   -0.5287993563   -0.5331688718    2.1253719070