20

 C   -0.0255068067    1.5219276068    0.0553136185
 C    0.0398028571    0.0132909768    0.0527972355
 C    0.9553005065   -0.7961273353   -0.9180999921
 C    0.7299709730   -1.9337050648    0.1149052380
 C    0.7118468615   -0.8147568180    1.1927385647
 C   -0.7681236545   -2.2383810566   -0.0624902549
 C   -1.3056273487   -0.7599096718   -0.1319488931
 C   -2.2997932042   -0.4439589868    0.8872484584
 N   -3.0772369991   -0.1848580220    1.7035413027
 H    0.9695885716    1.9557603243    0.1941345101
 H   -0.4275109037    1.9026339330   -0.8909220668
 H   -0.6699592748    1.8880286707    0.8616552933
 H    0.6153465668   -0.9497596080   -1.9477291844
 H    1.9797449390   -0.4168930923   -0.9142990037
 H    1.3994536478   -2.7904438953    0.1841042916
 H    1.7106414204   -0.4399795833    1.4279638487
 H    0.1458610720   -0.9828794306    2.1134985377
 H   -0.9880763078   -2.7886523085   -0.9807464664
 H   -1.1920586697   -2.7903060303    0.7792322627
 H   -1.7454227864   -0.5364465680   -1.1094239907