16

 C    0.1269699319    1.4834200352    0.0144979457
 C   -0.0185385554   -0.0548225660    0.0437669389
 C    0.5567697710   -0.5746238663    1.3137178742
 N    1.0766961007   -0.9876112041    2.2594992463
 C   -1.4519427248   -0.4195965469    0.0074831013
 N   -2.5745234728   -0.6851211149   -0.0289749697
 N    0.6068863475   -0.6089703752   -1.1621410196
 C    2.0402229813   -0.9067851065   -1.1495322910
 C    1.0353642036   -2.0064022461   -1.1792074743
 H    1.1870725086    1.7426822591    0.0532155028
 H   -0.3027359387    1.8545739915   -0.9170429835
 H   -0.3846902388    1.9372014434    0.8650477664
 H    2.5706814177   -0.6124770469   -2.0492561871
 H    2.5896638431   -0.7741443140   -0.2205950746
 H    0.9258564718   -2.5909274177   -0.2689949277
 H    0.8155088434   -2.5360105747   -2.1001163678