23

 C    0.0137976487    1.5438710964   -0.0452596256
 C   -0.0133892833    0.0065337202    0.0532661013
 C    0.7479836135   -0.4723235797    1.3031053934
 C   -1.4245549861   -0.5213331435    0.0265033879
 C   -1.9626654831   -1.3177100342   -0.9051652666
 C   -3.4209722069   -1.6316092759   -0.6464324052
 C   -3.6888846876   -0.9722364204    0.7063519373
 C   -2.8916552843   -1.4392795131    1.8950768124
 C   -2.4244049124   -0.2293924691    1.1071128189
 H    1.0454241659    1.9096002808   -0.0795304266
 H   -0.5028590908    1.8910527790   -0.9449448575
 H   -0.4711681501    2.0065079756    0.8212902420
 H    0.5005595903   -0.3916207793   -0.8310398771
 H    0.7796868085   -1.5649456832    1.3525982823
 H    1.7783329452   -0.1009883229    1.2953237764
 H    0.2679901070   -0.1101669118    2.2185615162
 H   -1.4223619724   -1.7230211184   -1.7546075519
 H   -4.0658774484   -1.2118715488   -1.4310273961
 H   -3.6205224165   -2.7114439450   -0.6324693631
 H   -4.6651659517   -0.5410188793    0.8938901316
 H   -3.3238611226   -1.2651295444    2.8754032416
 H   -2.3083011529   -2.3512187974    1.8123425673
 H   -2.4513678799    0.7447669045    1.5834221312