18

 O   -0.0613546077    0.1728005380   -0.8596046086
 C   -0.0960390531    1.2288156373   -0.2518369958
 C   -1.4088473399    1.6596028563    0.4105270696
 C   -1.4055856797    2.8255219176    1.3811246093
 C   -0.2021314244    2.8987307019    2.3447033225
 C    0.3380258020    3.9042634299    1.3096606342
 C    1.3224756189    3.3481199708    0.2971988730
 N    1.0478386337    1.9849345296   -0.1445486127
 O   -0.9737466241    4.0434629532    0.7169288195
 H   -2.1055696853    1.8845384316   -0.4056559375
 H   -1.7952214545    0.7590715450    0.9002532619
 H   -2.3979974334    2.9505728049    1.8260778481
 H   -0.4489288900    3.3684682312    3.2973585081
 H    0.3699238367    1.9855255972    2.5129437298
 H    0.7131854042    4.8622454576    1.6855357948
 H    1.3406762088    4.0389631516   -0.5587712310
 H    2.3254909580    3.3555066934    0.7428356879
 H    1.7961522198    1.5466167029   -0.6646751530