14

 O    0.0189991610   -0.0989389454    0.0212452355
 C    0.0040803877    1.1116662787    0.0109656830
 C    1.2142484913    1.9109375892   -0.0323960471
 C    2.1993614576    2.6017252752   -0.0701564950
 C   -1.2886415964    1.9125182892    0.0510492415
 C   -1.7412110332    2.5226409504   -1.3179033933
 C   -2.9182956924    1.5180510685   -1.2197278976
 O   -3.8318404124    1.1933630605   -1.9223406796
 N   -2.5028755625    1.1067643147    0.0334180713
 H    3.0821689071    3.1937688459   -0.1035860269
 H   -1.2348138529    2.6391442675    0.8704436274
 H   -2.0202757000    3.5763636163   -1.2936494381
 H   -1.0704550954    2.3351258068   -2.1581437604
 H   -2.6802277795    0.2347948826    0.5118974995