21

 C   -0.0627586838    1.6093740450   -0.0844731307
 C    0.0366964015    0.0812560029    0.0121797890
 C   -1.3088136728   -0.5746166881    0.1185473669
 C   -2.2868777336   -0.3948942674    1.3163661441
 C   -2.9506173497   -1.6698081484    0.8055200730
 C   -2.7921457596   -1.5898911931   -0.7263356665
 O   -2.1772610932   -0.3441280245   -1.0405698664
 C   -1.6741569457   -2.1250255865    0.0966671309
 C   -0.8776772438   -3.3880495866    0.1123044440
 H    0.9283896539    2.0573641151   -0.1996345003
 H   -0.6730970710    1.8998185111   -0.9437191073
 H   -0.5214017346    2.0350593180    0.8137921961
 H    0.5505704397   -0.3154116381   -0.8715588581
 H    0.6350496718   -0.2079585248    0.8851234914
 H   -1.7850599750   -0.5588613422    2.2742437631
 H   -2.8639400799    0.5351424096    1.3382392848
 H   -3.7034867102   -2.2854479490    1.2824351131
 H   -3.4575389229   -2.0486175942   -1.4466613602
 H   -0.1646999794   -3.4256142339   -0.7191533378
 H   -0.3127823720   -3.5009877074    1.0450142229
 H   -1.5376185295   -4.2579213376    0.0222019279