16

 O   -0.0521686120    1.4718615355    0.0803375637
 C    0.0301592324    0.0669678076   -0.0061200022
 C    0.4951628393   -0.5898588555    1.3467043787
 N   -0.6994472580   -0.6607321596    2.2239751375
 C   -1.6722753000   -0.5823462614    1.4206779124
 O   -2.9831223870   -0.4057648571    1.6446671359
 C   -3.5456727139   -0.0485403323    0.3571192066
 O   -2.4859656116    0.2853508086   -0.5115604112
 C   -1.3962733418   -0.4953461102   -0.0509687064
 H    0.8189150735    1.8076492195    0.3140978474
 H    0.6478600094   -0.2511980862   -0.8571492923
 H    0.9225320806   -1.5875889414    1.1772576608
 H    1.2711827788    0.0160637991    1.8280535530
 H   -4.1171666633   -0.9139299417   -0.0101840738
 H   -4.1924689742    0.8213479965    0.4883614334
 H   -1.3912408524   -1.4896697113   -0.5276922735