18

 O    0.0804110033   -0.0020080229    0.0157631564
 C    0.0186553448    1.2076666473    0.0100547238
 C   -1.2283767145    2.1197273789    0.0727690932
 C   -0.6636471864    3.5238372247    0.0780314664
 C    0.6668253220    3.4257501435    0.0020213540
 C    1.8965429396    4.2856877422   -0.0340156985
 C    3.0125182583    3.3002220214    0.4130689350
 C    2.5211864574    1.9071433914   -0.0533734970
 N    1.0804612535    2.0819614490   -0.0506480527
 H   -1.8696389576    1.9062024687   -0.7911157897
 H   -1.8174871476    1.8724622133    0.9636507818
 H   -1.2446285590    4.4312838911    0.1360800095
 H    2.0810676620    4.6373751865   -1.0567319431
 H    1.8227659842    5.1679977565    0.6051004203
 H    3.9924734991    3.5547728293    0.0047480961
 H    3.0924437306    3.3097234908    1.5043208445
 H    2.8851949431    1.6626696494   -1.0597494261
 H    2.8173711573    1.0950497889    0.6152188160