16

 C   -0.1004561224    1.5096550259    0.1112388102
 C   -0.0112563726    0.0251819424   -0.0320603703
 C    0.0208817309   -0.7931861580   -1.1455649919
 C   -0.0287387293   -0.3726669526   -2.5846836269
 C    0.1112179578   -2.1397311081   -0.6738900981
 C    0.1314262335   -2.1061412081    0.6972683207
 N    0.0566139566   -0.7899517667    1.0777718542
 H    0.7672484170    1.9281342485    0.6376193885
 H   -0.1446507858    1.9862824355   -0.8701871568
 H   -0.9966799573    1.8195659847    0.6642809748
 H    0.8628500883   -0.6994212488   -3.1333373134
 H   -0.8952330095   -0.8011285794   -3.1027581089
 H   -0.0934600815    0.7140472706   -2.6903485256
 H    0.1558525654   -3.0280088299   -1.2865890842
 H    0.1918645099   -2.8954996235    1.4292301018
 H    0.0530606090   -0.4618582926    2.0275012359