22

 C    0.0488384675    1.4947996726   -0.1170396366
 C    0.0268067501   -0.0244529400    0.0910533985
 C    0.6785799429   -0.4583209633    1.3767391914
 C    0.3240844133   -0.1158188205    2.8421749334
 C    1.5425569055   -1.0468026452    2.9861736881
 C    1.1044224604   -1.9180544786    1.7537724124
 N    2.3878760500   -1.7901023736    0.9961041587
 C    3.4932071317   -2.6213610240    1.4607646302
 C    2.2175997776   -0.4749465879    1.6871954019
 H    1.0757349910    1.8743244211   -0.1448113708
 H   -0.4338155152    1.7693392744   -1.0598548577
 H   -0.4764373694    2.0159815500    0.6903999434
 H   -1.0113280667   -0.3822879547    0.0776246872
 H    0.5436168331   -0.5262517777   -0.7351555393
 H    0.4632939447    0.9242154310    3.1540603502
 H   -0.6319830887   -0.4980398815    3.2151273009
 H    2.0306481877   -1.3797576127    3.9014398827
 H    0.4899318636   -2.8214056540    1.7431580334
 H    3.3511071978   -3.6447523094    1.0970721385
 H    4.4296747955   -2.2453718483    1.0347993324
 H    3.6079821376   -2.6611911785    2.5570228221
 H    2.9349499399    0.3442883906    1.5998397791