18

 C   -0.0741815394    1.7090006673   -0.0315570783
 C    0.0413790859    0.1867514992   -0.0174190029
 O    0.7594561300   -0.1765267798    1.1436100538
 C   -1.3606503216   -0.4966945166   -0.0057670988
 C   -2.1584073926   -0.1403680798    1.1631108849
 N   -2.7990274010    0.1517309535    2.0791404990
 C    0.7780163454   -0.3176647503   -1.2573449722
 C    2.2365997558   -0.4428709057   -1.2813565599
 O    1.3982441554   -1.5975721587   -1.0907466571
 H    0.9227159555    2.1555042939   -0.0169564739
 H   -0.6021852508    2.0554303129   -0.9253025719
 H   -0.6205659631    2.0519573471    0.8503677279
 H    1.0414042086   -1.0938062164    1.0156653419
 H   -1.9212712236   -0.2283621416   -0.9087276613
 H   -1.2230822855   -1.5838069946   -0.0250696631
 H    0.2503799854   -0.1929880052   -2.2037501826
 H    2.7622085659   -0.4115200890   -2.2331139491
 H    2.8074617697   -0.1434259562   -0.4067244764