17

 O    0.3022394409    0.5605102668    0.7907963897
 C   -0.1778187829    0.1783206840   -0.4833257015
 C   -1.5312126668   -0.4967945017   -0.4160576630
 C   -1.8999604509   -1.5721455385   -1.3815723748
 C   -1.6157579289   -1.9587210382    0.0794575844
 C   -0.3796347958   -2.6355183528    0.3850685885
 C    0.6628083061   -3.1705328312    0.6588622906
 C   -2.7427499699   -2.3135733789    0.9040732825
 C   -3.6914156803   -2.5988695948    1.5848669443
 H    0.4800218081   -0.2530037988    1.2771978678
 H   -0.2649578778    1.1005182588   -1.0682909961
 H    0.5361819747   -0.4748665000   -1.0051865625
 H   -2.3350623768    0.1271040656   -0.0390509904
 H   -2.9295984861   -1.6617930151   -1.7055369557
 H   -1.1572320656   -1.8853789847   -2.1070327476
 H    1.5711636963   -3.6696565447    0.8909830671
 H   -4.5230989444   -2.8551605359    2.1931203469