17

 O   -0.1129896980    1.4545894680    0.1233775543
 C    0.0128735417    0.0427449812    0.1163424097
 C   -1.3798414320   -0.5426413932   -0.1406663528
 C   -1.4096065989   -2.0327677244   -0.1397899847
 C   -1.5316442505   -2.9611357265   -1.1339772022
 N   -1.4834451951   -4.2553267129   -0.6341586262
 C   -1.3331397740   -4.0967694366    0.6510361918
 O   -1.2369319713   -5.0630457394    1.5815707756
 N   -1.2758634803   -2.7942181451    1.0266301556
 H    0.7630206478    1.8365283037    0.2291986940
 H    0.7013496900   -0.3036513166   -0.6691372648
 H    0.4038791800   -0.3291898420    1.0780626487
 H   -2.0669557350   -0.1296685731    0.6096527092
 H   -1.7311834187   -0.1840243090   -1.1128305135
 H   -1.6566697335   -2.7768438984   -2.1902922308
 H   -1.3067578596   -5.8997377102    1.1047627494
 H   -1.1885033025   -2.4559706155    1.9698016967