19

 C    0.1713563665    1.5204522444   -0.1908582950
 C   -0.0818906358    0.0354282895    0.1245447120
 C    0.6166217541   -0.4349246377    1.3574793265
 C    0.1495363417   -0.9670099264    2.4916756665
 C    1.3808434850   -1.3989250612    3.2721321826
 C    1.9865731998   -2.6070218612    2.4862028754
 O    2.4384960472   -1.9729720929    1.2841298836
 C    2.1377548770   -0.5707482411    1.5067647589
 O    2.3473231733   -0.3994571072    2.8861707015
 H    1.2377635412    1.7248097667   -0.3302283427
 H   -0.3459083639    1.8137584587   -1.1092509843
 H   -0.1860677674    2.1591785253    0.6222974431
 H   -1.1582180335   -0.1431709420    0.2241639326
 H    0.2571698406   -0.5734345377   -0.7251814875
 H   -0.8736013425   -1.1994180770    2.7553608119
 H    1.3186152932   -1.4989328741    4.3535559715
 H    2.8410879507   -3.0386764519    3.0180553859
 H    1.2524905921   -3.3870305793    2.2611563083
 H    2.8060850508    0.0400263450    0.9029870193