19

 C    0.2016349977    1.5834905699   -0.0016884273
 C    0.0629862129    0.0648034730   -0.0273971135
 O    0.8431976461   -0.3658283850   -1.1488182606
 C    0.9345905382   -1.6646248980   -1.5312112107
 N    0.7029324485   -2.7711150450   -0.9796420416
 C    0.2861675636   -3.0327872598    0.3806163428
 C    0.5845968901   -2.0258336834    1.4756706906
 N    1.7986617315   -1.2012972880    1.3612664616
 C    0.4775223494   -0.5625164129    1.2916830305
 H    1.2394303817    1.8628980863    0.2024485635
 H   -0.0893743762    2.0082072731   -0.9652754570
 H   -0.4376454470    2.0124243876    0.7757164717
 H   -0.9866767909   -0.2024344052   -0.2219871459
 H    1.3073867218   -1.6687852841   -2.5568248164
 H   -0.7955344326   -3.2355020138    0.3855810935
 H    0.7549991943   -3.9839433290    0.6666156045
 H    0.3304750304   -2.4030625379    2.4669305110
 H    2.2245731210   -1.0535152009    2.2712525362
 H    0.1421537695    0.0139427431    2.1531073171