18

 C   -0.0694201459    1.5621262138   -0.0112759814
 C    1.4497239999    1.1957928948   -0.0419048840
 C    1.2352059092    0.2095372847    1.1417706321
 C    1.7472917246   -1.2254775891    0.9153046620
 C    2.0520339697   -1.0420324600   -0.6149789067
 N    1.1284794217    0.0492783400   -0.9737459021
 C    0.0309693169    0.0434325992    0.1906740156
 C   -0.5806064621   -1.2723550667    0.5024116073
 C    0.4387738874   -2.0188137166    0.9725556134
 H   -0.4201256271    2.1424877814    0.8442929238
 H   -0.4865267746    1.9116080479   -0.9565291769
 H    2.2913530507    1.8617652268   -0.2444164147
 H    1.0591479303    0.5520499688    2.1637288947
 H    2.5680468379   -1.6067872575    1.5226438539
 H    3.0882179202   -0.7327026251   -0.7899177680
 H    1.8426329477   -1.9354926638   -1.2076468643
 H   -1.5914503077   -1.5983003286    0.2969618117
 H    0.3916332913   -3.0754873101    1.2111658636