19

 C   -0.2460598968    1.2292603798    0.1163748011
 O    0.0967256978   -0.1460725902    0.1376058326
 C    0.6740849579   -0.6145018700   -1.0575204803
 C    1.2555731179   -2.0104336650   -0.8015798829
 N    2.4320185436   -1.9069224882    0.0431649352
 C    2.2155205006   -2.0109196608    1.4845037726
 C    2.8355988123   -3.1325092464    0.7303099879
 C   -0.3244116802   -0.6585653021   -2.1521016840
 N   -1.1101190021   -0.6857976512   -2.9989800964
 H    0.6360323384    1.8573269054   -0.0746236996
 H   -1.0076504278    1.4449493204   -0.6450285766
 H   -0.6490463775    1.4671465325    1.1024221650
 H    1.4954529694    0.0458256056   -1.3775261256
 H    0.4592695135   -2.6434361478   -0.3743188912
 H    1.5515503111   -2.4450603924   -1.7621709188
 H    2.8267806628   -1.3540689312    2.0959549760
 H    1.1946462752   -2.1402993403    1.8344553015
 H    2.2315070854   -4.0251185376    0.5766767879
 H    3.9056978585   -3.3110389706    0.7780734556