19

 C   -0.0192219230    1.4764125393    0.0313813208
 C   -0.0174865397   -0.0338502079    0.0954642749
 C   -1.0215396778   -0.7346999990   -0.7998167858
 C   -1.2165495371   -2.1924408406   -0.4928652534
 C   -0.7404603433   -2.8029890509    0.5890806392
 C    0.0848258450   -2.1356681767    1.6554277793
 O    1.2487672029   -2.9054271015    1.9579831435
 C    0.4885366637   -0.7210139024    1.2960043365
 O    1.2937772982   -0.6271801580    0.1091912053
 H    0.7770304285    1.8878239455    0.6562307307
 H    0.1428202686    1.8177383738   -0.9971416426
 H   -0.9780369954    1.8813189254    0.3721255855
 H   -1.9852388341   -0.2097200227   -0.7282442766
 H   -0.7029738825   -0.6122817948   -1.8446809616
 H   -1.7972547840   -2.7589693610   -1.2170373097
 H   -0.9163481288   -3.8634210268    0.7486921439
 H   -0.4807516690   -2.1081511368    2.5966308124
 H    1.8095958579   -2.8493620020    1.1739217708
 H    0.8585023601   -0.1215666928    2.1283943569