21

 C    0.9694992331    0.0753055847   -0.7342857486
 C    0.0795275752   -0.4751377154    0.3888961551
 C   -1.3934399658   -0.5931701570    0.0010453432
 C   -2.3292172377    0.5250771738    0.4328552038
 C   -1.9805083165    1.8987422168   -0.1536144955
 O   -1.6411941287   -1.0910573109   -1.3232689817
 C   -2.0013393644   -1.9354893285   -0.2175800887
 C   -1.2717235288   -3.1627311598   -0.0493512499
 C   -0.6886349826   -4.2021330966    0.1116714517
 H    2.0164082237    0.0891784942   -0.4168091026
 H    0.8855596170   -0.5540015936   -1.6233054900
 H    0.6913683389    1.0938433137   -1.0193167966
 H    0.4518965429   -1.4615184726    0.6821365717
 H    0.1524084206    0.1627139729    1.2773179797
 H   -3.3477577245    0.2550015498    0.1336036931
 H   -2.3230742875    0.5760310868    1.5293551536
 H   -1.0078774711    2.2566579909    0.1967408358
 H   -1.9556096110    1.8589340817   -1.2466971500
 H   -2.7293745928    2.6402255503    0.1403762489
 H   -3.0775109958   -2.0288240225   -0.0678640974
 H   -0.1709225043   -5.1198691186    0.2454059843