20

 C    0.0049067856    1.6203934813   -0.0439637880
 C    0.0071024600    0.0822621624    0.0303941765
 C   -1.3349214867   -0.4919226998    0.0350128521
 C   -2.4553496145   -0.9391651031    0.0334601996
 C   -3.7893999987   -1.4674028189    0.0465065534
 C   -4.3696053301   -2.1366145954   -1.1938002247
 C   -4.0498541368   -2.9716191906    0.0121400913
 C   -2.9095375749   -3.9617226537   -0.0056536341
 H    1.0294095741    2.0049475004   -0.0449345159
 H   -0.4943336647    1.9643089187   -0.9539202817
 H   -0.5234059489    2.0494492855    0.8118433702
 H    0.5729957330   -0.3217299554   -0.8193217877
 H    0.5495344376   -0.2377932614    0.9298921783
 H   -4.4958985057   -0.8899014181    0.6366241157
 H   -5.4062312659   -1.9313502360   -1.4374586226
 H   -3.7110443718   -2.2192726647   -2.0514974697
 H   -4.9061129524   -3.2804383795    0.6062292295
 H   -2.0578729768   -3.5691715233   -0.5678541675
 H   -2.5613813488   -4.1827158572    1.0091288141
 H   -3.2194081435   -4.9052029612   -0.4682727387