17

 O    0.1064106548    1.2869352442    0.1452626962
 C    0.0689472646   -0.0513640691    0.0158342162
 N    0.0612914829   -0.7289524496   -1.1045055529
 C   -0.0094691755   -2.0447594929   -0.6753379469
 C   -0.0425159597   -2.1350455085    0.6760250813
 C   -0.0216972843   -3.5231935685    1.2162759445
 C   -0.2743318236   -4.3315363133   -0.1086975437
 C    0.0235558182   -3.3917731087   -1.3282256872
 N    0.0222543557   -0.8268012821    1.1406884829
 H    0.1278230674    1.6396778874   -0.7533150979
 H    0.9439533413   -3.7836363283    1.6727542996
 H   -0.7911446536   -3.7384942713    1.9674028124
 H    0.3214469709   -5.2470173842   -0.1393904417
 H   -1.3253745798   -4.6318779563   -0.1387828321
 H   -0.7166245109   -3.5202682091   -2.1253126609
 H    1.0041437881   -3.6047917644   -1.7744271599
 H   -0.0152201864   -0.4835753251    2.0848408501