20

 C   -0.0052159847    1.5979337806   -0.0760228395
 C   -0.0368898828    0.0686378461   -0.1104173029
 C   -1.4470922455   -0.5027803983    0.1125271962
 C   -1.4573420211   -2.0047734569    0.1277586748
 C   -1.5848147456   -2.8917474705   -1.1204409070
 C   -2.5654020837   -3.0382168140    0.0014967116
 N   -1.9902098629   -3.7951477287    1.1189834274
 C   -0.8987655604   -2.9079910332    1.2246968950
 O    0.0698516754   -2.9121214774    1.9316581408
 H    1.0081740306    1.9774698335   -0.2382261699
 H   -0.6499135243    2.0276824417   -0.8513859143
 H   -0.3521195143    1.9798888429    0.8905600823
 H    0.3458995955   -0.2902785253   -1.0741079269
 H    0.6310428436   -0.3398884580    0.6562274062
 H   -1.8431009618   -0.1277976353    1.0654204962
 H   -2.1255240488   -0.1373071971   -0.6695994787
 H   -1.9299572578   -2.3622826131   -2.0052603449
 H   -0.8669238204   -3.6828688661   -1.3186619231
 H   -3.6331308856   -2.8765117454   -0.0659116921
 H   -1.8756148853   -4.8031928255    1.1113789389