17

 C   -0.2552587077    1.5368007355   -0.0972537196
 C    0.0220464507    0.0379359232   -0.0323490853
 C    1.2310563194   -0.4099461759   -0.9174721643
 C    2.0543237160   -0.5220348363    0.3756770987
 O    3.2266511061   -0.5298083635    0.6200085940
 C    0.7926770649   -0.4552193790    1.2503396569
 C    0.8321912948    0.3427352668    2.5459909486
 H    0.6597325173    2.1232567793    0.0451399625
 H   -0.6690342668    1.8084028838   -1.0738870780
 H   -0.9725220748    1.8478764939    0.6689740508
 H   -0.8987418940   -0.5182864437   -0.2225678370
 H    1.0913387963   -1.3857068942   -1.3938281858
 H    1.6015899038    0.2954018905   -1.6663259026
 H    0.4901660097   -1.4900422546    1.4623211681
 H    1.1272309181    1.3814978394    2.3735308728
 H   -0.1426668099    0.3443005690    3.0439982718
 H    1.5622563862   -0.0965438840    3.2322775186