18

 C   -0.0628328992    1.5540594273   -0.0529445440
 C    0.0051788318    0.0489321872    0.0483287601
 C   -1.3029899180   -0.7582136655    0.3060949479
 O   -1.7860661354   -1.4166273761   -0.8376507034
 C   -0.5952385603   -1.6041263865    1.4134535727
 C    0.7070196254   -0.7937106485    1.1791737096
 N    1.5863847063   -1.3362587226    0.1450717419
 C    0.9643559168   -0.6981865928   -0.9150076927
 O    1.1482440124   -0.7257745995   -2.0995875422
 H    0.9355984162    2.0017321937   -0.0251785402
 H   -0.5287600529    1.8404291086   -1.0018565995
 H   -0.6545882845    1.9867388075    0.7607497445
 H   -2.0698458141   -0.1006635324    0.7406454865
 H   -2.5970915218   -1.8798692339   -0.6047524065
 H   -1.0317245518   -1.4784987597    2.4074711053
 H   -0.5086248394   -2.6694801533    1.1874402760
 H    1.2163321541   -0.3476099413    2.0342276790
 H    2.1221070145   -2.1942645921    0.1383632750