23

 C    0.0905915645    1.6508392741   -0.1317408988
 C    0.0517869701    0.1216580366   -0.0023582985
 C    0.5831379917   -0.5596773292   -1.2675877362
 O   -0.2208992289   -0.1567293575   -2.3682965403
 C    0.7876102007   -0.3892374932    1.2148396698
 C    0.3924784153   -1.6623650783    1.9185049953
 C    0.3728056987   -0.3710799215    2.6914175032
 C    1.7967832954   -0.0020092977    3.1169667899
 C    2.2360038231   -0.0413003578    1.6159174440
 H    1.1172344840    2.0150540287   -0.2522010709
 H   -0.4785678319    1.9709088950   -1.0069369111
 H   -0.3331166514    2.1280399259    0.7572843314
 H   -0.9997448453   -0.1823717307    0.0970674870
 H    1.6376584493   -0.2759553104   -1.4225901822
 H    0.5520769148   -1.6518912369   -1.1329164219
 H    0.1461798962   -0.5448834289   -3.1674258605
 H   -0.5822402062   -2.0570563470    1.6472026316
 H    1.1327132256   -2.4269953765    2.1488042627
 H   -0.5400695192    0.0079111822    3.1370554191
 H    1.8745289043    1.0019718876    3.5402522057
 H    2.2915660829   -0.7048268606    3.7961178788
 H    2.9971345707   -0.7802568172    1.3431205921
 H    2.5635296356    0.9377789033    1.2599853598