19

 C    0.1803875872    1.0152725972   -0.4733633759
 O   -0.0637851083   -0.2046457678    0.2145733471
 C   -1.3776920216   -0.6579840385    0.1256520482
 C   -2.3962502473    0.0640042187    0.9810903927
 C   -1.8555395574   -1.2520324393   -1.2000404047
 O   -0.8843930548   -1.5302742475   -2.1744040416
 C    0.0735032124   -2.4180363969   -1.6087021871
 O   -0.4636119320   -2.9460410840   -0.4088507816
 C   -1.5594492472   -2.1590348378   -0.0395007885
 H    1.2485166372    1.2205841318   -0.3724234997
 H   -0.0747960785    0.9284143114   -1.5361172542
 H   -0.3780709113    1.8532289409   -0.0348506210
 H   -2.5209721888    1.1060396055    0.6682300765
 H   -3.3763737366   -0.4177217269    0.9098973793
 H   -2.0847997858    0.0516776959    2.0304815734
 H   -2.8329887446   -1.0461302217   -1.6216336893
 H    0.2638383550   -3.2390650708   -2.3118068592
 H    0.9988185312   -1.8717208287   -1.3909956634
 H   -2.2910907789   -2.7047886214    0.5448395488