19

 O   -0.0430576854   -0.0646807900   -0.3170273914
 C   -0.0016065075    1.1255420308   -0.1294356937
 C    1.2600398673    1.9363757236   -0.0535446223
 C    1.1239515715    3.3247562838   -0.8085841371
 C    0.8234192895    3.9206039371    0.5456095703
 C   -0.0441677905    4.6314706627    1.2567314633
 C   -0.0492630653    4.1202921591    2.6967252414
 C    0.5668998966    2.6826661121    2.5851124698
 C    1.4173091888    2.7671706153    1.2992828556
 H   -0.9377651597    1.7159677900   -0.0005081321
 H    2.1087263951    1.3084236901   -0.3282566799
 H    2.0896389369    3.6256978968   -1.2259172788
 H    0.3614131421    3.4092249685   -1.5877339461
 H   -0.7143478437    5.4049416427    0.9002098676
 H    0.5488222665    4.7596923839    3.3610137219
 H   -1.0598633243    4.1012601551    3.1186477836
 H    1.1459572082    2.4031420158    3.4690337105
 H   -0.2382935190    1.9483991498    2.4823399518
 H    2.4883812030    2.8705584227    1.5094161755