18

 C   -0.0911858708    1.4520277227    0.0020640455
 N    0.0193224775    0.0094369116   -0.0081148078
 C    0.1218871325   -0.7778560828   -1.1263555044
 C    0.1817292072   -2.0921335612   -0.7286631083
 C    0.0975279812   -2.1206319157    0.6931737549
 C    0.1244757923   -3.3289858327    1.5793541406
 C   -0.0046776245   -0.8054709623    1.1097413753
 N   -0.0747348437   -0.2165337947    2.3946313113
 H    0.5915563038    1.8832771402   -0.7352278840
 H   -1.1102812286    1.7854244700   -0.2299598630
 H    0.1749447666    1.8103745532    0.9972355613
 H    0.1391662565   -0.3331980373   -2.1089994822
 H    0.2757602219   -2.9465610021   -1.3826910892
 H    1.1093869949   -3.8128773769    1.5974099750
 H   -0.1278976318   -3.0666143094    2.6123873985
 H   -0.5954013114   -4.0874593369    1.2508718632
 H   -1.0131022056   -0.2321243373    2.7834001886
 H    0.5348156421   -0.6898879883    3.0505911147