19

 C   -0.0005158662    1.5282808708   -0.0221567916
 C   -0.0189568092   -0.0159981947   -0.0039777685
 C    0.7692350432   -0.5267392172    1.2220799701
 C   -1.4675115456   -0.5280903209    0.0462889685
 C    0.6758542187   -0.5089259036   -1.2483965723
 N    0.1044848901   -1.2650006776   -2.1488273593
 O    1.1130282171   -1.4679137540   -3.1054362602
 C    2.1766686630   -0.8014090678   -2.6601849760
 N    1.9945331791   -0.1893898010   -1.5370462062
 H    1.0225954086    1.9069951420   -0.0874169788
 H   -0.5660212042    1.9188267373   -0.8740626011
 H   -0.4564570918    1.9159231464    0.8944214581
 H    0.3149574069   -0.1437719679    2.1414463184
 H    0.7597107403   -1.6202690661    1.2687310304
 H    1.8097264517   -0.1944444806    1.1849672088
 H   -2.0429903771   -0.1826472465   -0.8166530021
 H   -1.5043549098   -1.6206872171    0.0540642087
 H   -1.9547589950   -0.1605148388    0.9547870257
 H    3.0693047900   -0.8353330225   -3.2680167323