20

 C    0.0051631294    1.5282538764   -0.0374402803
 C    0.0282222988    0.0219490492   -0.0580950855
 C    0.5280679286   -0.9473806585   -1.1267768843
 N    0.0526826669   -1.9407742081   -0.0728319538
 C    0.5498992762   -0.9716719164    1.0408012958
 C   -0.7904715547   -1.0437295137    1.7443186103
 C   -1.2970611685   -1.8856805662    2.8632344705
 C   -1.3510382762   -0.3654356046    2.9508788219
 C   -1.1305235481   -0.9868187454    0.2685660249
 H    1.0175244007    1.9373986269   -0.1291057893
 H   -0.5898206051    1.9229240747   -0.8686485555
 H   -0.4276689787    1.9023126063    0.8959719828
 H   -0.0283788857   -1.0108867459   -2.0688179130
 H    1.6061612017   -0.9961657655   -1.3176743297
 H    1.5633135115   -1.0596332150    1.4385313223
 H   -2.2317648688   -2.4194272360    2.7255564033
 H   -0.5759851880   -2.4045106389    3.4864329853
 H   -0.6670011110    0.1280984204    3.6341477397
 H   -2.3222693823    0.1131695988    2.8735055955
 H   -2.0909076668   -1.0925760283   -0.2407588410