20

 C   -0.1283272977    1.5119282906   -0.1284466359
 C    0.0122883043   -0.0074304383    0.0393799247
 C    0.8563410814   -0.3686263382    1.2694000052
 C   -1.3688838612   -0.6398992055    0.1339689356
 O   -2.2183667804   -0.3343758917   -0.9958772609
 C   -2.5095603619   -1.7160745764   -1.2437993745
 C   -1.5498045068   -2.1779888802   -0.1132565763
 C   -0.3857174577   -2.9342787073   -0.5392874998
 N    0.5349963361   -3.5405360803   -0.8889653667
 H    0.8541658726    1.9753320229   -0.2594204969
 H   -0.7438744979    1.7532646182   -0.9982808338
 H   -0.5953007450    1.9634920808    0.7550477424
 H    0.5016354921   -0.4114255765   -0.8560398498
 H    0.3896502117    0.0048566748    2.1887744795
 H    0.9948531016   -1.4491461360    1.3696987965
 H    1.8493569507    0.0841632322    1.1952609026
 H   -1.8554489887   -0.3326397586    1.0714655920
 H   -3.5618200521   -1.9622029068   -1.0592497330
 H   -2.2327267870   -2.0272637688   -2.2558287628
 H   -2.0387415140   -2.7053582649    0.7075684018