14

 O    0.0815438741    1.3621877693   -0.3791821507
 C    0.0245663344    0.1450462898    0.3284698644
 C   -1.3543983214   -0.4842442092    0.2202275939
 O   -1.6611456992   -1.0471508616   -1.0609253720
 C   -1.5499520449   -1.9528399518    0.0468923802
 C   -0.4543886297   -2.8819330322    0.0595184566
 C    0.4286823144   -3.6964205370    0.0838810255
 C   -2.4389581053    0.2702999154    0.8265997040
 N   -3.2890040448    0.8620373877    1.3383769907
 H   -0.0677105964    1.1663158048   -1.3113178475
 H    0.7625741828   -0.5853268859   -0.0256349828
 H    0.2417004126    0.3782548599    1.3751134831
 H   -2.5056388128   -2.3563654571    0.3781414482
 H    1.2140911263   -4.4122614721    0.1030612765