25

 C    1.3244393503   -0.5819834369   -1.1567923616
 C    0.3794359192   -0.2028948040   -0.0104163086
 C    0.8561547509   -0.5847680475    1.4117534312
 O    2.0906564989    0.0834178969    1.7151943091
 C   -0.1431184857   -0.0790213483    2.4743770096
 C   -0.3870444820    1.4343158978    2.4831771949
 C    1.0466223625   -2.1133872562    1.5236149695
 C    1.5322137884   -2.6147068862    2.8804377271
 O    1.9401296529   -3.9673040652    2.7036755275
 H    1.4521004552   -1.6634692716   -1.2577954162
 H    0.9329472313   -0.2093968095   -2.1081347868
 H    2.3166708522   -0.1331825904   -1.0285840052
 H    0.2291714572    0.8803011113   -0.0331023576
 H   -0.6026619403   -0.6613031420   -0.1823665835
 H    2.7580936841   -0.2292029332    1.0960791822
 H   -1.0908942220   -0.6144017471    2.3396696437
 H    0.2428034317   -0.3685309801    3.4569989324
 H    0.5625329727    1.9739566177    2.5207697802
 H   -0.9379519439    1.7740476823    1.6012863793
 H   -0.9757987685    1.7172553866    3.3613372762
 H    0.1131106385   -2.6231953587    1.2572818432
 H    1.7930198699   -2.4363248905    0.7879650703
 H    2.3651327066   -1.9834865688    3.2219904311
 H    0.7322381046   -2.5464808815    3.6321698495
 H    2.2371334252   -4.3012689951    3.5550679023