13

 O    0.0008323848   -0.0614470366   -0.0030610638
 C    0.0086429071    1.1489252469    0.0076157929
 C    1.2241041627    1.9678032139    0.0009996093
 C    2.5125914053    1.4980669795   -0.0176535789
 O    3.3915705592    2.5094304132   -0.0187341102
 C    2.6679536331    3.6860218335   -0.0002819383
 C    1.3339069303    3.3956400284    0.0121156876
 C    3.3851305849    4.8933332829    0.0021870650
 C    3.9897888145    5.9345713196    0.0044598360
 H   -0.9390225856    1.7303614285    0.0230845571
 H    2.9193399354    0.5004402681   -0.0309283870
 H    0.5303045748    4.1148571695    0.0273922789
 H    4.5227328035    6.8532777025    0.0064634114