14

 C   -0.0764907465    1.4309171530    0.0500381809
 N   -0.0094068679   -0.0182173210    0.0425468838
 C    0.0003357743   -0.8338850258   -1.0288963969
 N    0.0686250865   -2.1161074729   -0.7000376578
 C    0.1047155449   -2.1291587518    0.6528101360
 O    0.1759231816   -3.2615034119    1.3608027675
 C    0.0585861947   -0.8425675376    1.1712574772
 C    0.0702487884   -0.3507245408    2.4850625716
 N    0.0782256038    0.0825345921    3.5617736989
 H    0.8062692212    1.8536243996    0.5371814762
 H   -0.1196609943    1.7826669761   -0.9817812895
 H   -0.9681204376    1.7712689898    0.5833471139
 H   -0.0439809789   -0.4505840206   -2.0375463091
 H    0.1929888199   -3.9889355983    0.7253719473