19

 C    0.1001691656    1.6303762982    0.0052665325
 C    0.0401216801    0.0965088001   -0.0294575292
 C    0.6644072322   -0.5305479082    1.2012891987
 C    2.2039866460   -0.4604025096    1.3936883738
 O    2.2904863648   -1.8653277882    1.7116926641
 C    0.8771444938   -2.0528819552    1.5182092468
 C    0.0808907148   -1.9338516020    2.8397965318
 C   -0.0724475171   -0.4256253047    2.5514243067
 O   -0.6249138130    0.4759661523    3.1142506136
 H    1.1359016695    1.9865181872    0.0324969090
 H   -0.3735677047    2.0576867291   -0.8832204704
 H   -0.4109513509    2.0164842788    0.8907781129
 H   -1.0049113590   -0.2271137595   -0.1124448536
 H    0.5544860932   -0.2823436902   -0.9220716940
 H    2.7380767905   -0.2278990415    0.4630700909
 H    2.5850684274    0.1810504093    2.1962928163
 H    0.6420893241   -2.8724436585    0.8362271401
 H   -0.8914814804   -2.4393647556    2.8211690332
 H    0.6150792931   -2.2155072417    3.7500872767