21

 C    0.6573335920    1.1392207558    0.2317418783
 O    0.6547528774   -0.2619481500    0.0341577332
 C    0.4466876302   -0.6424598939   -1.3065847049
 O    1.4644777838   -0.1468600286   -2.1575347706
 C    2.7184668897   -0.8407473823   -2.1829160533
 C    2.8275957939   -1.9914426338   -1.1742443439
 C    1.6228431604   -2.9050148533   -1.3222219181
 C    0.6124458735   -3.0427269260   -0.2152056333
 C    0.3113227262   -2.1528549419   -1.3926033125
 H    1.4589221979    1.6274296212   -0.3338816679
 H   -0.3027080528    1.5848726789   -0.0706845752
 H    0.8064326421    1.3104631785    1.3001756052
 H   -0.4597077124   -0.1472465631   -1.6838275089
 H    2.8574701218   -1.2316711735   -3.2005952304
 H    3.5051435362   -0.0975155252   -2.0050241326
 H    3.7630737585   -2.5302349687   -1.3548423015
 H    2.8758888357   -1.5837469215   -0.1610695417
 H    1.7442345978   -3.7473626498   -1.9963555743
 H    0.0604279313   -3.9736413650   -0.1461657967
 H    0.8198584784   -2.5615771239    0.7325052657
 H   -0.4332376816   -2.4854006940   -2.1069805764