16

 C    0.1003762724    1.3033864481    0.1515179656
 O   -0.2795876819   -0.0145771467   -0.1910126551
 C    0.5045806770   -0.5747400636   -1.1915034061
 C    1.9529606112   -1.1134286009   -0.8482659241
 C    1.4749934913   -2.4873380503   -1.3415061714
 O    0.3830238091   -2.8707086477   -0.5015162670
 C    0.0950258420   -1.9952818117   -1.5869359017
 C    2.2241619575   -3.5008465105   -2.0155894708
 N    2.8661723443   -4.2900700648   -2.5653317955
 H    1.1222289137    1.3423864818    0.5559067845
 H    0.0427998818    1.9786547056   -0.7157935259
 H   -0.5958924171    1.6484067228    0.9182542782
 H    0.5515127399    0.0729442444   -2.0809119962
 H    2.7401672023   -0.6629677802   -1.4539591912
 H    2.2248423930   -1.1077412372    0.2082711371
 H   -0.6473083167   -2.3200054692   -2.3063076702