19

 O   -0.0815260206   -0.0429616661    0.0775371387
 C    0.0060154157    1.1508439818   -0.0035460072
 C    1.2935764456    1.9518415591    0.0269951001
 C    1.3077843046    2.9056386184    1.2352345912
 C    2.5500642155    3.8071532450    1.1618832459
 C    3.7979870801    3.0408512589    0.7553784244
 C    4.2762869294    1.8096830479    1.4963735023
 C    3.6502773638    1.6750639719    0.1330284927
 O    2.3866990190    1.0683936518    0.0586298280
 H   -0.8954752145    1.8018172809   -0.1029701630
 H    1.2992739033    2.5649863897   -0.8963869735
 H    0.3992316090    3.5171187886    1.2537614757
 H    1.3105459179    2.2962233103    2.1461998468
 H    2.3665073825    4.5852753984    0.4098445696
 H    2.7028090378    4.3243835339    2.1161405869
 H    4.5831955944    3.6627728395    0.3353128338
 H    5.3445140398    1.6568387119    1.6038098231
 H    3.6801787856    1.4439141055    2.3254795241
 H    4.2797152412    1.4065524426   -0.7114980098