18

 O    0.1466953099    1.3770295227   -0.1458017429
 C    0.0731088209   -0.0205873301   -0.0660236970
 C    0.3344151172   -0.5737700001    1.4003413095
 O    0.4177491141    0.4732912422    2.3538254320
 C   -1.0982888613   -1.1612452962    1.4186379983
 C   -1.3658410385   -0.6253965693   -0.0048808400
 C   -1.5587903399   -2.0935937755   -0.4204821521
 C   -0.4157933548   -2.9615883607   -0.0844336237
 N   -1.3470183996   -2.6022305288    1.0047881229
 H   -0.0769078534    1.7030410211    0.7378669707
 H    0.7149230007   -0.4320085015   -0.8508627288
 H    1.1600866379   -1.2847767077    1.5203888821
 H    1.3154368423    0.8229562630    2.3320255393
 H   -1.6939374803   -0.8986104683    2.2921252169
 H   -2.1831116002    0.0549139877   -0.2381818126
 H   -2.3895862866   -2.4512228378   -1.0206344384
 H   -0.5010732463   -4.0105457933   -0.3529396019
 H    0.6060709183   -2.5965911175   -0.0933446941