22

 C   -0.1208534540    1.5479396853   -0.0147093496
 C   -0.1012460927    0.0272845515   -0.0754477598
 O   -1.3640014043   -0.5060937085   -0.4085421399
 C    1.1295588125   -0.5599003834   -0.8307840504
 N    1.8004792038   -0.7465561452    0.4721844161
 C    2.6182348843   -1.9351433670    0.6465445528
 C    3.4809698496   -1.8654025152    1.9044906413
 O    2.7176823549   -1.7897862160    3.1004348851
 C    0.4984851300   -0.6549187588    1.1738544204
 H    0.8556707575    1.9325226976    0.2925702057
 H   -0.3538311109    1.9741179805   -0.9990474807
 H   -0.8767993993    1.8933605828    0.6977391224
 H   -1.7316430245    0.0146095175   -1.1305835105
 H    0.8530575598   -1.5054860374   -1.3217843310
 H    1.6689743952    0.0797917492   -1.5394170468
 H    2.0023886453   -2.8539622279    0.6754686215
 H    3.2852439561   -2.0158616576   -0.2217610460
 H    4.0805509104   -2.7790898796    1.9829715480
 H    4.1723853348   -1.0141348383    1.8220508801
 H    2.3557213004   -0.9005228237    3.1534060396
 H    0.4992632931   -0.0823357442    2.1087727999
 H    0.0248696881   -1.6316703616    1.3486837919