25

 C    0.0408482677    1.6054762186    0.1581510283
 C    0.0147035912    0.0917855224   -0.0832700892
 C   -1.3983332030   -0.5165684304   -0.1069067007
 C   -2.2076836060   -0.1241645896   -1.3545770748
 C   -3.6739369725   -0.5608803340   -1.2243690808
 C   -3.8002357317   -1.9545511992   -0.6686807995
 C   -2.7906433877   -2.6142898599   -0.1023917579
 C   -1.3960649371   -2.0578526568    0.0663714715
 C   -0.4086305750   -2.8081656779   -0.8519573012
 H    1.0691033693    1.9791117152    0.1936568789
 H   -0.4790669751    2.1562352304   -0.6319297813
 H   -0.4386110151    1.8612834991    1.1097955509
 H    0.5312316875   -0.1344167557   -1.0246861616
 H    0.5977305649   -0.3992309992    0.7074094072
 H   -1.9375182548   -0.1158568992    0.7651558928
 H   -2.1576825500    0.9558754618   -1.5256844386
 H   -1.7631476047   -0.5980558546   -2.2392850868
 H   -4.2189919565    0.1410949650   -0.5748404157
 H   -4.1768517336   -0.5018018241   -2.1983291705
 H   -4.7779041445   -2.4265101079   -0.7404640935
 H   -2.9482557927   -3.6292393822    0.2587617787
 H   -1.0791701391   -2.2655328374    1.0994848492
 H   -0.6129800066   -2.6086457213   -1.9086131348
 H    0.6289192250   -2.5309818316   -0.6447265764
 H   -0.4989398896   -3.8893311518   -0.7030135241