16

 C   -0.0286358622    1.5798637830    0.0090570495
 C    1.5078457959    1.6413915253    0.0417928942
 O    1.7171567930    1.0363025285    1.3295261692
 C    1.2552467997   -0.2753659123    0.9629519650
 C    2.3806290837   -0.6465989507   -0.0175149776
 C    1.9103775267    0.4567522406   -0.9803866841
 O    0.6348493514   -0.1030217406   -1.3379932716
 C    0.0305300264    0.0437700867   -0.0412785923
 H   -0.4413768794    2.0285074852    0.9133950856
 H   -0.5190820700    1.9658781067   -0.8853263027
 H    2.0278416332    2.5934894505   -0.0368919260
 H    1.0599044162   -0.8856815126    1.8418341176
 H    3.3527059401   -0.5064567935    0.4567088250
 H    2.3117169839   -1.6214156500   -0.5017159235
 H    2.4929400961    0.7092302772   -1.8635359564
 H   -0.8766884546   -0.5504942739    0.0416749981