18

 C   -0.0636708304    1.4912179114    0.0510261741
 C    0.0949427660    0.0052931865    0.0126609947
 N   -0.8581720493   -0.9121905429    0.7152051886
 C    0.6095249262   -0.9609129166    1.0007881740
 C    1.3193887711   -1.7791854902   -0.1183658778
 O    2.6358262503   -2.1769138276    0.0368237463
 C    0.4060889101   -2.2571957327   -1.2130439244
 O   -0.8419518801   -2.8460060793   -1.1155255981
 C    0.7623278828   -0.7776326081   -1.1546861636
 H    0.8735219957    1.9883304247   -0.2202316415
 H   -0.8357179261    1.8258341995   -0.6518224872
 H   -0.3458641543    1.8307300304    1.0537936555
 H   -1.2995549926   -0.3818891477    1.4665711361
 H    0.9961885439   -0.8118048004    2.0014132184
 H    2.6400085186   -3.1095211558    0.2812413840
 H    0.9906338540   -2.7439657975   -1.9935266106
 H   -1.2914171869   -2.3416010358   -0.4134938026
 H    1.2767941412   -0.2740806080   -1.9643783057