20

 C   -0.5645273399    1.0712845235    0.3550560442
 C   -0.5793523583   -0.3040657539   -0.3226676526
 C    0.5343203247   -0.4512803448   -1.3396933948
 C    1.9558172525   -0.7007003329   -0.8701350080
 C    1.2100174843   -1.7683207497   -1.6001741033
 N    0.7766643722   -2.9674152161   -0.8019688219
 H    0.3203018141   -2.6438857379    0.0597451821
 H    0.0886575503   -3.5157967521   -1.3236351772
 H    1.5578310476   -3.5794202556   -0.5529996381
 C    0.3951487629    0.3619222853   -2.6980502062
 O   -0.5908798114    1.1077638716   -2.7510891924
 O    1.3013142413    0.0969801517   -3.5116315202
 H    0.3685879048    1.2344947972    0.9050717869
 H   -0.6571137673    1.8308579946   -0.4226346580
 H   -1.3970527807    1.1703230844    1.0584498637
 H   -0.5375669366   -1.0780532985    0.4750382559
 H   -1.5330131528   -0.4316536666   -0.8445267827
 H    2.7537871569   -0.2260650629   -1.4291384278
 H    2.1321837860   -0.8360480882    0.1959596243
 H    1.4605863793   -2.0142759992   -2.6254258738