19

 C    0.1305644067    1.4483078409   -0.2754979888
 C    0.0796801525   -0.0147225494    0.0881844597
 O    1.3217999125   -0.7128506155    0.2206185323
 C    0.4951203682   -0.5850297887    1.3808456719
 C    1.0182792731    0.2382194393    2.5224508341
 O    1.8420419625   -0.6276863773    3.3245060758
 C    2.3867126747   -0.0579188086    4.4220307617
 C    3.2372046627   -1.0537299760    5.1722152330
 O    2.2029769329    1.0911919012    4.7341727009
 H    0.9017110464    1.9837351954    0.2810557754
 H    0.3465418508    1.5592286734   -1.3430925070
 H   -0.8368590278    1.9233354471   -0.0800570319
 H   -0.6777896396   -0.5819549779   -0.4574090455
 H    0.0259596890   -1.5186736103    1.6964083968
 H    1.6131694432    1.0855975487    2.1769997703
 H    0.1973615658    0.6242115585    3.1372766829
 H    4.0491259589   -1.4080186379    4.5307363162
 H    3.6468180651   -0.5813282466    6.0640573545
 H    2.6391415123   -1.9259974465    5.4501588876