18

 C   -0.0738520616   -1.1938432446    0.2684564797
 C   -0.0667271801   -0.0056422065    0.0871923895
 C   -0.0235616105    1.4375307811   -0.1431209707
 C    1.3838136858    1.9897082128   -0.1271749064
 C    2.0824379402    2.4064376311    1.1354389625
 C    1.8747234766    3.4305402439    0.0493846551
 C    2.9172690867    3.2319426904   -1.0570275411
 C    2.4225353711    1.7578328075   -1.2347045554
 H   -0.0893944973   -2.2425630682    0.4325826583
 H   -0.4997082221    1.6613633431   -1.1078750219
 H   -0.6258967635    1.9481112606    0.6196553256
 H    1.4412476329    2.5147230787    2.0051035266
 H    3.0817788738    2.0411114069    1.3643058301
 H    1.2998857912    4.3330348039    0.2236186984
 H    2.7281761427    3.8404399621   -1.9440778206
 H    3.9614487784    3.3697452221   -0.7572185344
 H    3.1480658134    0.9595531070   -1.0506314088
 H    1.9668859924    1.5921649380   -2.2144421962