16

 C   -0.0296245675    1.4447542821    0.0678614425
 N    0.1034530648   -0.0006602480   -0.0216731225
 C    0.6546842053   -0.6402043952    0.9039710270
 C    0.8429953900   -2.1410357863    0.9738973978
 O    1.7755391351   -2.3159114286    2.0353222681
 C    1.6107102526   -1.2046142232    2.8839166754
 O    1.2137281070   -0.1136737232    2.0484007817
 C    0.6085109546   -1.4378118463    3.9335071528
 C   -0.1978570483   -1.6424510567    4.7994938900
 H    0.5924658154    1.9100757299   -0.7053752904
 H   -1.0668921255    1.7176658596   -0.1526030453
 H    0.2497027588    1.8632839902    1.0410737977
 H   -0.1108034263   -2.6432737225    1.1854969459
 H    1.2691459834   -2.5486279541    0.0564156441
 H    2.5831876828   -0.9616095270    3.3217762682
 H   -0.9114939221   -1.8211384707    5.5663457470