23

 C   -0.1213911241    1.5890813138   -0.0823115054
 C    0.0228063830    0.0623396584   -0.0170645618
 C    0.7331918722   -0.4725920105   -1.2634361942
 O   -0.0417541899   -0.1278709637   -2.4047537420
 C    0.7480374869   -0.4387316178    1.2503721959
 O    2.1019836950    0.0212130223    1.3075769007
 C   -0.0028705568   -0.1273202700    2.5489618263
 C    0.6297393725   -0.7889168115    3.7672266468
 O   -0.1128593889   -0.3902747442    4.9110461250
 H    0.8568899011    2.0838220572   -0.0352585711
 H   -0.5812889631    1.8743335877   -1.0302719276
 H   -0.7406986966    1.9786218008    0.7303469080
 H   -0.9830264116   -0.3791506945   -0.0090349778
 H    1.7446814479   -0.0450206841   -1.3174631892
 H    0.8433718050   -1.5661649144   -1.1810176263
 H    0.4632572187   -0.3571179069   -3.1897271335
 H    0.8474803924   -1.5295397744    1.1645323559
 H    2.0798348916    0.9710483134    1.4676091330
 H   -0.0314579597    0.9561521623    2.7206586924
 H   -1.0447315235   -0.4577448629    2.4632376650
 H    0.6132126222   -1.8845233878    3.6430764048
 H    1.6834660438   -0.4853336258    3.8414194500
 H    0.3071333020   -0.7712009473    5.6875404052