19

 C    0.2806900328    1.4292210765    0.2355866582
 C    0.0497694478   -0.0433985098   -0.1117327814
 C   -1.4040790094   -0.4915156187    0.0095490888
 C   -1.6678677943   -2.0211664795   -0.1431015948
 C   -2.2183210443   -2.0301450824    1.3098279910
 N   -1.9349319969   -0.5927090743    1.3877716952
 C   -2.5600557527    0.3099580008    2.1816618272
 O   -3.2398446510    0.0196860756    3.1452700326
 H    1.3316934926    1.7027128995    0.1037210509
 H   -0.3176210278    2.0881351917   -0.4035479607
 H    0.0136234731    1.6372029712    1.2764069145
 H    0.3679179159   -0.2363199741   -1.1448292151
 H    0.6681360561   -0.6812850991    0.5319724867
 H   -2.0401194155    0.1312377321   -0.6333805222
 H   -2.3975830199   -2.2846776138   -0.9091188702
 H   -0.7623921051   -2.6113734187   -0.2945715709
 H   -3.2830179939   -2.2573728550    1.4184068401
 H   -1.6576992327   -2.6311744240    2.0320324942
 H   -2.3738766448    1.3546334021    1.8587729859