18

 C   -0.0058248527    1.4486946434    0.0529205135
 C    0.0150050071   -0.0544635674    0.0050877969
 C    0.5814062931   -0.9846413663   -1.1201625978
 C    0.0425412100   -1.9614908357   -0.0382422304
 C    0.6915401718   -1.0173213297    1.0246025120
 O    2.0938175325   -0.9051669836    1.0913160747
 C   -1.1984276076   -1.0203367776    0.0359875518
 O   -1.9876781404   -0.9657291681    1.2012325517
 H    1.0122788165    1.8478583231    0.1037936691
 H   -0.4907770781    1.8670592830   -0.8357700608
 H   -0.5537335158    1.7999685823    0.9336651860
 H    0.0514242890   -0.9668937912   -2.0774357076
 H    1.6612305926   -0.9673275928   -1.2501944244
 H    0.0500411577   -3.0525735189   -0.0648968364
 H    0.2415769969   -1.0441844542    2.0201093124
 H    2.4162126360   -1.5569416842    1.7202194670
 H   -1.8182202415   -1.0067343407   -0.8703150083
 H   -2.6119608770   -1.6970579414    1.1755270005