18

 C   -0.0609312662    1.4704538108   -0.0873461260
 C    0.0059036089   -0.0767708489    0.0528388532
 C    0.7259801576   -0.4298370648    1.2854995621
 C    1.3490264517   -0.6973339829    2.2769823478
 C   -1.3613932171   -0.6149762246    0.0990356159
 C   -2.4894111082   -1.0302889179    0.1015936162
 C    0.7856226925   -0.6517150195   -1.1516715100
 C    0.5997769461   -2.0408152120   -1.6183932941
 N    0.1282895335   -0.9018094030   -2.4352092397
 H    0.9519480680    1.8805726305   -0.1075941676
 H   -0.5717015794    1.7354773921   -1.0163204896
 H   -0.6007551842    1.9076842963    0.7546888414
 H    1.8887001118   -0.9441581341    3.1578081368
 H   -3.4845125502   -1.4015010175    0.1297108384
 H    1.7705707606   -0.1983762273   -1.2372860104
 H    1.4406855811   -2.5884547015   -2.0330841775
 H   -0.1440591042   -2.6482203630   -1.1112815571
 H   -0.8808991426   -0.8168400925   -2.3200165898