18

 C   -0.2846839926    1.2992773960   -0.0929007873
 O    0.2355026311   -0.0050444909    0.0854901821
 C    0.8047800648   -0.5391102936   -1.0657172706
 C   -0.1045147845   -1.1033284194   -2.1270467022
 C    0.7624744017   -2.0340052534   -1.2800166609
 C    2.0890316454   -2.3852282410   -1.8630216119
 C    2.8652055918   -1.3074534244   -2.0058989989
 C    2.1971509557   -0.0515090177   -1.4866820479
 H    0.5025341096    2.0250296174   -0.3431512092
 H   -1.0458522332    1.3255956378   -0.8856743133
 H   -0.7436562846    1.5925500120    0.8541997985
 H   -1.1635531287   -1.0927066737   -1.8906847800
 H    0.1414527057   -0.9821850379   -3.1774038105
 H    0.2655888415   -2.6884587858   -0.5731568355
 H    2.3551160943   -3.3950273281   -2.1538417902
 H    3.8564910345   -1.2990103929   -2.4443885883
 H    2.1624386872    0.7438222637   -2.2413776665
 H    2.7261902903    0.3587396318   -0.6153695873