18

 C   -0.1049824829    1.5829562988   -0.0448462123
 C    0.0438064632    0.0573453816   -0.0285654906
 C    0.7431993948   -0.4569074706   -1.2903081213
 O   -0.0857171790   -0.1328873015   -2.3966711468
 C    0.7753735662   -0.4703377468    1.2299169288
 N    2.1520926442    0.0288016542    1.3099932223
 C   -0.0141529373   -0.1807088249    2.4485754901
 N   -0.5941084170    0.0649529794    3.4185498461
 H    0.8709156500    2.0805653341   -0.0792966152
 H   -0.6554598738    1.8839872379   -0.9378424780
 H   -0.6464185207    1.9411778353    0.8356237996
 H   -0.9594619144   -0.3860544377   -0.0166676226
 H    1.7363939969    0.0034573713   -1.3766344318
 H    0.8903570501   -1.5469739336   -1.2135709493
 H    0.4035541080   -0.3157308475   -3.2035365251
 H    0.8348189413   -1.5624467459    1.1471956954
 H    2.1484548855    1.0230053624    1.5174929116
 H    2.6383777250   -0.4206675461    2.0797342792