23

 C   -0.7089773106    1.2369194470   -0.0996985007
 C    0.1586672981   -0.0166063315   -0.0114558750
 C    1.3150898383   -0.0540574699   -1.0289386995
 O    2.3408856984   -0.8624328505   -0.4555931208
 C    1.9292029529   -1.3173264174    0.8434807636
 C    3.1995206301   -1.5302606748    1.6538887947
 O    4.0332686760   -2.4939723883    1.0361277025
 C    0.8949376075   -0.2858181721    1.3288137881
 C    1.5062700161    0.9650493895    1.9729333863
 H   -0.1203383053    2.1496549606    0.0341056077
 H   -1.1960962193    1.3012425512   -1.0786384497
 H   -1.4981863015    1.2291972021    0.6592029741
 H   -0.4807547262   -0.8883757875   -0.2000561246
 H    1.0053822118   -0.4754684103   -1.9936264872
 H    1.7165145327    0.9521476669   -1.2171558206
 H    1.4368679478   -2.2983432429    0.7364516653
 H    3.7262281671   -0.5729915061    1.7783161686
 H    2.9511989802   -1.9150551316    2.6493470574
 H    4.1262333328   -2.2095855676    0.1191949855
 H    0.2110035383   -0.7532931145    2.0456439623
 H    2.2199799207    1.4621775230    1.3080916400
 H    0.7288027799    1.6893858129    2.2317978002
 H    2.0347712242    0.7130466818    2.8968804719