21

 C   -0.0167794224    1.4075584881   -0.2984757130
 O   -0.1355631339    0.2037762080    0.4283856595
 C   -1.3053631030   -0.5078568209    0.1340408053
 C   -1.2942488018   -1.3821234848   -1.1428630635
 O   -1.4030431930   -2.5895006487   -0.3643184627
 C   -1.4110677176   -1.8540417072    0.8885024381
 C   -0.2721652622   -2.2471455559    1.8124931670
 C   -0.3733521857   -3.7096961981    2.2525071232
 O    0.6665035285   -4.0844026522    3.1439647540
 H    0.9076295717    1.8911227510    0.0248168824
 H    0.0372613463    1.2311760573   -1.3832920995
 H   -0.8631470043    2.0834021002   -0.1004071419
 H   -2.1859359695    0.1427343797    0.2318363015
 H   -2.1417537944   -1.2561878084   -1.8276223753
 H   -0.3555212665   -1.3353806448   -1.7095313933
 H   -2.3764769484   -1.9891328016    1.3968357880
 H    0.6809598532   -2.0743445254    1.3001371382
 H   -0.2833689670   -1.5991575442    2.6965965761
 H   -1.3063415542   -3.8726304115    2.8042611804
 H   -0.4012070670   -4.3600957221    1.3665978234
 H    1.4980520411   -4.0218492787    2.6634499121