14

 N    0.0223693845    1.3922798557    0.1605509595
 C   -0.0186157986    0.0178346236    0.0567240519
 C   -1.1772660468   -0.6987278978    0.0359627502
 C   -1.1894170810   -2.1362499841   -0.0051100688
 N   -2.2374735446   -2.8561158305   -0.0207121324
 O    0.0765304273   -2.7642272050   -0.0378330714
 C    1.2064337179   -2.0392869638   -0.0206495064
 C    1.2386284310   -0.6992314483    0.0255259382
 H    0.8445567459    1.8495034881   -0.2014215011
 H   -0.8333445993    1.8849379339   -0.0452001668
 H   -2.1484822392   -0.2201771659    0.0535674421
 H   -1.9932009683   -3.8450798666   -0.0561097045
 H    2.0873779980   -2.6701521723   -0.0478234115
 H    2.1865548033   -0.1774899670    0.0507815510