19

 C   -0.2037929040    1.4647075435    0.4454223695
 C    0.0351926839    0.0304450283    0.0160573413
 C    1.4011491868   -0.3532886305   -0.4863652912
 C    0.9337652513   -0.8252399076    0.8722303890
 C   -1.2094087231   -0.6172371343   -0.6394859486
 C   -1.6010369261    0.1009645314   -1.8613722599
 C   -1.9159820608    0.7005229734   -2.8533091912
 C   -1.0564737725   -2.0485242822   -0.9222638428
 C   -0.9386662367   -3.2223410763   -1.1489736552
 H    0.6997144141    1.8862624318    0.8950226329
 H   -0.4845646259    2.0925915706   -0.4058016438
 H   -1.0066633175    1.5275052911    1.1902943449
 H    1.4642909534   -1.0959968437   -1.2737627591
 H    2.1568734872    0.4231016970   -0.5368162491
 H    1.3623343700   -0.3651809473    1.7563379228
 H    0.6982290299   -1.8775304026    0.9789861393
 H   -2.0342283281   -0.5143263359    0.0832001281
 H   -2.1974323739    1.2224301365   -3.7342937441
 H   -0.8404829878   -4.2594355531   -1.3558917227