16

 O   -0.1800879062    1.4302866526    0.0685652056
 C   -0.0281266864    0.0803294846    0.0214068669
 C   -1.0526184764   -1.0115456504   -0.0601923343
 C   -0.4184415367   -1.6185653414   -1.3020813948
 C    0.9088533505   -0.9141904617   -0.8564001065
 N    1.3079802731   -1.5600793268    0.4359213932
 C    0.0887950757   -1.0157465694    1.0255744756
 C    1.9335992600   -0.5748835406   -1.7961502979
 C    2.7759598505   -0.2642860807   -2.5970891429
 H    0.6001442609    1.8128332760    0.4883610639
 H   -2.0959852597   -0.9632161649    0.2214470255
 H   -0.3694094850   -2.7090214489   -1.4043246128
 H   -0.8124933257   -1.1734056383   -2.2180003095
 H    1.3198649314   -2.5795970559    0.3625314053
 H   -0.1193112668   -1.0233668322    2.0874613388
 H    3.5247263009    0.0029815681   -3.3010568760