21

 C   -0.6930960487    1.3716142466    0.1578764809
 C    0.0655797809    0.0518734731   -0.0186416891
 C    1.0251086573    0.1075475543   -1.2384991872
 C    2.3338038343   -0.6686863986   -1.0583218655
 O    2.9966009256   -1.0484199619   -1.9944668177
 C    2.7172690952   -0.9072661731    0.3870739878
 C    1.5451222692   -1.7118825097    1.0395942532
 C    0.8410137481   -0.3463491493    1.2515725211
 C    2.2595670914    0.2924811066    1.2704637928
 H   -0.0070076929    2.1914024236    0.4016791315
 H   -1.2252447545    1.6476424064   -0.7584571456
 H   -1.4293015322    1.3006553830    0.9653675147
 H   -0.6735004344   -0.7392492216   -0.2022297241
 H    0.5480276153   -0.2190720128   -2.1657689513
 H    1.3299791616    1.1492984415   -1.4117473619
 H    3.7353572081   -1.2898812581    0.4594942722
 H    1.0380196399   -2.4680725920    0.4322753273
 H    1.8654906575   -2.1633971234    1.9818765748
 H    0.2159144733   -0.2308526867    2.1409128166
 H    2.7140883963    0.2357837925    2.2625542673
 H    2.3882527788    1.3055569995    0.8790773323