18

 C    0.0707745168    1.5306651796    0.0812726434
 C    0.0150467155    0.0351669457   -0.0546281524
 C    0.0710021598   -0.5797456321   -1.2469297843
 C   -0.0216557552   -2.0105898407   -1.5140799106
 C    0.0713802648   -3.0469628510   -0.6672102791
 C    0.4049640636   -3.0417458972    0.7961408433
 O    0.8226557458   -1.8153047982    1.3437462792
 C   -0.1127878664   -0.7517585197    1.2317918907
 H    0.9502258145    1.8421406043    0.6606609724
 H    0.1097186767    2.0250047340   -0.8926709362
 H   -0.8050387420    1.9154924826    0.6212978708
 H    0.1524803955    0.0464895048   -2.1332523676
 H   -0.2181791864   -2.2560452965   -2.5560489935
 H   -0.0817776883   -4.0476724185   -1.0689926991
 H   -0.4484823391   -3.4596506731    1.3637271528
 H    1.2450339937   -3.7282109207    0.9692655713
 H    0.0748644192   -0.0951426318    2.0883734765
 H   -1.1411162587   -1.1358374316    1.3356445623