21

 C    0.0960189032    1.4588261721   -0.0997442378
 C   -0.0051089935   -0.0303720114   -0.0379548687
 C   -1.0512610220   -0.7910586339    0.2735626748
 C   -0.7054901077   -2.2537402488    0.1977387952
 C   -0.8931818400   -3.0086614183    1.5165695625
 C   -1.4256931190   -2.9731440493   -0.9625971304
 O   -0.8794232577   -4.2571465202   -1.1855307960
 O    0.7053016364   -2.2555251564   -0.1396239193
 C    1.1683982237   -0.9263152062   -0.3485495035
 H    0.8591723594    1.8335325504    0.5939611836
 H    0.3929381335    1.7946366779   -1.1013090510
 H   -0.8546052758    1.9361216955    0.1503865840
 H   -2.0398276342   -0.4396502943    0.5441949227
 H   -1.9413364953   -2.9734742518    1.8321076214
 H   -0.6104060974   -4.0560064350    1.3875282650
 H   -0.2772874556   -2.5624341631    2.3011027760
 H   -2.4874918399   -3.1102750501   -0.7297455933
 H   -1.3540455470   -2.3425657240   -1.8626213129
 H    0.0742968650   -4.1182892937   -1.2495725166
 H    1.5194606354   -0.7980552253   -1.3859562661
 H    2.0310623984   -0.7263258039    0.3066998106