21

 C    0.0290988832    1.5797420321    0.1268445590
 C   -0.0513560306    0.0576584106   -0.0189716951
 C    0.7812801544   -0.4784667765   -1.1871545762
 C    0.7017833219   -2.0076709152   -1.3378782105
 C    1.4657650284   -2.5207267452   -2.5185168590
 C    2.5745252124   -3.3280903931   -2.5417243973
 N    2.8916013818   -3.4886480370   -3.8747962927
 C    1.9741215302   -2.7816976492   -4.5909211392
 N    1.1032648152   -2.1877062668   -3.8101943871
 H    1.0609702813    1.9072024730    0.2968101454
 H   -0.3301363345    2.0824428840   -0.7779695187
 H   -0.5752701219    1.9350723875    0.9676469860
 H    0.2804787838   -0.4176562378    0.9143070531
 H   -1.0990720330   -0.2426422596   -0.1542654740
 H    0.4482708411   -0.0189389003   -2.1253047793
 H    1.8315223132   -0.1843083582   -1.0577022401
 H    1.0747708748   -2.4910548025   -0.4266673758
 H   -0.3522018487   -2.2983742062   -1.4380896549
 H    3.1510949645   -3.7928575733   -1.7591643004
 H    3.6523845434   -4.0323467880   -4.2451447038
 H    1.9923214192   -2.7413285982   -5.6700895593