22

 O   -0.4965582380    0.9415140112    0.1057688545
 C   -0.2664330685   -0.4536054762   -0.0553551910
 C    0.6604592336   -0.7476074936   -1.2446361824
 C    0.0872889137   -0.2944371574   -2.5724078941
 C    0.2707490849    1.1355915538   -3.0481652519
 C    0.9924709953    0.0042047962   -3.7366547223
 C    0.3074544655   -0.9768847099    1.2478226691
 C    1.2439587397   -0.1544558580    2.0503492310
 N   -0.1305401417   -0.4105540814    2.5281832730
 H   -0.7764220732    1.2888007941   -0.7466424414
 H   -1.2295533916   -0.9658271094   -0.2319456202
 H    1.6241937438   -0.2547298035   -1.0669705382
 H    0.8551899201   -1.8277758221   -1.2767953783
 H   -0.8662210829   -0.7528773500   -2.8266201768
 H   -0.5441670767    1.6191971483   -3.5762462417
 H    0.8613050207    1.8041598429   -2.4299066578
 H    2.0624791560   -0.0810437138   -3.5782362741
 H    0.6660476186   -0.2815889677   -4.7301580181
 H    0.4221471726   -2.0593987320    1.2599881198
 H    2.0290962436   -0.6323632858    2.6294463612
 H    1.4755641040    0.8406187364    1.6841247058
 H   -0.6897382195    0.4159903378    2.3247701738