16

 C   -0.0240979287    1.5228084063    0.0473035402
 C   -0.0073273425    0.0207562097    0.0445321640
 C    0.8028342221   -0.7739746942   -0.9965487784
 C    1.6919289110   -1.4280121329   -0.0132031054
 C    0.7385555058   -0.9267424247    1.1053080362
 C   -0.2977701805   -2.0055323298    0.6319845741
 N    0.5693053275   -2.2238532762   -0.5915166622
 C   -1.2536495727   -0.8545476755    0.2843605827
 O   -2.4241967043   -0.6423058035    0.4014955677
 H    0.9904079554    1.9340258429    0.0745193153
 H   -0.5154307680    1.9031026156   -0.8549466362
 H   -0.5764154620    1.9064195265    0.9105378941
 H    0.9337122362   -0.5701179855   -2.0519999592
 H    2.7270261338   -1.7433826044   -0.0517184307
 H    0.9350430844   -0.6302838061    2.1312772099
 H   -0.5863726375   -2.9145745082    1.1523377378