16

 C   -0.0373043048    1.5113363355    0.1083630826
 C    0.0102684031    0.0242120847    0.0159755103
 C    0.0312908763   -0.8007885636   -1.1053287020
 C    0.0127537201   -0.4379187036   -2.4670933277
 C   -0.0007045037   -0.2037338312   -3.6516578617
 C    0.0774779096   -2.1563799476   -0.6318548752
 O    0.1095181992   -3.2687047531   -1.4075271344
 C    0.0833178366   -2.1265607478    0.7368888511
 N    0.0419800284   -0.7891565213    1.1065493614
 H    0.8370007339    1.9199444192    0.6299005762
 H   -0.0558567751    1.9373354960   -0.8968703267
 H   -0.9311353502    1.8628541747    0.6383385483
 H   -0.0132629820    0.0257635731   -4.6878950419
 H    0.0957516546   -2.9787880171   -2.3281551889
 H    0.1124817439   -2.9195650192    1.4633936569
 H    0.0364642901   -0.4637599887    2.0571466218