16

 O    0.6982648581    1.0373353406   -1.4198992299
 C    0.3376169763    1.4714767127   -0.3442148968
 N    1.0873323358    1.4529889090    0.7875844672
 C    2.4763280470    0.9907605036    0.7669499633
 C    3.4599263249    2.0252847991    0.2932941346
 C    3.7022954987    2.3795559218   -0.9995074989
 O    4.6364066170    3.3626387356   -1.0608852605
 C    5.0036191304    3.6431578438    0.2171383978
 C    4.3181752291    2.8602170255    1.0890757433
 H   -0.6644029375    1.9130961071   -0.1757512257
 H    0.7543712732    1.9645352300    1.5893113376
 H    2.7325470523    0.6555216864    1.7755360088
 H    2.5012502267    0.1203094168    0.1076910465
 H    3.2867902148    2.0464183476   -1.9356596208
 H    5.7546250564    4.4070559619    0.3315625355
 H    4.4121434068    2.8613948285    2.1646139380