19

 C    0.0779204783    1.4723802546    0.0407975948
 C   -0.0186117278   -0.0319915347   -0.1857624415
 N   -1.3720438775   -0.5025722802    0.1048676749
 C   -1.6724528407   -1.8363458097    0.0925606286
 C   -2.8747074621   -2.5036819495    0.0422285648
 C   -4.2523771663   -1.9286304565   -0.0620154319
 C   -2.4629170197   -3.8557827419    0.1309495243
 N   -1.1650941107   -4.0171298600    0.2211546602
 O   -0.6514611696   -2.6973356479    0.1918918403
 H    1.0936066060    1.8217100933   -0.1627281899
 H   -0.5990863068    2.0188804518   -0.6262355195
 H   -0.1783963769    1.7296086824    1.0725043213
 H    0.2821406802   -0.2828756400   -1.2143925563
 H    0.6672909952   -0.5624186361    0.4800079322
 H   -2.1129714410    0.0824348905   -0.2537664141
 H   -4.3520022112   -1.2414794645   -0.9125721210
 H   -4.9905114497   -2.7220238135   -0.2071615071
 H   -4.5448559429   -1.3735169988    0.8382030164
 H   -3.0921739166   -4.7368904695    0.1308552536