13

 C    0.0728490280    1.4488329349    0.0468095936
 C   -0.0766658023   -0.0268916337    0.0057354133
 C   -1.1643069932   -0.8294537075   -0.2460272510
 C   -0.6584001907   -2.1577528744   -0.1360589246
 C    0.6702781071   -2.0380940744    0.1671626511
 O    1.0697375403   -0.7511622678    0.2635736457
 N    1.2302925587   -3.2535248002    0.2875621326
 N    0.3630838909   -4.1405899221    0.0856504147
 O   -0.9677250194   -3.4336130172   -0.2133175679
 H    0.8075751768    1.7911163416   -0.6900329459
 H   -0.8848587907    1.9258122483   -0.1693290950
 H    0.4149330374    1.7830443581    1.0322893802
 H   -2.1610458528   -0.4883463857   -0.4711073669