19

 C    0.0453556749    1.4286522701   -0.0315615055
 C    1.4048447127    2.1506162956    0.0674155448
 C    2.3197904446    1.6673274365    1.2081872268
 O    2.7940232505    0.3524113916    0.9122750134
 C    1.8958050587   -0.5718664529    1.5276019143
 C    1.3685927931    0.2023912563    2.7264864463
 C    1.6045326479    1.4952500176    2.5321690926
 C    0.7625819186   -0.9568995021    0.5911115962
 C    0.0131452357   -0.0841088239   -0.0874702725
 H   -0.5707962223    1.7363083167    0.8273512837
 H   -0.4742744600    1.8171205011   -0.9144445844
 H    1.9668608964    2.0221030706   -0.8642560325
 H    1.2142966455    3.2258196875    0.1818353365
 H    3.1947390314    2.3258004375    1.2738588960
 H    2.4749948011   -1.4596423424    1.8037730100
 H    0.8230074718   -0.2582245385    3.5395230409
 H    1.2990401939    2.3207748208    3.1624153933
 H    0.5610118154   -2.0198982368    0.4809092655
 H   -0.7692139498   -0.4930121351   -0.7244661853