18

 C    0.0391055209    1.4242611663   -0.0564011471
 C   -0.0763616064   -0.0749975558    0.0393264302
 O    0.9693435641   -0.6758456855   -0.7330076989
 C    0.6655705208   -1.8203593185   -1.3966041121
 N   -0.2973362039   -2.6123027889   -1.1797104391
 C   -1.1454308314   -2.2355831466   -0.0562127909
 C   -0.4174633927   -2.1935770949    1.3367984498
 C   -0.5455767039   -0.6713595594    1.3390320963
 C   -1.4136881358   -0.7208362254    0.0610593928
 H    1.0203840177    1.7545640571    0.2980223779
 H   -0.0794626617    1.7561926658   -1.0922159766
 H   -0.7285568244    1.9085757814    0.5527890884
 H    1.3949352287   -2.0084838605   -2.1817089283
 H   -2.0423810930   -2.8536705309   -0.0567436948
 H   -1.0197903494   -2.6587963253    2.1207040758
 H    0.5918996840   -2.6125916922    1.3636703454
 H   -0.6651410274   -0.0457312782    2.2162673352
 H   -2.3305511562   -0.2093893885   -0.2044320940