15

 C   -0.0396230796    1.5357224351    0.0505698097
 C   -0.0335542086    0.0287051411   -0.1806488677
 N   -1.3393757910   -0.5392730538    0.1409748922
 C   -1.5477226309   -1.8920130001    0.0603029967
 N   -2.7323832442   -2.4239931587   -0.1374242792
 O   -2.5338305365   -3.7888430879   -0.0814914395
 N   -1.2295231896   -4.0928789616    0.1324173306
 C   -0.6023613687   -2.9545189985    0.2226542387
 H    0.9437490843    1.9584851951   -0.1708065697
 H   -0.7681455689    2.0312144848   -0.6010471371
 H   -0.2950722884    1.7690322243    1.0879601536
 H    0.2646887881   -0.1923492818   -1.2178315290
 H    0.7126850752   -0.4378678047    0.4724387135
 H   -2.1281609634    0.0005255578   -0.1885782240
 H    0.4612222623   -2.9188095911    0.3945144309