13

 N   -0.0192679323    1.3259455832    0.0080563548
 C    0.0053323279   -0.0205604655    0.0008561023
 N   -1.1784385017   -0.6587108297    0.0039456110
 C   -1.0853758354   -1.9882994648   -0.0034542305
 N    0.0551892933   -2.6994984215   -0.0134776480
 C    1.1537298259   -1.9435033916   -0.0154605500
 N    1.2138140797   -0.6188905091   -0.0088249425
 C   -2.3141518735   -2.7275894810   -0.0009389535
 C   -3.3421529173   -3.3503928066    0.0011503772
 H    0.8460338871    1.8353234715    0.0060506233
 H   -0.9021406208    1.8043971651    0.0153646291
 H    2.1053154205   -2.4717942266   -0.0234420742
 H   -4.2496953733   -3.9026768132    0.0030192708