23

 C   -0.0053010930    1.5032306281    0.0629773360
 C   -0.0667004972    0.0133569389   -0.0120875109
 C   -0.0737528760   -0.7840915787   -1.0870087041
 C    0.0006257024   -2.2355292742   -0.6225456671
 C   -0.4384474204   -3.2950906895   -1.6186303393
 C    1.4537428133   -2.4179205270   -0.0537853764
 C    1.4666257097   -1.4975899086    1.2029197523
 C    0.0181515480   -0.9015268909    1.2072753268
 C   -0.7888217048   -2.1171495416    0.7071931738
 H    0.9084534262    1.8390441574    0.5713711506
 H   -0.0230846164    1.9577409065   -0.9318876843
 H   -0.8459920317    1.9107058335    0.6392271009
 H   -0.0217916436   -0.4764162992   -2.1261093966
 H    0.1976396298   -3.2906737986   -2.5114360761
 H   -0.3826749255   -4.2976881117   -1.1798660152
 H   -1.4701473019   -3.1282129506   -1.9466094245
 H    1.6237072191   -3.4655479999    0.2182791868
 H    2.2112776598   -2.1435540086   -0.7924739692
 H    1.6464412294   -2.0733826655    2.1162069531
 H    2.2297409748   -0.7163029136    1.1529519447
 H   -0.2793461006   -0.4548048466    2.1580419625
 H   -1.8470509568   -1.8924494036    0.5476195792
 H   -0.6923665044   -3.0020844860    1.3476536470