20

 C    0.1447247267    1.4244356609   -0.2911976833
 C    0.0117350845   -0.0374996320    0.1528241726
 O    0.5394054172   -0.2014391231    1.4694908030
 C   -1.3984040227   -0.5688879746    0.0605092186
 C   -2.0913456627   -1.1192960947    1.1160214328
 N   -3.3259190273   -1.5054674443    0.6633186119
 C   -3.4311228124   -1.2224567377   -0.6740611120
 C   -2.2557622313   -0.6384933566   -1.0902046051
 C   -1.9593742584   -0.1963040142   -2.4936222147
 H    1.1780066216    1.7579361476   -0.1582553855
 H   -0.1308826605    1.5562135523   -1.3405253178
 H   -0.5124217438    2.0658479044    0.3081909801
 H    0.6733985836   -0.6490308697   -0.4759556126
 H    0.0466811214    0.3960107833    2.0437271823
 H   -1.7841563730   -1.2969049047    2.1329316408
 H   -4.0333582128   -1.9505211759    1.2198232506
 H   -4.3268379160   -1.4581169797   -1.2276251224
 H   -1.9436066695    0.8954035844   -2.5978011679
 H   -0.9867648191   -0.5639962394   -2.8413937642
 H   -2.7171822055   -0.5748376063   -3.1863581872