16

 C    0.0008627134    1.5500143860    0.0163893814
 C    0.0073680119    0.0451839485    0.0146858739
 C   -1.1366977750   -0.6738802312    0.0273713008
 N   -2.4241924239   -0.1965744738    0.1122844210
 O   -1.1428169391   -2.0452750738    0.0137918874
 C    0.0739273725   -2.6538644763   -0.0017910158
 N    1.2080583780   -2.0974289112    0.0027049946
 C    1.2764571111   -0.6755389115    0.0206559358
 N    2.4018636266   -0.0648289228    0.0350167823
 H    0.9883208589    1.9054322773   -0.2810113402
 H   -0.7400125243    1.9621639326   -0.6809704055
 H   -0.2142452613    1.9616569667    1.0102580652
 H   -2.5357989177    0.7749790316   -0.1336460800
 H   -3.1240110184   -0.8010358737   -0.2938945903
 H   -0.0501502138   -3.7327410078   -0.0176539755
 H    3.1514427212   -0.7577303407    0.0259404649