21

 C    0.1521616927    1.4897967008    0.0844051795
 C   -0.0083048617   -0.0018432487   -0.0269439724
 C   -0.0719925838   -0.6377556235   -1.2014762784
 C   -0.2049509731   -2.1346241845   -1.3155554820
 C   -0.9269496997   -2.7767118895   -0.1166824562
 O   -0.7170134378   -4.1868865750   -0.0781298645
 C   -0.4887277135   -2.2123099603    1.2133140626
 C    0.9420716758   -1.8677374619    1.5123898741
 C   -0.0705343265   -0.7594818714    1.2557365198
 H    1.0639960741    1.7480532991    0.6379930966
 H    0.2030264934    1.9648921103   -0.8987367505
 H   -0.6836922622    1.9378215963    0.6373241713
 H    0.0094606705   -0.0703734856   -2.1250799143
 H   -0.7392419638   -2.3985567673   -2.2373874877
 H    0.7831044566   -2.6091404333   -1.4002472094
 H   -2.0045819301   -2.5643859085   -0.2150821598
 H   -1.0661628712   -4.5576506299   -0.8952899801
 H   -1.0789589189   -2.5718347714    2.0505359208
 H    1.2950530514   -2.0124543951    2.5276264536
 H    1.6929638247   -2.0368813165    0.7491665927
 H   -0.3783148971   -0.1817931239    2.1223287242