16

 C   -0.3192130928    1.5034724213   -0.1784228369
 N   -0.1851017144    0.0800237419    0.0414314287
 C   -1.2748383330   -0.6485620670    0.7169903678
 C   -0.2087464683   -1.5248846565    1.4148219782
 C    0.8004148360   -0.3998235245    1.0244130846
 C    2.1153301407   -0.8609769848    0.4382925986
 O    3.1749247529   -0.8150089375    1.0079606154
 H    0.6070846255    1.9038355075   -0.6035015266
 H   -1.1251827544    1.6909964186   -0.8955969918
 H   -0.5445786087    2.0662841239    0.7466446768
 H   -1.8313737056   -0.0253864280    1.4362711646
 H   -1.9898759761   -1.1369901146    0.0466965865
 H   -0.3242339126   -1.7210552365    2.4797270543
 H   -0.0161071548   -2.4611417213    0.8864503785
 H    0.9923403309    0.2903556554    1.8604431085
 H    2.0099064947   -1.2853009978   -0.5871519171