18

 N   -0.1106905356    1.3222514698    0.1006328817
 C    0.0032760410    0.0712807632   -0.0519495477
 C   -1.2397707187   -0.8001963745   -0.0396648424
 C   -1.4528337332   -1.6417753176   -1.3005378621
 O   -2.2414303360   -1.3090939226   -2.1502570219
 C   -0.6487866957   -2.9317877116   -1.4146615208
 C    0.7132599511   -2.9041051136   -0.7064901828
 C    1.5172768422   -1.6275422382   -0.9697627514
 O    1.2322091639   -0.5266743996   -0.0957870333
 H    0.8165191468    1.7538570235    0.0965353609
 H   -1.1772627577   -1.4673769166    0.8294666788
 H   -2.0922006581   -0.1324707603    0.0717342351
 H   -1.2731202777   -3.7360183382   -1.0025454309
 H   -0.5376153312   -3.1463916778   -2.4819643495
 H    0.6090479585   -3.0312344034    0.3766695748
 H    1.3060974538   -3.7552618571   -1.0581023199
 H    2.5802001362   -1.8136352853   -0.8010525438
 H    1.3983694804   -1.3045571699   -2.0138852949