18

 C    0.1343238103    1.4508248382    0.0387567219
 C    0.0284048281   -0.0771672822    0.0030537857
 C    0.4813257562   -0.6416226547   -1.3276333440
 O    1.9269462944   -0.4130320045   -1.5541500431
 C    2.1802829274   -1.7569857742   -1.6647074037
 N    3.2461357891   -2.3963054966   -1.8248518555
 C    0.7268714366   -2.1627282819   -1.5026264221
 C    0.4134856081   -3.1656178447   -0.4140017610
 O   -0.4645356423   -3.0461202681    0.4002339514
 H    1.1642365017    1.7740325654   -0.1379646193
 H   -0.4989675818    1.9113844691   -0.7276429253
 H   -0.1820673909    1.8391051175    1.0106954284
 H    0.6285865660   -0.5185592948    0.8052865461
 H   -1.0020821661   -0.4035351325    0.1767106230
 H   -0.0768635211   -0.1941099525   -2.1560716153
 H    4.0546150322   -1.7749957502   -1.8817552089
 H    0.3224704748   -2.5692379747   -2.4376749458
 H    1.0698051673   -4.0613944385   -0.4423096325