20

 O   -0.3906254190    1.4293806927   -0.0953844493
 C   -0.1637311944    0.0436918171   -0.1024518984
 C   -1.5051854315   -0.6861094240   -0.2851930446
 C   -1.5335012245   -2.1033489805    0.3068083364
 C   -0.2686616150   -2.9340309983    0.0178759784
 C    0.3414476616   -2.6899050123   -1.3600311370
 O    1.2397390662   -1.5673545259   -1.4389603383
 C    0.8810921954   -0.2900236627   -1.1704570863
 N    1.4806321519    0.6841862219   -1.7199788840
 H    0.3072629611    1.8043393515   -0.6605776947
 H    0.2729119494   -0.2702463415    0.8640075844
 H   -2.2602584874   -0.0657569329    0.2048655279
 H   -1.7686851721   -0.6977380952   -1.3495116993
 H   -1.6739082469   -2.0439703115    1.3919357065
 H   -2.4121808416   -2.6281953803   -0.0848998812
 H    0.5099565120   -2.7390263346    0.7639133762
 H   -0.5054114798   -4.0008806874    0.1002039085
 H    0.9781165939   -3.5301816569   -1.6457995505
 H   -0.4344304270   -2.5845186118   -2.1291453235
 H    2.1682933978    0.3646723925   -2.4012748612