15

 O   -0.0156362546    0.1187113259   -0.7632884323
 C   -0.0442204089    1.2053869871   -0.2716961208
 C   -1.1605541293    2.1675894617    0.2264363925
 O   -1.3646590312    2.0267673167    1.6499291694
 C   -0.5034500183    3.1581515912    1.9371694435
 C   -0.0753736922    3.2699036184    0.4643673163
 C    1.0159821358    2.2632928497    0.0606652912
 C    2.4005187569    2.0907447239    0.5249092324
 O    2.1077257484    2.5556127576   -0.7909760920
 H   -2.0854037468    2.2668902664   -0.3460939568
 H   -1.0880812313    4.0096028543    2.3044176554
 H    0.2792003163    2.9124474668    2.6634988579
 H   -0.0566211374    4.2372282656   -0.0318703125
 H    2.8252555174    2.8311892860    1.2013461367
 H    2.8180149150    1.0874322686    0.5855341089