20

 C    0.0492181476    1.5003383449    0.0133714974
 C    0.2790812003    0.0002060847    0.0444846523
 O    0.3817944561   -0.4606916799   -1.3016600361
 C    0.6077176749   -1.8341960077   -1.3953973900
 C    0.8531524663   -2.3211304724   -2.8490943311
 N    2.1657241061   -2.7971427206   -2.4027520469
 C    3.2494269373   -3.4350902350   -3.1017950367
 C    2.0622571062   -2.3303646799   -1.1177036301
 O    2.8345983412   -2.3189335989   -0.1917359524
 H    0.8877719153    2.0073005404   -0.4722517256
 H   -0.8639172462    1.7397738756   -0.5392514822
 H   -0.0479566946    1.8890205264    1.0313543917
 H    1.1948122556   -0.2500130976    0.5954450961
 H   -0.5590478092   -0.5130161216    0.5448110902
 H   -0.1523548125   -2.4122698652   -0.8481484475
 H    0.1864829632   -3.1088464884   -3.2160013115
 H    0.8963239792   -1.4973015988   -3.5690881574
 H    3.6119477092   -2.8175782683   -3.9331184074
 H    4.0644760366   -3.5781959680   -2.3881982337
 H    2.9507952572   -4.4121710996   -3.5006281093