20

 C   -0.0022852690    1.5065334570   -0.0002931238
 C   -0.0301405587   -0.0094685925    0.0132076115
 C   -0.8574616306   -0.6706060652    1.0995299979
 C    0.6513341130   -0.7118807169    1.1654492179
 O    1.2806791528   -1.9510779216    0.9952865154
 C    1.7087566647   -2.2314939489   -0.3294289010
 C    0.5536794947   -2.1093400827   -1.3196657366
 C    0.0673407837   -0.6525200519   -1.3657792706
 H    0.9102112509    1.8835226391   -0.4772068853
 H   -0.8586800399    1.9086446475   -0.5553853056
 H   -0.0451324720    1.9178081746    1.0132199706
 H   -1.3991342656   -0.0327206347    1.7906404420
 H   -1.3444218649   -1.6141744245    0.8781627856
 H    1.1520885129   -0.0993059048    1.9131702702
 H    2.5296090506   -1.5558677565   -0.6242847832
 H    2.1063406778   -3.2499526320   -0.2979237210
 H    0.8740865414   -2.4303842313   -2.3169161208
 H   -0.2487629115   -2.7871462319   -1.0054016585
 H   -0.8923046457   -0.5748764702   -1.8917802820
 H    0.7890951653   -0.0701314326   -1.9548260925