25

 C    0.4194849983    1.5490182405   -0.5648871484
 C    0.8657821252    0.1153027580   -0.2984457958
 C    2.3437039041   -0.1886891997   -0.6331265826
 O    2.6634927954   -0.4373379873    0.7481126946
 C    1.2656516832   -0.3938682128    1.1267819638
 C    1.0318985631    0.3153829819    2.4722827108
 C    1.6104733766    1.7415730911    2.5128577889
 C   -0.4769664396    0.3326423454    2.7740448399
 C    1.7558927097   -0.5349430651    3.5395341323
 H    1.1466496675    2.2808470267   -0.2055794374
 H    0.3094408053    1.6994931900   -1.6450943257
 H   -0.5480882886    1.7736263671   -0.1056293566
 H    0.1611218559   -0.5681749519   -0.7803829230
 H    2.5082411769   -1.0769319398   -1.2578317716
 H    2.9254715995    0.6466387931   -1.0426695582
 H    0.8914081141   -1.4240314425    1.2493886442
 H    1.0074308534    2.4498844739    1.9409128846
 H    1.6439618797    2.1042585046    3.5457502956
 H    2.6296662232    1.7516706454    2.1171011915
 H   -0.8975922537   -0.6793667063    2.7616772530
 H   -0.6630494294    0.7553008199    3.7672009361
 H   -1.0315262395    0.9367288590    2.0490309279
 H    2.8267566807   -0.5949550543    3.3265319119
 H    1.6261602628   -0.0953213500    4.5339814850
 H    1.3598468261   -1.5560225368    3.5692924692