21

 C    0.0443124026    1.5031653236   -0.0119721890
 C   -0.0365769348   -0.0244534329   -0.0025941616
 C   -1.4697888536   -0.5783380637    0.1117703331
 C   -1.2722166703   -1.8678906556    0.9144947873
 O   -0.2318076963   -1.5742896508    1.8415810828
 C    0.6780233779   -0.6660264047    1.2303611070
 C    1.9273415928   -1.3526714142    0.6279690327
 O    2.0801069694   -0.8309268533   -0.6846717144
 C    0.7666155608   -0.6279023447   -1.1792539362
 H    1.0856191039    1.8334791970   -0.0857473182
 H   -0.5014395920    1.9223707688   -0.8645191944
 H   -0.3837865340    1.9274020396    0.9023965968
 H   -2.1009300339    0.1205840448    0.6701309732
 H   -1.9381504065   -0.7516258675   -0.8621241859
 H   -2.1528912020   -2.1764017025    1.4844323402
 H   -0.9862059228   -2.7032504051    0.2554451185
 H    0.9516222992    0.0719074269    1.9902262955
 H    2.8504193888   -1.1509780943    1.1768772701
 H    1.7578840439   -2.4412648910    0.6139093909
 H    0.3240174745   -1.5833958573   -1.5088187316
 H    0.8320829825    0.0360534769   -2.0456798468