13

 N    0.0893590458    1.3954573605   -0.1810155735
 C   -0.0271072905    0.0326328526   -0.0708644014
 C   -1.1764849591   -0.6827543097   -0.0288897795
 O   -2.3916279015   -0.0784880843   -0.0174895078
 C   -1.1416616682   -2.1271837155    0.0129155738
 O   -2.1822836964   -2.7684287882    0.0612751778
 N    0.1341257484   -2.7281577950    0.0080749590
 C    1.1537526610   -1.9709149118   -0.0257670704
 O    1.1713104241   -0.6148165086   -0.0672955504
 H    0.9124885928    1.7922531676    0.2499241847
 H   -0.7644415660    1.8894413372    0.0364683664
 H   -3.0168803098   -0.8250059008    0.0292762476
 H    2.1691406495   -2.3540541439   -0.0242425762