20

 C   -0.0684035647    1.5731551706    0.0489256814
 C    0.0006348443    0.0337484112    0.0507505873
 C    0.7492147434   -0.4908824341    1.2912857964
 C   -1.3669951372   -0.5688218377   -0.0502908737
 C   -1.9841797076   -1.3672227862   -0.9706385384
 C   -1.4558451042   -1.9297278811   -2.2530301315
 C   -3.2836223475   -1.5455525476   -0.4116950630
 N   -3.4388525120   -0.9215793904    0.7272342574
 O   -2.2180272856   -0.2964172704    0.9624693728
 H    0.9391720360    1.9984289152    0.0878940989
 H   -0.5642636159    1.9471690455   -0.8515027470
 H   -0.6270044912    1.9347952979    0.9169501176
 H    0.5493341088   -0.2865629943   -0.8425237647
 H    0.2221295893   -0.2088256090    2.2072057486
 H    0.8334743231   -1.5813302574    1.2723257552
 H    1.7581906173   -0.0691448454    1.3323929804
 H   -1.4798850095   -3.0251795669   -2.2524498807
 H   -2.0459565627   -1.5944750698   -3.1132459105
 H   -0.4206929606   -1.6242750007   -2.4260770738
 H   -4.1117037735   -2.1149235095   -0.8127294129