20

 C    0.0466737987    1.3541232591    0.0088651962
 O   -0.0303600678   -0.0754094349    0.0016817109
 C   -1.2808632006   -0.5893111427    0.0109388043
 O   -2.2696921908    0.1005852866    0.0244355010
 C   -1.2569006953   -2.1203678151    0.0025486178
 C   -2.7025647121   -2.6361751591    0.0135514751
 C   -0.5270447021   -2.6023531168   -1.2698333409
 C   -0.5030890150   -2.6156830518    1.2557162204
 H    1.1099918087    1.5950381376    0.0004481414
 H   -0.4475009315    1.7723545238   -0.8718756418
 H   -0.4312733127    1.7625685520    0.9030441654
 H   -3.2543657554   -2.2824213835   -0.8608702181
 H   -2.7063334205   -3.7307806192    0.0078545444
 H   -3.2376525456   -2.2916358597    0.9019238053
 H    0.5009649974   -2.2346006250   -1.3018207013
 H   -0.5038295513   -3.6968818804   -1.2907206591
 H   -1.0418170371   -2.2613658068   -2.1741497100
 H   -1.0006456009   -2.2843846746    2.1731739869
 H   -0.4794986179   -3.7103671158    1.2645617768
 H    0.5253502817   -2.2480995637    1.2721165354