18

 N   -0.0475859865    0.7220750238    1.2291293375
 C    0.0793691364    0.0438730108    0.1681307442
 C   -1.0779058406   -0.2121180298   -0.7677945816
 C   -1.1473137684   -1.6975905975   -1.1342147590
 O   -1.5635538961   -1.9493150565   -2.4969879136
 C   -0.3732927857   -2.7221248542   -2.7626613014
 C    0.2343636739   -2.3379481802   -1.3987083033
 C    1.3170129399   -1.2665075162   -1.4101347036
 O    1.2784066555   -0.5125259094   -0.1906410105
 H    0.8507980284    0.7846538929    1.7138439158
 H   -1.9883130351    0.1572115005   -0.2970735436
 H   -0.9264516614    0.3508110037   -1.6964221845
 H   -1.7733952113   -2.2493854370   -0.4232569431
 H   -0.5950860456   -3.7902488266   -2.8779564770
 H    0.1554000308   -2.3707238215   -3.6574635976
 H    0.5101166057   -3.1635031313   -0.7409020582
 H    2.3235862122   -1.6871301969   -1.4594864666
 H    1.1899289379   -0.5945000747   -2.2693546741