14

 N   -0.0753685031    1.3228038865    0.0087585010
 C    0.0544325599   -0.0249925887    0.0030740763
 O    1.1166493118   -0.6222281585   -0.0073679482
 C   -1.2608684104   -0.7647442914    0.0110796827
 C   -1.2634805491   -2.1614540617    0.0070206899
 N   -2.3964688462   -2.8648966384    0.0136843360
 C   -3.5278455195   -2.1568059636    0.0244339217
 C   -3.5310043839   -0.7627458580    0.0285069242
 N   -2.3980961422   -0.0618982846    0.0218559075
 H    0.7519351064    1.8940059429    0.0028709500
 H   -0.9939804284    1.7345221562    0.0162229638
 H   -0.3220791976   -2.6995194815   -0.0017965120
 H   -4.4610426873   -2.7137947557    0.0299823745
 H   -4.4629526605   -0.2040072437    0.0372694727