17

 N   -0.1854712427   -1.2056311795   -0.2046830223
 C   -0.0966967894   -0.0595235884   -0.0790904670
 C   -0.0060609774    1.3930234435    0.0684090261
 C   -0.2585228465    2.0398331234    1.4259523157
 C    0.9776823039    1.9034992965    2.3118325185
 C    1.9918603113    0.8011626353    2.0189425447
 C    2.4033179647    1.1327305897    0.5531893532
 N    1.3678433634    2.0448310069    0.0140721768
 C    0.9670248031    2.8889515649    1.1848525491
 H   -0.6273193780    1.8453937551   -0.7111721476
 H   -1.2281513841    2.3198483666    1.8181212158
 H    0.8416509141    2.2664847003    3.3242888121
 H    2.8420100319    0.8605347862    2.7049570967
 H    1.5633757686   -0.2000640234    2.1120634577
 H    3.3522894881    1.6768599403    0.5297926326
 H    2.4998274194    0.2517951484   -0.0850132218
 H    1.1363028396    3.9567439543    1.2086876296