20

 C    0.3466190618    1.4284481366   -0.1288625865
 C    0.0325827004   -0.0620568440   -0.0647285555
 C   -1.4687551893   -0.3031378663   -0.1990088374
 C    0.8930671701   -0.9712727100   -1.0020209584
 C    1.3826924270   -1.6950676990    0.2720354860
 C    2.6434676328   -1.1183654589    0.9363657146
 O    3.8198787974   -1.2725023766    0.7988904395
 C    1.7401486563   -0.2675874313    1.8504437879
 N    0.5285401464   -0.8168883525    1.1675834471
 H    1.4199570939    1.6368198158   -0.1545581529
 H   -0.0871127319    1.8546288291   -1.0394796964
 H   -0.0880917368    1.9587786195    0.7259830427
 H   -1.8370661237    0.0537794720   -1.1675327994
 H   -1.6973228865   -1.3688807292   -0.1114582417
 H   -2.0119894771    0.2204371230    0.5942956727
 H    0.3160514964   -1.6006590201   -1.6827069464
 H    1.6722933280   -0.4621585307   -1.5744506283
 H    1.2578534789   -2.7801290531    0.3286322950
 H    1.7833476393   -0.5847560680    2.8993679177
 H    1.8862597666    0.8153617237    1.8188118498