15

 C   -0.0612819856    1.6571656659   -0.0425054585
 C    1.4308694313    2.0008589581    0.0131824640
 C    2.1043294822    0.8842859532   -0.3257603337
 C    2.4583078445   -0.2137680054    0.6572378295
 C    1.0195452172   -0.6397550975    0.9928576068
 C    0.0459342361    0.0901649911   -0.0004642734
 C    1.2004025654   -0.1885657390   -0.9667528610
 N    1.8109393997   -1.3044453455   -0.1063112807
 H   -0.5656932520    2.1168065111    0.8151091407
 H   -0.6246695171    1.9571860010   -0.9372968057
 H    1.8029519819    2.7380583346    0.7176908477
 H    3.2897323436   -0.3815769267    1.3332650233
 H    0.7630984018   -1.1765772554    1.9002594027
 H   -0.8901700075   -0.4605433042   -0.1287052739
 H    1.1106742184   -0.3258826112   -2.0427893576