18

 C    0.7429822471    1.3336044454    0.6022967477
 C    0.5358815120    0.1480668964   -0.3098995846
 C    1.6948273129   -0.4620961207   -1.0575304426
 N    1.0589069709   -1.1514292493    0.0472086147
 C    1.5842903387   -1.5331319011    1.2646707563
 O    1.0480744572   -1.2951999128    2.3226395100
 C    2.8664172285   -2.3834760262    1.1636485349
 C    4.0537668055   -1.5405996421    1.0868743933
 C    5.0176159359   -0.8242279545    1.0277451314
 H    1.7670562464    1.3631791491    0.9848544309
 H    0.5494783694    2.2625694522    0.0566358244
 H    0.0676330302    1.2847765187    1.4602851320
 H   -0.4376588901    0.1036451791   -0.7960432949
 H    1.5413049060   -0.8991988158   -2.0411064783
 H    2.6808576596   -0.0385391381   -0.8868371130
 H    2.9041463544   -3.0108546141    2.0587638567
 H    2.8094750026   -3.0371197964    0.2861603581
 H    5.8803505028   -0.2064509399    0.9863182031