19

 C    0.0999222147    1.5629978453    0.1663558732
 C   -0.1033095128    0.0640992718   -0.0931701630
 C    0.6586950531   -0.4531920362   -1.3056132989
 O    0.2116940677    0.1607040018   -2.5082019915
 C    2.1963433706   -0.7463045685   -1.1512104201
 O    1.8257679529   -1.8888989624   -0.2945116165
 C    0.8926778300   -1.9859003329   -1.4343684329
 C    2.1367492790   -1.7442463544   -2.3608249012
 O    2.0660168475   -1.3649843403   -3.6873993317
 H    1.1572214069    1.8044093805    0.3189734349
 H   -0.2739895468    2.1869736986   -0.6555541690
 H   -0.4435929737    1.8748896114    1.0624276435
 H    0.2210609137   -0.5099011349    0.7767032784
 H   -1.1696108060   -0.1411590956   -0.2477256902
 H    0.2201811091    1.1156845077   -2.3843683317
 H    3.0044313298   -0.1004199860   -0.8030656104
 H    0.1607253114   -2.7948908545   -1.4198318847
 H    2.8733911867   -2.5422297615   -2.2572846376
 H    1.3828280863   -0.6813299597   -3.7435979108