21

 C   -0.2265407146    0.5501404509    0.5686170221
 O    0.7571323234   -0.3633176661    0.1168868108
 C    0.8667653279   -0.4472534960   -1.3035550960
 C    2.3362656057   -0.6803204690   -1.7051274751
 C    2.5015572305   -2.1909098338   -1.8276837116
 C    2.0025161159   -3.0303512169   -0.6799756791
 C    1.1271417199   -2.8133246807   -1.8959094789
 C    0.0899246305   -1.7019099266   -1.8291062319
 O   -1.0618174143   -1.9958247642   -1.0631826656
 H    0.0002572301    1.5746254146    0.2372488545
 H   -1.2284326873    0.2778220498    0.2152651164
 H   -0.2090439295    0.5240091251    1.6614775725
 H    0.4709401425    0.4754963564   -1.7437794572
 H    2.5282657450   -0.2094637700   -2.6761576654
 H    3.0081940007   -0.2196108020   -0.9744789377
 H    3.3176117752   -2.5709831145   -2.4321378810
 H    2.4324346125   -4.0195062107   -0.5652953156
 H    1.7534142918   -2.5363727010    0.2525113628
 H    0.9169361301   -3.6624158483   -2.5362307766
 H   -0.2795138476   -1.4965272959   -2.8402818560
 H   -0.7504163086   -2.1065977610   -0.1566524913