13

 O   -0.0531128012    0.0471914347   -0.3887167030
 C   -0.0318263762    1.2160747191   -0.1081643686
 C   -1.2521189099    2.0487712164    0.3111821262
 C   -0.8363803119    3.5182909428    0.1544666758
 C    0.6987561835    3.5270898697    0.1815187849
 O    1.3841100504    4.4912583585    0.3963933113
 C    1.2045440427    2.1144670208   -0.1072226411
 H   -2.1305413558    1.7512228634   -0.2649924862
 H   -1.4624196132    1.8052687371    1.3606267674
 H   -1.1437395767    3.9150873621   -0.8218126221
 H   -1.2334436471    4.1965782735    0.9122137745
 H    1.9334107837    1.7909480153    0.6433948490
 H    1.7181656416    2.0718210366   -1.0742758181