20

 C    1.1549535350    0.4493429226   -2.4033396559
 C    0.6126284864   -0.4215954520   -1.2926618216
 C    1.3429427054   -1.6718615346   -0.7960285079
 C    2.6077350429   -2.0989295659   -1.4286778386
 O    3.6049791579   -1.4241969147   -1.5968795625
 N    1.1704265521   -0.4743342607    0.0326620277
 C    2.2952680082    0.3820344277    0.4302860201
 C    3.2767106846   -0.3427392337    1.3810269488
 O    4.6104879177   -0.3130274042    0.9203361559
 H    2.2369931899    0.3665415245   -2.5135170397
 H    0.6900118618    0.1652712158   -3.3523796970
 H    0.9044280463    1.4985688474   -2.2129885490
 H   -0.4727408231   -0.5264503795   -1.3068390402
 H    0.7251406648   -2.5148994602   -0.4895407578
 H    2.5904460097   -3.1589291999   -1.7645452795
 H    2.8775459150    0.7682361342   -0.4113764135
 H    1.8375735257    1.2421495371    0.9314379186
 H    3.2878558117    0.1440893613    2.3606553159
 H    2.9181833745   -1.3723763406    1.5413967167
 H    4.6076834934   -0.6827706048    0.0277082195