15

 N    0.0771292504    1.3860216866    0.1707566546
 C   -0.0297775763    0.0104693125    0.0553523792
 C   -1.1320128055   -0.7823134510   -0.0422005926
 N   -0.6304407282   -2.1034193258   -0.0368899002
 C   -1.3813363736   -3.2643683456   -0.0013925707
 O   -2.5854297718   -3.2887406823   -0.0606507303
 C    0.7516819293   -1.9897099649    0.0322063397
 N    1.5845252049   -3.0928108557    0.1098356053
 N    1.1406321543   -0.7485904717    0.0881798742
 H    0.9729471076    1.7298682623   -0.1458779110
 H   -0.6908363898    1.9063785835   -0.2272605864
 H   -2.1885587104   -0.5992674520   -0.0999173722
 H   -0.7523396598   -4.1657276478    0.0961204016
 H    1.4335203199   -3.7970844782   -0.6004627435
 H    2.5517370089   -2.7954464199    0.1225588023