14

 C    0.0032479746    1.5413007534   -0.0211442574
 C   -0.0081439222    0.0298059163    0.0980888159
 O   -0.0182139896   -0.5568729082    1.1447445785
 N   -0.0060628776   -0.6648652890   -1.1395117817
 C    0.0044709588   -0.1204569152   -2.4170974071
 N    0.0031059313   -1.0149763263   -3.3456610441
 N   -0.0088457570   -2.2087539095   -2.6704920211
 C   -0.0152092547   -2.0958580197   -1.2957716679
 O   -0.0255468782   -2.9601531908   -0.4619225933
 H    0.8941453251    1.8908652197   -0.5526182399
 H   -0.8766841857    1.9034740123   -0.5623521547
 H    0.0006211858    1.9530327431    0.9870605772
 H    0.0129326073    0.9387992211   -2.6113932773
 H   -0.0120739679   -3.0777059771   -3.1757501072