14

 N    0.0091110063   -1.1838518866   -0.1001204324
 C   -0.0107540255   -0.0290923239   -0.1256988050
 C   -0.0091388921    1.4308860001   -0.1475060619
 C    1.3882714413    2.0073320740    0.1914316820
 C    1.3924950183    3.4968559731    0.1751017924
 C    1.7014635979    4.4421117225    1.1042364195
 N    1.5150870126    5.6671438492    0.5086806015
 N    1.1245680476    5.5370564571   -0.6745620332
 O    1.0277476597    4.1200785914   -0.9454322842
 H   -0.3228196149    1.7759893602   -1.1375154469
 H   -0.7517240653    1.7973016026    0.5692535697
 H    1.7063760171    1.6612282067    1.1776840693
 H    2.1156553901    1.6296961330   -0.5350927532
 H    2.0359606369    4.3430015408    2.1224639225