16

 C   -0.0795887469    1.4389353341    0.0157317051
 C    0.0450853373   -0.0539825282    0.0048280172
 C    0.6422639881   -0.9690724720   -1.1045718837
 C    0.0299688586   -1.8879626773   -0.0140504809
 C    0.7020327379   -0.9923831378    1.0641034608
 N   -1.1840302945   -0.9713232642   -0.0416464655
 C   -0.0855821868   -3.3264617277   -0.0221662635
 N   -0.1615434390   -4.4799662586   -0.0153659631
 H    0.9085549299    1.9082772570   -0.0236422478
 H   -0.6593225997    1.7792117159   -0.8474295520
 H   -0.5822695764    1.7852921809    0.9249702619
 H    0.1102629337   -0.9672652208   -2.0555648690
 H    1.7274030421   -0.9884928738   -1.2102327546
 H    1.7937378499   -1.0142157436    1.1339030944
 H    0.2301770518   -1.0111865995    2.0505395789
 H   -1.6251399161   -0.9868880643    0.8849473417