19

 C    0.0352645652    1.4569986244   -0.0711633298
 C   -0.0376689326   -0.0389192727   -0.0282297577
 O    0.5563747469   -0.7232660524   -1.1624692633
 C   -0.2344846515   -1.8601268910   -0.7602827024
 C    0.1923978590   -2.2559303069    0.6791722277
 C    0.3477454919   -0.8488924119    1.2457733100
 C   -0.9842922959   -1.5589174055    1.3238061288
 C   -1.3201010341   -0.9579197921   -0.0810493886
 C   -2.6494080749   -0.5839226265   -0.6623513927
 H    1.0788334428    1.7885548782   -0.0322543925
 H   -0.4123228152    1.8462206247   -0.9899870784
 H   -0.4900538122    1.8889033763    0.7864431034
 H   -0.3860132354   -2.6055182181   -1.5403148054
 H    0.7697180013   -3.1020774984    1.0254070700
 H    1.0452083871   -0.5981648716    2.0340038049
 H   -1.5945707426   -1.8323089572    2.1725602754
 H   -3.1452553475    0.1889453799   -0.0638453754
 H   -2.5286167788   -0.1980092199   -1.6805803635
 H   -3.3208681536   -1.4489090489   -0.7079914407