15

 C   -0.0924858690    1.1730690609   -0.7433371238
 C   -0.1058271360   -0.1576263639   -0.0880522938
 C   -1.0174506263   -1.0766253659    0.3460650280
 N   -2.4143287341   -1.1527299086    0.3502103939
 C   -3.3511136796   -0.3108864103   -0.1697151807
 O   -3.1460449536    0.7297553463   -0.7556212656
 N   -0.3668835359   -2.1672794203    0.9105418933
 C    0.8862308641   -1.8771005229    0.7987350212
 O    1.1336156893   -0.6960118017    0.2131614390
 H    0.4823658775    1.1391256516   -1.6759062104
 H   -1.1135507565    1.4790260254   -0.9618213517
 H    0.3793202024    1.9211475598   -0.0955018911
 H   -2.7501671648   -1.9936688771    0.7976578208
 H   -4.3690218727   -0.7039127886    0.0137626655
 H    1.7356287751   -2.4620474046    1.1142730455