18

 N   -0.0572927379   -0.9770668028    0.6085772234
 C   -0.0892023257    0.1543959210    0.3606421202
 C   -0.0799099053    1.5438273076    0.0543440744
 C   -1.1698044331    2.3214222491   -0.0378194851
 C   -0.8355061303    3.7464857028   -0.3963104301
 C    0.7016006265    3.7826688112   -0.2980400927
 C    1.3138341453    4.0348760753    1.1138133818
 C    2.0452495468    2.6638966855    1.0464661221
 C    1.2043044856    2.3018149403   -0.2117328642
 H   -2.1841066897    1.9691291053    0.1119611414
 H   -1.2041787504    3.9850455104   -1.4036376137
 H   -1.3138969891    4.4651495683    0.2814321627
 H    1.1669954257    4.3826359378   -1.0810286384
 H    1.9517114865    4.9160771607    1.2091824871
 H    0.5528243924    4.0788706743    1.8979971302
 H    3.1076514885    2.7621787628    0.8106507506
 H    1.9430233861    2.0016109420    1.9093015232
 H    1.7584471380    1.8756966383   -1.0528350629