16

 N   -0.2232709258    1.3214908131    0.4332319418
 C    0.0988756557    0.0266764168    0.1346665679
 O    1.2064489600   -0.4313883155    0.2981290197
 C   -1.0680763224   -0.7635851236   -0.4941351427
 C   -0.9021287083   -2.2048685814   -0.4173575765
 C   -0.7787852817   -3.3982041552   -0.3533115019
 C   -0.6035729654   -4.8489857816   -0.2703838650
 C   -1.7916089312   -5.5583070473    0.2095526194
 C   -2.7595038793   -6.1512046587    0.6006658511
 H    0.4794715775    1.8858042699    0.8824709268
 H   -1.1721976216    1.6520051588    0.4346769881
 H   -2.0145679893   -0.4646152970   -0.0253049293
 H   -1.1389659291   -0.4433322391   -1.5431012855
 H   -0.3211117411   -5.2433851743   -1.2562978280
 H    0.2446423460   -5.0739684604    0.3908132641
 H   -3.6167676940   -6.6723292046    0.9481137298