20

 N    0.0408414623   -1.1826963188    0.0294967130
 C    0.0041568610   -0.0274791113   -0.0006618723
 C   -0.0345731558    1.4328989917   -0.0256297373
 C   -0.8376139868    2.0095486011    1.1793622390
 C   -0.4387195345    3.4718359203    1.4355445876
 C    0.0053273978    4.1754948161    0.1174969719
 C    1.3915614365    3.5018550269    0.3501516477
 C    1.0523472748    3.5316851883    1.8652640137
 C    1.3935008496    2.0461398324   -0.1437317268
 H   -0.5785201936    1.7090049552   -0.9352473024
 H   -1.9064489091    1.9215817348    0.9592738649
 H   -0.6503114605    1.4160524290    2.0805866940
 H   -1.1763662696    3.9730662206    2.0662108782
 H   -0.5401577167    3.9695872410   -0.8080398221
 H    0.0677386298    5.2578747094    0.2526841038
 H    2.2862683385    4.0298597702    0.0128014974
 H    1.3058134707    4.4932957524    2.3192798435
 H    1.4379656652    2.7220441204    2.4931364040
 H    2.1087403102    1.4613048060    0.4444184649
 H    1.7149126401    1.9809706842   -1.1882572224