20

 C   -0.3768883590    1.5116242095    0.0241220740
 C   -0.0017746470    0.0327528500    0.0542129547
 C    0.7556473377   -0.4672395412   -1.2046447428
 C    1.6390561679   -1.6556825673   -0.7436217152
 C    1.3682811031   -1.8318280995    0.7689178958
 O    2.4151387442   -2.3973803456    1.5125598434
 C    0.9029880929   -0.4140637837    1.2310821409
 C    2.0730312407    0.4450128508    1.4101627252
 N    3.0330906132    1.0792246709    1.5316278041
 H    0.5151836532    2.1429706810   -0.0409259508
 H   -1.0064338266    1.7282095894   -0.8448923572
 H   -0.9335683680    1.8047745641    0.9202031372
 H   -0.9207422317   -0.5576574638    0.1616329730
 H    0.0543478895   -0.7439498092   -1.9960799721
 H    1.3783763911    0.3396576104   -1.6036532126
 H    1.4386275859   -2.5810417140   -1.2881539250
 H    2.7011226174   -1.4287063798   -0.8853909301
 H    0.5155937033   -2.5018766936    0.9213401786
 H    3.1898671722   -1.8276522370    1.4268250997
 H    0.3641280699   -0.4594070914    2.1819960589