21

 C    0.0384939287    1.5065141465    0.0136400185
 C    0.0274513024   -0.0039367066    0.0455154014
 C    1.0044381846   -0.8568298805   -0.8250335361
 C    0.6414564714   -1.9645940237    0.2239999555
 C    0.5682377516   -0.8190490763    1.2635217019
 C   -0.8513564331   -2.2098973087   -0.1105691446
 C   -1.3136901932   -0.7217674268   -0.2284622978
 C    1.5204078692   -3.1565088263    0.3859157390
 O    2.2086181813   -3.3847608050    1.3508376300
 H    1.0382206298    1.9037838463    0.2172935878
 H   -0.2798934528    1.8846726767   -0.9648995059
 H   -0.6444125569    1.9197914181    0.7649438231
 H    0.7466664388   -1.0373034580   -1.8731888080
 H    2.0423735920   -0.5267976081   -0.7373540159
 H    1.5583584325   -0.4936588244    1.5887477763
 H   -0.0880438791   -0.9537815491    2.1280974881
 H   -0.9827553147   -2.7732075605   -1.0392837735
 H   -1.3636950325   -2.7520595899    0.6889420516
 H   -2.0754347672   -0.4621085353    0.5129579686
 H   -1.7144577511   -0.4810695219   -1.2180050847
 H    1.5144007083   -3.8530087362   -0.4870716251