17

 O   -0.0390143953   -0.0118044507    0.0000703824
 C    0.0063398193    1.1847766519    0.0109677111
 O   -1.1297227356    1.9400049674    0.0461981126
 C   -0.8611383532    3.3586477328    0.0391941879
 C   -0.0906695453    3.7174373235    1.3115544192
 C    1.2328706521    2.9074077523    1.2938683307
 C    1.2452803877    2.0646061765   -0.0030386413
 C    1.1106212047    3.0281461789   -1.1947610406
 O   -0.1499027570    3.7076641231   -1.1154755178
 H   -1.8352359588    3.8419441308   -0.0319235643
 H    0.0889660234    4.7955174951    1.3182173866
 H   -0.7051511386    3.4753876647    2.1823447469
 H    2.1038212037    3.5694464014    1.2976526556
 H    1.3148483196    2.2574856960    2.1683810049
 H    2.1349787399    1.4412938100   -0.0913961537
 H    1.9230870335    3.7666892853   -1.1781381907
 H    1.1483298399    2.4947855310   -2.1508679594