15

 C    0.0356222942   -1.1776677428    0.0586246865
 C    0.0408952702    0.0198360301   -0.0239247648
 C    0.0654610679    1.4711774155   -0.1426527910
 N    1.3553802713    2.0093515263    0.2813440721
 C    1.6308146966    3.3417417421    0.1053706152
 N    2.8413638692    3.8705161423    0.0325132446
 C    2.5745025785    5.2038393905   -0.0801796041
 N    1.3019166391    5.5418447358   -0.0913928406
 N    0.6943869852    4.3164337014    0.0254461687
 H    0.0221719306   -2.2370703370    0.1362648816
 H   -0.1793090922    1.7571970195   -1.1795732883
 H   -0.7237893770    1.8945860775    0.4949572359
 H    2.1515819906    1.4215696114    0.0818075669
 H    3.3543375759    5.9465921064   -0.1621752980
 H   -0.3075496202    4.2621234509    0.0805279953