21

 C   -1.0125922055    1.0477011501    0.4994046025
 C   -0.7183550512   -0.3707427759    0.3617901957
 C   -0.4750568872   -1.5465959983    0.2514309868
 C   -0.1824172559   -2.9433162226    0.1031400116
 C    0.6555389678   -3.8562638817    1.0612784873
 C    0.2069429885   -4.7844434465   -0.1017910697
 C   -1.1991042127   -4.1344310587    0.0288419622
 C    0.6128471816   -3.6305430231   -1.0741916012
 C    0.1222563287   -3.5579847723   -2.5103598486
 H   -0.4870382277    1.6396556129   -0.2584556561
 H   -2.0847174312    1.2452617811    0.3877458746
 H   -0.7079302944    1.4245221830    1.4823355786
 H    1.7225141796   -3.6284976726    1.1331297784
 H    0.2150323790   -4.0488717496    2.0426751230
 H    0.4309247690   -5.8454088059   -0.2139527277
 H   -1.7470021386   -4.3432894982    0.9514010216
 H   -1.8652039818   -4.1688036347   -0.8335666831
 H    1.6836070661   -3.3969824177   -1.0391215287
 H   -0.9351571916   -3.8085008704   -2.6245606292
 H    0.2676928330   -2.5477458708   -2.9082679852
 H    0.6952575546   -4.2455905681   -3.1423836028