16

 O    0.1931801904    1.3425355242    0.2603742003
 C    0.0594442706   -0.0372256382    0.0329288235
 C   -1.3992305598   -0.5411237294   -0.0965197818
 C   -1.2545273336   -1.9307323273   -0.7378096346
 C   -0.0534380776   -1.7839295876   -1.6667578303
 O    0.2168596530   -2.4603722748   -2.6267797999
 C    0.7372454045   -0.5211848820   -1.2607925755
 O    0.4996869416    0.4752410676   -2.2538011169
 H    0.1193575003    1.7678945287   -0.6034472212
 H    0.5352221613   -0.5439225578    0.8820206275
 H   -1.9169269784   -0.5498574371    0.8644058518
 H   -1.9443080931    0.1311024528   -0.7677859222
 H   -0.9974807358   -2.6884035513    0.0160755876
 H   -2.1304121283   -2.2990356074   -1.2760478322
 H    1.8099654853   -0.7234538829   -1.1526163400
 H    0.7209504097    0.0915808923   -3.1102785461