19

 C   -0.8585959303   -0.9173798865   -1.1097955817
 C   -0.5189465103    0.1189873967   -0.6014355971
 C   -0.0957988836    1.3569983043    0.0187965609
 C   -0.0301427639    1.4397290058    1.5793315789
 C    1.3347980969    2.1803628045    1.4856620150
 C    2.5239569683    1.5262575938    2.2138268687
 C    3.0102055093    0.5082884317    1.2052543958
 C    2.4202687001    0.6323960834    0.0153828536
 C    1.4249941447    1.7592690373   -0.0190539680
 H   -1.1631748201   -1.8303222037   -1.5579343785
 H   -0.6949125804    2.1861052731   -0.3729675163
 H   -0.8548628204    1.9693994611    2.0605998445
 H    0.0662869232    0.4508185479    2.0328660685
 H    1.2491996946    3.2533971735    1.6646786557
 H    3.3139299681    2.2484483988    2.4624416566
 H    2.2201932559    1.0653383379    3.1630243284
 H    3.7700457688   -0.2281429686    1.4453794602
 H    2.6211427750    0.0101669719   -0.8493070354
 H    1.6692044640    2.5142895869   -0.7733872799