19

 C    0.7129302670    0.5957243103   -0.6265156826
 C   -0.0014616028   -0.7752986544   -0.5733613992
 C    0.8291501446   -1.7284612569    0.1708980073
 N    1.4790290961   -2.4614922848    0.7851637724
 C   -1.4243857529   -0.7021924885    0.0071095257
 C   -2.3845894252    0.2101825686   -0.7505231765
 O   -2.2179345937    1.5671717660   -0.3892778416
 C   -1.9894827928   -1.8421238483    0.7731086074
 N   -1.6209954481   -0.5885280322    1.4627409407
 H    1.6903849855    0.4928637953   -1.1037655585
 H    0.1089687579    1.3146560838   -1.1796015085
 H    0.8634849445    0.9899882980    0.3819441175
 H   -0.0875577081   -1.1610353056   -1.5980915869
 H   -2.2127083972    0.1462740970   -1.8305624798
 H   -3.4143930247   -0.1243777667   -0.5592605196
 H   -2.2636680077    1.5801997972    0.5759317078
 H   -3.0561741904   -2.0408966127    0.7224792869
 H   -1.3678358532   -2.7158101409    0.9415482446
 H   -0.7408504387   -0.7230728052    1.9569666229