15

 O   -0.0734919040   -0.0628158295   -0.0387762225
 C   -0.0694605468    1.1383656980    0.0957158411
 C   -1.2983806714    1.9493181137    0.1832813209
 C   -1.2369143663    3.2805348759    0.2945184603
 C    0.0707656866    3.9946244761    0.4585230576
 O    1.1129745509    3.1428017146    0.8803205271
 C    1.2412725212    1.9715893432    0.0782763856
 C    2.3942848436    1.2120009015    0.5323006104
 C    3.3469861648    0.5809750540    0.8976459620
 H   -2.2351132520    1.4087642395    0.0948021869
 H   -2.1360835883    3.8915383972    0.2663741297
 H    0.3326369112    4.5054801263   -0.4886594611
 H   -0.0131674052    4.7735009946    1.2239822245
 H    1.3959445324    2.2618871316   -0.9796000456
 H    4.1855019631    0.0171903033    1.2249172231