18

 O    0.6704017591   -0.5957241388    0.4332644682
 C    0.2165409948    0.5213572192    0.3159624815
 N    0.9286480350    1.6254475548   -0.0519740835
 C    2.3363139771    1.5981722511   -0.3523325906
 C    2.8291202031    2.1782436600   -1.7044660300
 C    4.0535690546    2.8096254059   -0.9596449446
 C    3.2826133353    2.5826453418    0.3844811155
 C    5.2983911523    1.9717079105   -1.0677810569
 O    6.3823649350    2.3894300497   -1.3846671446
 H   -0.8484458683    0.7646544485    0.5000357141
 H    0.4371695446    2.5040525088   -0.1151734409
 H    2.6500779259    0.5617740808   -0.2198365339
 H    3.0301415174    1.4705262133   -2.5126099843
 H    2.1647452755    2.9604740119   -2.0824863776
 H    4.3035439983    3.8401590205   -1.2134402710
 H    2.7666474864    3.4972491306    0.6902070869
 H    3.8445004158    2.1967891089    1.2387463454
 H    5.1516489680    0.8912467524   -0.8263383637