14

 O    0.6756494732    1.2390451268    0.1337378072
 C    0.2954493387   -0.0621665323    0.0622356996
 C    0.0154958327   -0.7480302969   -1.1031459149
 N   -0.3628339845   -1.9945680002   -0.7154315731
 N   -0.3364126353   -2.1743975977    0.6106817102
 C    0.0519549833   -0.9969298338    1.1006445039
 C    0.1596807706   -0.8029244335    2.5897136067
 C    1.2551380300    0.1046137080    2.9353936101
 N    2.1075905217    0.8578955629    3.1439911095
 H    1.1971410356    1.3829318202    0.9340991248
 H    0.0606330374   -0.4438099886   -2.1353170700
 H   -0.6351544242   -2.7625851221   -1.3042488624
 H   -0.7658923399   -0.3875667679    3.0095047425
 H    0.3202730005   -1.7724920248    3.0705934259