17

 O   -0.4330478326    1.2008340868    0.5099656455
 C    0.1833175168    0.0193441421    0.0329291190
 C    0.8265665288   -0.8013862146    1.1832696599
 C   -0.2776821378   -1.7371136492    1.6294451670
 O   -1.5566631555   -1.1118971568    1.7598786934
 C   -1.2791135798   -1.8350884784    0.5350266578
 C   -0.8416303681   -0.9515646487   -0.6122383887
 C   -2.0861098400   -3.0708159727    0.3496167747
 O   -2.2842321069   -3.5868100909   -0.7210776625
 H   -1.1058630761    0.9181341617    1.1427160606
 H    0.9313724047    0.3511777448   -0.6902231424
 H    1.6765628853   -1.3971050059    0.8298876115
 H    1.1800581490   -0.1419001551    1.9805370831
 H   -0.0924629688   -2.5504399603    2.3271351450
 H   -1.6659070633   -0.3987684345   -1.0692745422
 H   -0.3880353871   -1.5811464525   -1.3848778257
 H   -2.4904441985   -3.4851474158    1.2990603939