14

 N   -0.1137931177    1.3198447550    0.0195817621
 C    0.0057159135   -0.0592573127   -0.0085336165
 N   -1.0546916238   -0.8653435292   -0.0127362215
 N   -0.5090471720   -2.0902347999    0.0575470036
 C   -1.3157461195   -3.2839708127   -0.0292607279
 C   -1.7114504915   -3.6137606703   -1.4076159844
 N   -2.0292668793   -3.8854097236   -2.4836543415
 N    0.8147457566   -2.1350828138    0.0755106080
 C    1.1742759556   -0.8547384962    0.0473102644
 H    0.6281683635    1.8088587736   -0.4599792440
 H   -1.0236309294    1.6413507293   -0.2817703255
 H   -0.7296619631   -4.1059276373    0.3872310934
 H   -2.2141334517   -3.1434032925    0.5775364711
 H    2.2115276189   -0.5624982298    0.0788953388