21

 C    1.7285236815    0.7618136464    0.8265980128
 C    2.0248878357   -0.7434686942    0.7519874525
 C    3.3757238913   -1.0796006773    1.3915179202
 O    1.0564217839   -1.4643231884    1.5147246010
 C    2.0677826260   -1.1627038020   -0.7214030376
 O    2.3660151364   -2.5190743821   -1.0476032137
 C    1.1021108053   -1.9834420333   -1.4777651750
 C   -0.1301249812   -2.6873082321   -0.9577189548
 O   -0.4458692182   -3.8013032370   -1.7814163134
 H    2.4973689363    1.3515695785    0.3188635482
 H    0.7658308464    0.9959628227    0.3551882816
 H    1.6865769346    1.0772841343    1.8726571005
 H    3.3841881138   -0.7595880075    2.4367277448
 H    3.5401227617   -2.1585223933    1.3502412465
 H    4.1940717517   -0.5821950069    0.8629135290
 H    0.1905509439   -1.0823308101    1.3368650302
 H    2.6413744334   -0.4495459283   -1.3215600784
 H    1.0519211231   -1.8041556143   -2.5549854035
 H    0.0214363005   -2.9782565834    0.0853305033
 H   -0.9975077928   -2.0186190059   -1.0185216545
 H    0.2775041768   -4.4311525760   -1.6917138798