18

 N   -0.5228418635    1.3051556809    0.7916106297
 C   -0.0353664193    0.3299884599   -0.0277724364
 O    1.1336956153    0.2847992833   -0.3643561430
 C   -1.0452051658   -0.7012722040   -0.4970974477
 C   -1.0737907742   -0.9577524143   -2.0401224759
 C   -1.0969131730   -2.4524390275   -1.7262818234
 C   -2.0253461786   -3.4746700904   -2.2101527417
 O   -0.6348981952   -3.4791186542   -2.5747946210
 C   -0.6209610065   -2.1939275556   -0.2980755899
 H    0.1124717676    2.0104056934    1.1278869401
 H   -1.4861518972    1.3450259195    1.0719602107
 H   -2.0462877358   -0.5109243613   -0.1017737938
 H   -1.8999112316   -0.5314909912   -2.6131131427
 H   -0.1182714749   -0.6635653388   -2.4824163257
 H   -2.3356803205   -4.2847760943   -1.5507552906
 H   -2.7174516857   -3.2428895172   -3.0192558486
 H    0.4677845420   -2.2636463552   -0.2276491005
 H   -1.0864383531   -2.7524601129    0.5167145205