19

 C   -0.1330667238    1.5559575423   -0.0478067016
 C    0.0300836206    0.0466164820    0.0235038260
 O    0.8291004245   -0.4050239534   -1.0894500822
 C    1.5370014335   -1.5422386431   -0.6441175943
 C    2.5840856761   -1.3876585718    0.4448478388
 C    1.1850273819   -1.9447816278    0.7423391862
 C    0.7668737352   -0.5308011735    1.2371371887
 C    2.2871884691   -0.1319323875    1.2459063446
 O    2.8839099411   -0.2513242290    2.5231919545
 H    0.8269028871    2.0715127661    0.0398428893
 H   -0.5833777335    1.8404509647   -1.0028096046
 H   -0.7917493126    1.9032192403    0.7549403356
 H   -0.9647187417   -0.4254080683   -0.0442609260
 H    1.7178990707   -2.2720482334   -1.4240670450
 H    3.5400230992   -1.8981075033    0.4188366605
 H    0.8506478055   -2.9137452593    1.0870647354
 H    0.2538091646   -0.4328376029    2.1936758488
 H    2.5493079227    0.8285630004    0.7811656758
 H    2.6208671998    0.5145801073    3.0437367894