18

 C    0.1827468774    1.6189921895   -0.0491888151
 C    0.3454481855    0.0960447305    0.0126045445
 C    0.5631409100   -0.5215780191   -1.3658868212
 C    0.6528907172   -2.0885893667   -1.5049448127
 C   -0.3307270641   -2.0441858404   -2.7240446511
 C   -0.6203570981   -0.5818807913   -2.3502084505
 O   -1.4923766702    0.1849748884   -2.6349948397
 C    1.9693473492   -2.6551737468   -1.7325353925
 N    3.0233761708   -3.0903712822   -1.9245078545
 H    1.0842220372    2.0945514610   -0.4503986407
 H   -0.6578744515    1.8935532909   -0.6915119331
 H    0.0038560058    2.0301362809    0.9483971914
 H    1.1939438363   -0.1692780830    0.6550497308
 H   -0.5449152415   -0.3539890840    0.4698821809
 H    1.4211880657   -0.0548032326   -1.8661947356
 H    0.1909424667   -2.5789284321   -0.6438145515
 H    0.1827191691   -2.1245794460   -3.6864282018
 H   -1.1754112254   -2.7353558969   -2.7116854174