17

 C   -0.0131405429    1.4937978310    0.0401649425
 C   -0.0195248142   -0.0067758887   -0.0121283927
 C   -0.0537098809   -0.6962800443   -1.1889947897
 N   -0.0454875981   -2.0544799264   -1.2222735660
 C   -0.0133737330   -2.8064962006   -0.0700123509
 C    0.0173588067   -2.1984982206    1.1488049303
 N   -0.0017555862   -2.8542523853    2.3675990085
 C    0.0293556632   -0.7282133850    1.2450316170
 O    0.0899757877   -0.1788593251    2.3532983432
 H    0.8750601190    1.8573291980    0.5677502515
 H   -0.0334993008    1.9347564738   -0.9606269093
 H   -0.8744333237    1.8652631579    0.6056709230
 H   -0.0843159160   -0.2032313429   -2.1538636693
 H   -0.0700691018   -2.5266127234   -2.1094311008
 H   -0.0198682497   -3.8809811233   -0.2040602868
 H    0.4821164447   -3.7373426220    2.4208530015
 H    0.2368581861   -2.2032845031    3.1089929980