23

 C   -0.3089990023    1.3946223350    0.0338630066
 C    0.0236051467   -0.1113615799   -0.0380436038
 C    0.6202755672   -0.4890194823   -1.3959924902
 C    0.9779705792   -0.4485500003    1.1108972347
 O    2.1801452452   -0.4676263309    0.9554921217
 C    0.3443659856   -0.7822017134    2.4452520998
 C    0.0594578153   -2.3110268471    2.6796660163
 C    0.5824808955   -2.1417968668    4.1306238316
 C    1.2448107644   -0.8050081032    3.7051477909
 H    0.5949505297    1.9919313635   -0.1229080931
 H   -1.0321145604    1.6605267860   -0.7431093452
 H   -0.7375057368    1.6765695400    1.0008737417
 H   -0.9078709508   -0.6692417837    0.1281277045
 H    1.5809946399    0.0113561374   -1.5403595457
 H    0.7963482463   -1.5664651677   -1.4671963142
 H   -0.0533310044   -0.1982056776   -2.2080589882
 H   -0.5732368144   -0.2042159791    2.5907943719
 H   -0.9676492477   -2.6545773688    2.5390939745
 H    0.7272443491   -2.9318012462    2.0758429109
 H   -0.2364215677   -1.9873792114    4.8389572256
 H    1.2336541088   -2.9273442815    4.5205405990
 H    2.2886664282   -0.9301537426    3.4086438999
 H    1.1663057436    0.0426353808    4.3893635606