21

 O   -0.6690720875    1.4080125537    0.3108666232
 C   -0.1422774938    0.1441044663   -0.0624465277
 C    0.8006352792   -0.4075591180    1.0061730810
 O   -0.0861409480   -0.8912833053    2.0122063158
 C   -1.2483601899   -1.4486206138    1.3901231545
 C   -1.4809909995   -2.9733876771    1.5924349704
 C   -2.9696698660   -2.6612914328    1.9065323428
 C   -2.5596541585   -1.1881631226    2.1757326503
 C   -1.2129607935   -0.9620652760   -0.0798026431
 H   -0.9231336632    1.3430834554    1.2391155221
 H    0.3372893939    0.2870666875   -1.0338260528
 H    1.4352118572   -1.2137492757    0.6055747230
 H    1.4387574649    0.3611748966    1.4495647932
 H   -1.2561780988   -3.6405602104    0.7557484316
 H   -0.9439551254   -3.3167982488    2.4805883782
 H   -3.6049827057   -2.7563994655    1.0220061086
 H   -3.4341812292   -3.2085732564    2.7284560180
 H   -2.3285233155   -1.0215322276    3.2313834554
 H   -3.2154865251   -0.3885606446    1.8203349422
 H   -2.1731687245   -0.5793253573   -0.4310091118
 H   -0.9025628510   -1.7727825977   -0.7477140149