18

 O   -0.2177923656    1.2837461309    0.1916457296
 C    0.0079200103   -0.1172013369   -0.0214600005
 C    0.6924474206   -0.7386805402    1.2197538792
 C   -0.4371122955   -0.7570173074    2.2573830755
 C   -1.6766375661   -1.2001101817    1.4464946959
 C   -1.3979657681   -0.7736203798   -0.0220532268
 C    0.7619924117   -0.3262062719   -1.2591586113
 C    1.4097833814   -0.4759587680   -2.2613148729
 H    0.6388598584    1.7237356979    0.1549345678
 H    1.0207819188   -1.7562781196    0.9785002861
 H    1.5750012165   -0.1671641594    1.5233091409
 H   -0.2256003303   -1.4142640863    3.1047626283
 H   -0.5834795553    0.2545252207    2.6461382084
 H   -1.7978229638   -2.2865029966    1.5032329895
 H   -2.5975059032   -0.7589759678    1.8354195259
 H   -2.1177206943   -0.0475474119   -0.4046062411
 H   -1.4041499606   -1.6336969261   -0.6947076417
 H    1.9697989851   -0.6111889759   -3.1535146128