19

 O   -0.0513559075    1.3918730477    0.0034260692
 C   -0.0085914761    0.0023412842   -0.0331701947
 C    0.1944609421   -0.8041438799   -1.3376624031
 C   -0.4419452287   -1.9376225661   -0.4949132813
 C    0.6848357975   -2.2008071275    0.5151054743
 C    0.7594463746   -0.7471617191    1.1211973600
 C   -0.2508422060   -0.7404884436    2.2504368128
 C   -1.4714117434   -0.8443509197    1.7113127861
 C   -1.3187329554   -0.7907111375    0.2219974492
 H    0.8518772517    1.7255832920    0.0148217216
 H   -0.4624832105   -0.4288960281   -2.1259132113
 H    1.2053903063   -0.9604095844   -1.7267683981
 H   -0.9317164721   -2.7921532232   -0.9569868829
 H    0.4540680041   -2.9477163651    1.2772843996
 H    1.6078348561   -2.4935301612    0.0052972806
 H    1.7641315672   -0.3884658924    1.3540949593
 H    0.0083370088   -0.7874161327    3.3012060355
 H   -2.4096805187   -0.9679076191    2.2373618693
 H   -2.1769654700   -0.4911024543   -0.3791483658