21

 C    0.6345057685    1.3179958323    0.7254378863
 C    0.9413334985   -0.1442332913    0.3964722759
 C    0.5229267306   -0.5324897032   -1.0410452727
 C    1.3554357041    0.1406964218   -2.0387155801
 C    2.0628182107    0.6897469282   -2.8416180543
 C    0.4978471882   -2.0510667087   -1.3073173765
 C   -0.1203765889   -2.4542466952   -2.6276990316
 C    1.4527230746   -2.9503473062   -0.6466087447
 O    0.0954266645   -2.8552099181   -0.1928027146
 H    1.1486255295    1.9950819486    0.0364454907
 H   -0.4399318385    1.5221698616    0.6575431438
 H    0.9554450252    1.5622839134    1.7423984196
 H    2.0140051135   -0.3278541014    0.5206018873
 H    0.4138497487   -0.8112280232    1.0838761773
 H   -0.5136025970   -0.1880716435   -1.1811766097
 H    2.6787252756    1.1773622487   -3.5561255375
 H    0.4361983631   -2.0228640523   -3.4640969188
 H   -0.1293600782   -3.5420203559   -2.7281599445
 H   -1.1544468981   -2.0969809177   -2.6890540071
 H    1.7167242257   -3.8918102282   -1.1264768871
 H    2.2002927897   -2.5581011799    0.0388762683