23

 C   -0.2504688481    1.5886417284    0.1214036391
 C    0.1606087550    0.1282359072   -0.1029035649
 C    0.7924055188   -0.5041058060    1.1226706440
 O    1.9794174247    0.1276285579    1.5457298829
 C   -0.0701588204   -1.1175934853    2.2048936977
 C    0.8178642836   -1.9923936905    1.3323466429
 C    0.2456161626   -2.9816955070    0.3676334136
 C    1.1589463677   -3.7842899924   -0.5284729857
 C    0.4336072146   -4.4606506334    0.6084123433
 H    0.6173852699    2.2107611067    0.3653096787
 H   -0.7089650483    2.0111563096   -0.7774206443
 H   -0.9734252001    1.6771242212    0.9400693958
 H   -0.7169438218   -0.4540011282   -0.4023102941
 H    0.8755789762    0.0712133139   -0.9329460417
 H    1.7372000590    0.9612401916    1.9633832733
 H    0.2267086495   -0.9641054636    3.2366661820
 H   -1.1428870345   -1.1644612176    2.0406585402
 H    1.7313521840   -2.3269884584    1.8179864873
 H   -0.7104248831   -2.7006353766   -0.0641674283
 H    0.8372248824   -3.9914761781   -1.5432493227
 H    2.2275274690   -3.6268886086   -0.4255326086
 H    1.0145355991   -4.7589684257    1.4750195969
 H   -0.3860963295   -5.1304676651    0.3727956829