21

 C   -0.0254627656    1.5841902145    0.0389601792
 C    0.0239987920    0.0581850033   -0.0007126427
 C    0.9784038833   -0.5915680280   -1.0360854468
 C    2.3360715471   -0.1245808089   -0.4576833183
 O    2.1289716369   -0.1305181377    0.9702744982
 C    0.7761091218   -0.6019896676    1.1712898727
 C    0.7925823662   -2.0913431123    0.8336456582
 C   -0.2917617736   -2.6914030386   -0.0272672923
 C    0.9199698146   -2.0840470890   -0.6862394388
 H    0.9384182225    2.0178408400    0.3136343957
 H   -0.3251060965    1.9924846076   -0.9322942288
 H   -0.7605131887    1.9214270778    0.7774165049
 H   -0.9940630746   -0.3178243863   -0.1075252127
 H    0.8164242246   -0.3287980525   -2.0832716623
 H    3.1551642486   -0.8052019226   -0.7190177571
 H    2.6109297573    0.8873396392   -0.7794143047
 H    0.4772489578   -0.3256392698    2.1835271421
 H    1.4023090204   -2.7364608248    1.4553031506
 H   -0.3197454341   -3.7762988737   -0.0379585900
 H   -1.2747560777   -2.2412522231   -0.1013642320
 H    1.6173868179   -2.7435463174   -1.1920348650