18

 C    0.0237994756    1.5610296686   -0.0572962952
 C    0.0954318011    0.0399746343    0.0164709986
 N    0.7458321298   -0.5025560121   -1.1802681011
 C    0.8095032750   -1.9551599756   -1.1260684078
 C    1.7286128433   -2.3145216063    0.0264432057
 O    1.2983332706   -1.7247601422    1.2617170089
 C    0.8179481666   -0.4460498122    1.2675606055
 N    0.8597824670    0.2623438931    2.3151383482
 H    1.0269033782    1.9832102153   -0.1552301591
 H   -0.5698662087    1.8660995810   -0.9262595608
 H   -0.4352902982    1.9643749120    0.8450709785
 H   -0.9358378681   -0.3584843235    0.1169149279
 H    0.2370416618   -0.1938219552   -2.0014657172
 H   -0.1778316184   -2.4314088043   -0.9752582880
 H    1.2327275935   -2.3443518698   -2.0578331497
 H    1.7515175012   -3.3920510497    0.2076331826
 H    2.7456001651   -1.9664379609   -0.1928544402
 H    1.3331677247   -0.2515401024    3.0613911732