14

 O    0.0783281647    1.3709845563   -0.1488834655
 C    0.0879109485   -0.0339612824   -0.0431278468
 C    0.6924355073   -0.5368065663    1.2620347976
 C   -0.1582536008   -1.2721062264    1.9786139914
 C   -1.4751759613   -1.3704977149    1.2761586674
 O   -2.1131131656   -0.0843907697    1.0740855102
 C   -1.3343358844   -0.6376322649    0.0041223689
 C   -2.0328424968   -0.9731524995   -1.2083820208
 N   -2.5573633264   -1.2443295347   -2.2020237228
 H   -0.4981309334    1.6954024793    0.5557898128
 H    0.6335646292   -0.4012554545   -0.9183835592
 H    1.6899515004   -0.2369234678    1.5601216093
 H    0.0272228142   -1.7178932522    2.9474483238
 H   -2.1587143857   -2.2032128624    1.4022375236