19

 C    0.0751429835    1.4809837234   -0.1264604956
 C    0.0145262399   -0.0068658786    0.0034364871
 O    0.6201007501   -0.8452647187   -1.0457621958
 C    0.0967652094   -1.8129633619   -0.0794914782
 C    0.5757200035   -0.9495080407    1.1207394012
 C   -0.4870899554   -1.0472322703    2.1988431631
 O   -1.6938099468   -1.0601722654    1.4067641198
 C   -1.2172319611   -0.9828125478    0.0797935341
 C   -2.3132590099   -0.9841899031   -0.9422942347
 H    1.1118506936    1.8316072287   -0.1401340198
 H   -0.4116895587    1.8067012856   -1.0510645360
 H   -0.4400482726    1.9524812525    0.7166385501
 H    0.2497778822   -2.8732320813   -0.2802800853
 H    1.6325184188   -0.9149756434    1.3792554400
 H   -0.4240542384   -1.9657637827    2.7948063382
 H   -0.4985950634   -0.1884482321    2.8812055073
 H   -2.9794316245   -0.1282803771   -0.7965165398
 H   -1.8725669417   -0.9291463198   -1.9404952377
 H   -2.9131806185   -1.8958620173   -0.8654812981