25

 C    0.0232359669    1.5247618558   -0.0316368067
 C    0.0779628069   -0.0039220807    0.0948643573
 C    0.7381780717   -0.4267663304    1.4140955449
 C   -1.3210551206   -0.6126176382   -0.0351039447
 C   -2.0801266455   -0.5243401427   -1.4057370689
 C   -2.2779149101   -2.0497317990   -1.3842367782
 C   -3.5374709816   -2.7493343804   -1.8070786786
 C   -0.9312233982   -2.7159426028   -1.3570905218
 C   -1.4832789163   -2.1408105393   -0.0760134232
 H    1.0256726591    1.9628722217    0.0186406509
 H   -0.4303878232    1.8350909201   -0.9784965515
 H   -0.5703195829    1.9625783142    0.7803011024
 H    0.6955498259   -0.3875871729   -0.7293115354
 H    0.1617374157   -0.0633047049    2.2738885969
 H    0.8065199408   -1.5162749201    1.4941794376
 H    1.7511417423   -0.0194119858    1.5000987054
 H   -1.9553289012   -0.1958337120    0.7569084672
 H   -3.0163150009    0.0354284992   -1.3344296217
 H   -1.5092227866   -0.1341388839   -2.2564649393
 H   -3.6679306109   -2.7123387793   -2.8960234496
 H   -3.5229219935   -3.8045350728   -1.5141053887
 H   -4.4233898167   -2.2886092672   -1.3540323635
 H   -0.9511383848   -3.8004863435   -1.4128833096
 H   -0.0728686448   -2.2684692982   -1.8534378545
 H   -1.6707651115   -2.7734542968    0.7847466233