16

 O   -0.2779700730    0.4107270334   -0.8045012722
 C    0.0126596851    1.1560896156    0.1000906758
 C    1.3127286935    1.8436805593    0.2150635925
 C    1.7527090491    2.9451220962    1.1892341776
 C    3.2688097412    2.9715887501    1.0304590181
 C    3.7691934377    1.6679121848    0.4424568116
 C    2.5772489972    1.3606806655   -0.4360412948
 N    1.9381483376    2.5801548082   -0.9656039026
 C    2.3795075330    3.6470006429    0.0197013771
 H   -0.6980911354    1.3630987420    0.9318094914
 H    1.2027801046    3.3334364307    2.0345100037
 H    3.8601807742    3.5741415681    1.7077128069
 H    4.6864412132    1.7969699186   -0.1415276385
 H    3.9352221773    0.8876279196    1.1918891097
 H    2.5235487765    0.5005738511   -1.0929254011
 H    2.4016437281    4.6826444139   -0.2884556351