19

 O   -0.0377352881    1.3826571990   -0.0232728484
 C    0.0108132571   -0.0240883425    0.0003808500
 C   -1.4134603829   -0.6372040363   -0.1193919210
 C   -1.2753682936   -0.4546267568   -1.6636364759
 C    0.2535106354   -0.6251794062   -1.4152941772
 O    1.1953021177    0.0906136817   -2.1810073525
 C    0.5534792554   -2.0997959695   -1.2514369924
 C   -0.2341975627   -2.8154571703   -0.4484502341
 C   -1.3827008816   -2.1284205859    0.2587661905
 H    0.6565269205    1.6620091316   -0.6345074831
 H    0.6579616674   -0.3945591945    0.8064665958
 H   -2.2122398408   -0.0898858160    0.3830467619
 H   -1.7619944044   -1.1779625284   -2.3220208278
 H   -1.5180549828    0.5685434334   -1.9534917984
 H    0.9390196058    0.0454621820   -3.1073783908
 H    1.4103123797   -2.5104124111   -1.7762107236
 H   -0.0747632838   -3.8769517113   -0.2829843119
 H   -1.2767945531   -2.2409584002    1.3469117581
 H   -2.3363031453   -2.6099176786    0.0004126309