20

 C    0.0148758995    1.5940078243   -0.0648843674
 C    1.5440559988    1.5870366293   -0.1160537383
 C    2.2026928679    0.7576288945    0.9685082407
 C    1.7534493874    0.5325336832    2.4055213999
 C    0.2431035475    0.2811418376    2.5825227088
 C   -0.3649343530   -0.5413693675    1.4347551562
 C    0.0283711878    0.0300588873    0.0683227836
 C    1.5530431549    0.0556965878   -0.1853500275
 H   -0.4753621837    2.1807353137    0.7176115489
 H   -0.4059862933    1.8946441268   -1.0281220862
 H    2.1389107224    2.2844009836   -0.6956181044
 H    3.2865041283    0.8027112222    0.8731658568
 H    2.3046554373   -0.3437159448    2.7746142569
 H    2.0648850827    1.3727925368    3.0384673833
 H    0.0685403791   -0.2218849193    3.5398444598
 H   -0.2819316048    1.2398375746    2.6497051623
 H   -0.0226510123   -1.5838183475    1.4927498531
 H   -1.4564249999   -0.5638565431    1.5409912685
 H   -0.5317066294   -0.4572497225   -0.7326970762
 H    2.0867273128   -0.6012060371   -0.8621899588