21

 C   -0.0752441269    1.4954735546   -0.0419264273
 C    0.0577480751   -0.0218545458    0.0330287714
 C    1.0714252182   -0.6261232487   -0.9640765172
 O    2.3098308740    0.0528153612   -0.5865690298
 C    2.2367071455   -0.7835640615    0.5725187607
 C    1.5219905859   -1.9218966272   -0.1792201779
 C    0.5862016015   -2.1411178970    1.0178410114
 C    0.7913266644   -0.6194924753    1.2732223283
 C    0.5968923685   -0.0034788666    2.6373237212
 H    0.9021494977    1.9769448922    0.0284221819
 H   -0.5329283123    1.7971218408   -0.9909246661
 H   -0.7112617014    1.8753506839    0.7640666035
 H   -0.9289192030   -0.4870247352   -0.0761719825
 H    0.8689990957   -0.6001343220   -2.0347692367
 H    3.1422642099   -0.8456716565    1.1757168495
 H    2.0380254365   -2.7068189879   -0.7291013514
 H   -0.4359574536   -2.4962150467    0.8548527354
 H    1.0723804920   -2.7630262283    1.7764604648
 H    1.1994652278   -0.5192339183    3.3930614431
 H    0.8852881193    1.0528705380    2.6460370377
 H   -0.4506070646   -0.0633185438    2.9562859801