21

 C    0.0156115959    1.6728754890    0.2219541228
 C   -0.0370965840    0.1572723730    0.0129313107
 C    0.8971986415   -0.3374105902   -1.1352271647
 C    1.9868490131   -0.6667657175   -0.0790193743
 C    0.8779964036   -0.6267182648    1.0036335852
 O    1.1181322214    0.0336875409    2.2246629908
 C   -1.4741364932   -0.3068217020   -0.0158368169
 C   -2.2296525011   -0.5109802672   -1.2573075931
 O   -1.7333146032   -1.6251959531   -0.5089724258
 H    1.0454755366    2.0356672561    0.2672745607
 H   -0.4919685505    2.1868601264   -0.6016109789
 H   -0.4702305871    1.9585967046    1.1596370800
 H    0.5006298634   -1.2389920580   -1.6069401561
 H    1.1534866588    0.3942522316   -1.9047471282
 H    2.5471682225   -1.5970718773   -0.1984699527
 H    2.6901502878    0.1584111428    0.0600376087
 H    0.4642083166   -1.6314164934    1.1679659162
 H    1.6471302757   -0.5435052869    2.7837938907
 H   -2.0438657979   -0.0601111695    0.8832045710
 H   -3.3126189333   -0.3969128379   -1.2622044529
 H   -1.7410820666   -0.3427469967   -2.2159940829