16

 C   -0.0862714657    1.4680060387   -0.0016995018
 O    1.1463367870    0.7363041733    0.0015199632
 C   -0.0820762374    0.0035928641    0.0071382444
 C   -0.3492793410   -0.8513379384    1.2277189464
 N   -1.7450572362   -1.3087219537    1.3710379306
 C   -0.7444555645   -2.2102025195    0.7626715326
 C   -0.7516602562   -2.1933364243   -0.7589761340
 O   -1.7025435883   -1.2994515545   -1.3376076162
 C   -0.3515900303   -0.8489301245   -1.2140563706
 H   -0.3125257897    2.0072317640    0.9165136498
 H   -0.3113609682    2.0012762537   -0.9238016932
 H    0.2625727882   -0.6743679160    2.1063206909
 H   -1.8943965676   -1.5914106692    2.3377168696
 H   -0.4427143168   -3.1142184724    1.2789441565
 H   -0.5473217254   -3.1024736114   -1.3168015061
 H    0.1782730223   -0.6289428298   -2.1377893021