18

 C   -0.0663889405    1.5071069573    0.0819692390
 C   -0.0026778645   -0.0145211995    0.0241263531
 C    0.8003457982   -0.5484489198   -1.1514848956
 O    0.6602672743   -0.5176461117    1.2241318785
 C   -0.0835652028   -0.6709340877    2.3191548579
 O   -1.2665634545   -0.4281496738    2.4087543787
 C    0.7204665866   -1.2062481887    3.4923678437
 O   -0.0915380013   -1.3565924200    4.6215688469
 H    0.9395695257    1.9328674597    0.1509079482
 H   -0.5425411718    1.8941150099   -0.8241508818
 H   -0.6528472852    1.8358506263    0.9426162793
 H   -1.0157235083   -0.4256949435    0.0206164795
 H    1.8263906047   -0.1687600961   -1.1258305733
 H    0.8357129117   -1.6408761915   -1.1349470066
 H    0.3395977257   -0.2319769508   -2.0917182358
 H    1.1732570381   -2.1627598744    3.1908007389
 H    1.5519468384   -0.5115675124    3.6842910025
 H   -0.9763614646   -1.0779858533    4.3411759070