17

 C   -0.2237449632    1.7360945221   -0.2669288424
 C   -0.0147959047    0.2396756618   -0.1395782746
 C   -1.2885193410   -0.5404621462    0.2186534298
 C   -1.9446843965   -0.0790140815    1.4353182864
 C   -2.4848027052    0.3050346265    2.4372650616
 C    0.8532775457   -0.4307045148   -1.2291442447
 C    1.8433697842   -0.6447162427   -0.0858464722
 O    2.9196493402   -1.1242582716    0.0694113290
 O    1.0468094167   -0.0484406868    0.8548930435
 H    0.7202461653    2.2364733024   -0.4980961995
 H   -0.9377853856    1.9525230760   -1.0683685430
 H   -0.6187541379    2.1459537839    0.6654881158
 H   -1.9814045822   -0.4653773792   -0.6299545800
 H   -1.0296498640   -1.6012663394    0.3194029893
 H   -2.9592908876    0.6358050936    3.3279291412
 H    0.4617034931   -1.3527741210   -1.6633225861
 H    1.2156439127    0.2238070869   -2.0234355041