15

 O   -0.0539246548    1.5003501930   -0.1555012830
 C    0.0816064844    0.0915324202   -0.1350992574
 C   -1.3165742407   -0.4816545589    0.1245714666
 C   -1.3389777339   -1.9654509884    0.1663996546
 C   -1.5930587484   -2.8821633524    1.1426156320
 O   -1.9222006075   -2.6711614681    2.4294511445
 N   -1.4602139646   -4.1282142748    0.6000106176
 N   -1.1436061869   -4.0352868078   -0.6257178383
 O   -1.0545104865   -2.6717088567   -0.9459197501
 H    0.8095593878    1.8856628815   -0.3302065377
 H    0.4638470207   -0.2963723755   -1.0908558554
 H    0.7683406902   -0.2417092542    0.6582426494
 H   -1.6887252728   -0.1016223409    1.0800694139
 H   -1.9900794389   -0.1142160475   -0.6581171316
 H   -2.0526593481   -3.5331122498    2.8429330549