13

 O    0.0123120500   -0.0807224276    0.0023037000
 C    0.0323441127    1.1339708013    0.0087044155
 N   -1.1849617983    1.8213431303    0.0285880519
 C   -1.5713825760    3.1501961203    0.0413056245
 O   -2.7505982231    3.4413937671    0.0586088079
 C   -0.5657742076    4.2644847050    0.0338220568
 N    0.7084526470    4.2944294835    0.0169086728
 C    1.5551193586    3.1919262404   -0.0004051459
 C    1.3034658461    1.8709721501   -0.0041954512
 H   -1.9776175522    1.1870174965    0.0356602568
 H   -1.0901544356    5.2212471620    0.0460945023
 H    2.6005151669    3.4903548546   -0.0127621833
 H    2.1508041014    1.1936795066   -0.0191699979