15

 C    0.0520897889    1.5500859606    0.2130352234
 C   -0.0260563583    0.0412158894   -0.0801016052
 C   -1.4256813051   -0.4633877181   -0.1702428583
 C   -2.1741475930   -0.9993203844   -1.1719138869
 C   -3.4330244586   -1.2418658868   -0.5541308401
 N   -3.4415163294   -0.8805533120    0.7156452076
 O   -2.1757256527   -0.3915035475    0.9512666932
 C   -4.5990268698   -1.8023202974   -1.1518641089
 N   -5.5219517914   -2.2602205219   -1.6763765006
 H    1.0960292848    1.8668028539    0.2818857930
 H   -0.4306689747    2.1289208748   -0.5794884353
 H   -0.4423755893    1.7888892207    1.1578893353
 H    0.4771547607   -0.1922233653   -1.0227495276
 H    0.4975299833   -0.5140758559    0.7071752762
 H   -1.8883786655   -1.1975106100   -2.1904445459