10

 O   -0.0594886630    1.3381374417    0.0098873635
 C    1.2526235592    1.7241950179   -0.0006590562
 N    2.1317823430    0.7778829442   -0.0141089384
 N    1.3326054083   -0.3479497477   -0.0125512379
 C    1.3383895822   -1.7187664350   -0.0199684634
 N    0.0913402886   -2.1348427746   -0.0103942885
 N   -0.7806369879   -1.0418543586    0.0039808851
 C    0.0180046811   -0.0196363796    0.0018041510
 H    1.4560561709    2.7825149163    0.0031096869
 H    2.2227735475   -2.3320469146   -0.0317391422