15

 O   -0.0126033292    0.0039467483    0.0033191887
 C   -0.0266897443    1.2117389845    0.0102653110
 C   -1.2926779723    2.1308930091    0.0328092399
 C   -0.6659005782    3.4825586080    0.0315333153
 C    0.7005461339    3.3941274844    0.0121696300
 N    1.0818208421    2.0406242175   -0.0005086267
 C    1.2536992340    4.6951358404    0.0116860817
 C    0.1645425257    5.5532854009    0.0314597369
 N   -0.9947762799    4.8121364134    0.0434026342
 H   -1.9101839449    1.8940823241   -0.8414137761
 H   -1.8857453537    1.8844524513    0.9211807876
 H    2.0180544201    1.6735739835   -0.0155921329
 H    2.2904781002    4.9912032797   -0.0010117739
 H    0.1295081186    6.6303857894    0.0378543986
 H   -1.9225387618    5.1972299956    0.0582964358