19

 C   -0.0633563996    1.4469692150    0.2081672622
 C   -0.1100905815   -0.0398802954    0.0056785701
 C    0.3697780860   -0.7748259682   -1.2699017020
 C   -0.4229051668   -1.9413868210   -0.6653230507
 C    0.0323551835   -2.0455833941    0.8425418061
 O    0.6350699378   -0.7501584641    1.0329405076
 C   -1.4228981119   -1.7494750425    1.2790199930
 O   -1.6306712211   -1.1582876681    2.5260001915
 C   -1.4346333660   -0.9206131524   -0.0199214902
 H    0.9731361778    1.7996596589    0.2198640909
 H   -0.5925586702    1.9595530490   -0.6000651247
 H   -0.5328187368    1.7269455822    1.1562957842
 H   -0.1144572764   -0.3971366354   -2.1745591627
 H    1.4499545553   -0.8639159695   -1.4135055307
 H   -0.7113646389   -2.8459174108   -1.1955491184
 H    0.6560683858   -2.8346656283    1.2593982753
 H   -2.0759932846   -2.6222583955    1.1916046195
 H   -0.8620617452   -0.5888646491    2.6667864470
 H   -2.3227166272   -0.5287366907   -0.5117896879