18

 C   -0.2418044661    1.4444231619    0.0569574194
 C   -0.0518396926   -0.0574741632   -0.0203772460
 C   -1.2537792669   -0.8300102133   -0.5052234707
 O   -1.5577377834   -0.4867455152   -1.8688746687
 C   -2.7894537573   -0.0325184747   -2.1581544988
 O   -3.1302218753    0.2593196076   -3.2649420776
 C    1.3081923649   -0.6022267345   -0.3842559503
 C    0.7962228475   -0.7421606956    1.0277606707
 H    0.6639932888    1.9351464291    0.4242353541
 H   -0.4714384590    1.8631316691   -0.9281422819
 H   -1.0611039804    1.7077617297    0.7370973788
 H   -1.0600057844   -1.9073114032   -0.4809400657
 H   -2.1306144373   -0.6263327280    0.1254586579
 H   -3.4415918338    0.0393149221   -1.2646956945
 H    1.3560142392   -1.4918580180   -1.0028488544
 H    2.1024562104    0.1113320924   -0.5735007058
 H    1.2354656407   -0.1201391011    1.7999105384
 H    0.5031287249   -1.7290909149    1.3712270149