21

 C    0.0108015979    1.5042868943   -0.2990909594
 C   -0.0255415922    0.0253662343   -0.0057627029
 O    1.2170975236   -0.6847700577   -0.0161466806
 C    0.4899729889   -0.6113821804    1.2205091160
 C    1.1415951292    0.1245840309    2.3588291954
 C    0.2665271819    0.5332476068    3.5986438165
 C    1.2463342947   -0.2108926393    4.5153168942
 C    1.2997077451   -1.6605153873    4.1311739483
 C    2.0664936190   -0.6633903425    3.3050183838
 H    0.8108867357    2.0107704878    0.2437614293
 H    0.1716929755    1.6711689012   -1.3694346077
 H   -0.9439902169    1.9687560276   -0.0290725974
 H   -0.8291668057   -0.5069252228   -0.5209216847
 H    0.0263089741   -1.5596702453    1.5019392013
 H    1.6682189209    0.9972165075    1.9685842809
 H    0.2463966561    1.6146822579    3.7474347032
 H   -0.7647314435    0.1629120482    3.6123808509
 H    1.5921165676    0.1412092357    5.4792583316
 H    1.9149654056   -2.2904757034    4.7656482289
 H    0.4160078110   -2.1620213716    3.7427691960
 H    3.1416812616   -0.7336108519    3.1937462964