21

 C    0.0335109133    1.5787234726   -0.1213268137
 C    1.3069463791    0.7924624410    0.0151708923
 O    2.0930853739    0.8229178072    1.1735935181
 C    1.3801923614    0.7446889489    2.4007920162
 C    0.5317902169   -0.5207820152    2.4849842856
 C   -0.7068417720   -0.4096662924    3.4163393343
 C   -1.5895048367   -0.1089992649    2.1715849248
 C   -0.4380999160   -0.6386595035    1.2656284337
 C   -0.0136227689    0.0582353317   -0.0129474512
 H   -0.3162243729    2.1650501025    0.7203961584
 H   -0.1853922747    2.0268085855   -1.0844857613
 H    1.9634551208    0.7244548451   -0.8453162851
 H    2.1449443008    0.7603199436    3.1827052373
 H    0.7585029902    1.6428099059    2.5428640425
 H    1.1864226140   -1.3819114363    2.6430548425
 H   -0.9547332180   -1.3668398508    3.8822100708
 H   -0.6728303362    0.3524268367    4.2006498743
 H   -2.5524629178   -0.6207025245    2.1018129032
 H   -1.7650063651    0.9612897595    2.0348271589
 H   -0.6065293448   -1.6961644667    1.0430948523
 H   -0.2526151673   -0.4685406159   -0.9316246838