21

 C   -0.1949004437    1.5725321510   -0.1799134290
 N   -0.1722588356    0.1883589589    0.3004162626
 C   -1.3917060228   -0.5336681737    0.0399500795
 C   -1.6405158078   -1.2160609568   -1.3015524487
 N   -1.5839704446   -0.8497656574   -2.5022148510
 O   -1.9015010561   -2.4484493461   -0.7498080900
 C   -1.5628830102   -1.9761867935    0.6172946012
 C   -0.2913053994   -2.6504281706    1.1018370172
 C   -2.7401448865   -2.1834327108    1.5520084068
 H    0.7698158261    2.0399938376    0.0370749947
 H   -0.3995041144    1.6677469583   -1.2559102306
 H   -0.9652237608    2.1293690277    0.3651853756
 H    0.6103208516   -0.2943487430   -0.1280614744
 H   -2.2355431617    0.1048737931    0.3213407816
 H   -1.7726293359   -1.6279844529   -3.1377356612
 H    0.5022263710   -2.5916743175    0.3518177535
 H    0.0645193622   -2.1692007582    2.0171366989
 H   -0.4778145895   -3.7081927474    1.3100699816
 H   -2.9365304003   -3.2500460726    1.6990828279
 H   -2.5279996374   -1.7369586161    2.5290449615
 H   -3.6446421740   -1.7202605600    1.1479193926