19

 O    0.2146836088   -0.2028607794   -0.1876218264
 C    0.0721630114    0.9971596775   -0.1644958342
 C    1.2034943025    1.9426541805    0.0184859588
 C    1.1492583494    3.4263507432   -0.3136480163
 C   -0.1915858192    4.1824648034   -0.3098727866
 C   -0.6436691666    4.3002253119    1.1538538072
 C   -1.0585906978    3.0886924130    1.9518553370
 C    0.3682340617    3.5707141454    2.0188019611
 C    1.4355870148    3.0141140060    1.1036195944
 H   -0.9247494487    1.4445388387   -0.3567671794
 H    2.1343812560    1.4480657535   -0.2475539687
 H    1.9272457358    3.8007928766   -0.9707355141
 H   -0.0144678531    5.1869680971   -0.7068982398
 H   -0.9498507373    3.7287897286   -0.9569795140
 H   -1.0558930572    5.2542197383    1.4643534563
 H   -1.6757637542    3.2826830514    2.8236634735
 H   -1.2920456939    2.1494738709    1.4699398913
 H    0.7230565238    3.9884057334    2.9540548913
 H    2.4474241239    3.0193901899    1.4925427287