17

 C   -0.1277160924    1.5741497612   -0.2318634524
 C    0.0271992632    0.0821609639    0.0132258234
 O    1.1314002048   -0.4701234217   -0.7835807875
 C    1.9333658151   -0.6846054948    0.4244417486
 C    0.6791135276   -0.4793346390    1.2337061289
 C   -0.1461732535   -1.1086235665    2.0692105740
 C   -1.5761110639   -0.9421587441    1.5867611099
 C   -1.3597058016   -0.6239601043    0.0708210177
 O   -2.0952352075   -0.8966229256   -0.8319420600
 H    0.8225892278    2.0926271318   -0.0786205041
 H   -0.4547563220    1.7350957884   -1.2639205985
 H   -0.8761678487    2.0131587446    0.4362975791
 H    2.3904075146   -1.6783407230    0.4600141656
 H    2.7108587493    0.0839797102    0.5133244811
 H    0.1317244491   -1.8030958979    2.8533166479
 H   -2.1826151076   -1.8445571824    1.7093909401
 H   -2.1322061342   -0.1185357709    2.0541053462