21

 C    0.5315206789    0.7178334125    0.7565445408
 C   -0.2538868787    0.3596906357   -0.5083919606
 N    0.4057380976   -0.4121093823   -1.5488047129
 C    1.6112815378   -0.7686359099   -1.4240195271
 N    2.3035148253   -1.4863417194   -2.4056429612
 C    3.6603629897   -1.9658032376   -2.1301779278
 C    3.6867593256   -3.3789567177   -1.5453556078
 C    1.7309069619   -1.7893975586   -3.6284195920
 O    2.2934489527   -2.4372369540   -4.4839276239
 H    0.8658513904   -0.1738722672    1.2977309847
 H    1.4106135578    1.3322551971    0.5341223094
 H   -0.1099548630    1.2919567207    1.4314344000
 H   -1.1588442333   -0.1956402737   -0.2276599947
 H   -0.6205873241    1.2813342202   -0.9801768836
 H    2.2444795414   -0.5580735218   -0.5556335215
 H    4.2041080520   -1.9427580872   -3.0764424188
 H    4.1353276159   -1.2533508561   -1.4482668258
 H    3.2376631176   -4.0865823013   -2.2464638117
 H    4.7189783250   -3.6899955569   -1.3568174387
 H    3.1371279700   -3.4289821348   -0.5999292054
 H    0.7205090996   -1.3696183378   -3.7263109713