10

 N    0.0900133951    1.4143404295    0.1621276232
 C   -0.0240762673    0.0330628975    0.0345048197
 C   -1.0977410345   -0.8309674900   -0.0230545426
 N   -0.6269137856   -2.1105190381   -0.0566776092
 N    0.6680701694   -2.1022168362   -0.0303861643
 N    1.0477211667   -0.7951859862    0.0332674309
 H    0.7509941789    1.8328996415   -0.4813885665
 H   -0.8043450251    1.8772555950    0.0718751964
 H   -2.1519230355   -0.6075617081   -0.0436982062
 H    2.0248874379   -0.5634672950    0.1080415686