16

 C   -0.2263065428    1.5959635023   -0.0356093291
 C    0.0074831105    0.0912305601   -0.0497840268
 C   -1.2575415879   -0.6908844353    0.2774709696
 C    0.8345843556   -0.4461247427   -1.2504177230
 C    1.9012243077   -0.7824565535   -0.1928063639
 O    1.0822971205   -0.2670837160    0.8733255585
 H    0.7006607439    2.1343929370   -0.2526552425
 H   -0.9760076381    1.8805384944   -0.7822093805
 H   -0.5837609123    1.9160501814    0.9485255125
 H   -2.0432520527   -0.4859289749   -0.4581227257
 H   -1.0583781522   -1.7663398377    0.2812360754
 H   -1.6327290583   -0.4104377315    1.2670840616
 H    0.3963554434   -1.3024943826   -1.7664503610
 H    1.1221963819    0.3068278606   -1.9866554413
 H    2.1228676855   -1.8490628285   -0.0618567754
 H    2.8496087554   -0.2379814529   -0.2824325586