21

 C   -1.1729537434    2.2071760551   -0.3995663864
 C   -0.9057879943    0.9613772530   -1.2415417456
 N   -1.6418155423   -0.1787368252   -0.6995761056
 C   -1.3638853274   -1.5460872573   -1.1110662711
 C   -0.3131869672   -1.9302408031   -2.1304615747
 C   -1.0187118474   -1.0796616548    0.2864639587
 C    0.4191848503   -0.9446214991    0.7649931505
 C   -1.9245624405   -1.4628686804    1.3575168877
 N   -2.6231760311   -1.7899004162    2.2190035123
 H   -0.6783646223    3.0791251652   -0.8383111892
 H   -2.2462651818    2.4042648681   -0.3379581161
 H   -0.7952978246    2.0826187052    0.6202784924
 H   -1.2787404583    1.1141449797   -2.2609857994
 H    0.1783243391    0.7973395790   -1.3249193241
 H   -2.2716246187   -2.1430058874   -1.1969684605
 H    0.6098217983   -1.3546098603   -2.0493209384
 H   -0.0620367705   -2.9905467669   -2.0255784145
 H   -0.7083090980   -1.7845212072   -3.1414803234
 H    1.1103614827   -0.7272647603   -0.0486306061
 H    0.5036858665   -0.1483436439    1.5105033149
 H    0.7383649610   -1.8779966234    1.2376857088