16

 O    0.0193855271   -0.0273637585    0.4782946996
 C   -0.0199087611    1.1551791905    0.1950304158
 C   -1.3390349896    1.8646957379   -0.0762574044
 C   -1.2438446148    3.3179623793   -0.4135738095
 C   -0.0863045917    3.9874967070   -0.4817425066
 C    1.2422460857    3.3191321460   -0.2191323857
 N    1.1114866135    1.9117099580    0.1042761745
 C   -0.0182182011    5.3708359745   -0.8045774726
 C    0.0981515371    6.5394528020   -1.0727054795
 H   -1.8418259939    1.3099071805   -0.8794724620
 H   -1.9734701590    1.7099035249    0.8065123476
 H   -2.1716659768    3.8463542584   -0.6115829427
 H    1.8828192449    3.4457168561   -1.1040504696
 H    1.7492542297    3.8497323784    0.5999266548
 H    1.9584419469    1.3947202748    0.2929353663
 H    0.1791347631    7.5711144503   -1.3111208758