19

 C   -0.0134777747    1.5458370273    0.1624710391
 C   -0.0819656344    0.0205557131    0.0513222805
 C   -1.5002276500   -0.5586633469   -0.0883586635
 C   -2.2249873660   -0.1145336038   -1.3515310897
 C   -1.4955895178   -2.0925349491    0.0960152711
 O   -1.8123020971   -2.2780254481    1.4758758337
 C   -2.3561480287   -1.1363195720    1.9752059843
 O   -2.8261716093   -1.0315318339    3.0625407994
 O   -2.2848928728   -0.1412184846    1.0583256587
 H    1.0142884177    1.8651020453    0.3566862427
 H   -0.3416074406    2.0398526572   -0.7569668496
 H   -0.6406660162    1.9026319876    0.9833884672
 H    0.5060399464   -0.3262356398   -0.8080002971
 H    0.3745927916   -0.4311860052    0.9408244950
 H   -1.6863590638   -0.4648353950   -2.2379961992
 H   -3.2372036687   -0.5265223611   -1.3745376427
 H   -2.2983495923    0.9735725232   -1.4025332212
 H   -2.2570159814   -2.5883652857   -0.5163931002
 H   -0.5208756018   -2.5426185984   -0.1042737186