12

 C    0.0054002111    1.4226467281    0.0262948123
 N   -0.0257445215   -0.0300221679    0.0460777857
 N   -0.2110829128   -0.7594236841   -1.0576603010
 N   -0.1827993792   -2.0095766451   -0.6788156159
 C    0.0204027931   -1.9692423941    0.6487327759
 N    0.1246695481   -0.7452289370    1.1438789982
 N    0.1194478447   -3.1612533406    1.4825248007
 O    0.0073487039   -4.2322214804    0.9122103935
 O    0.3054602571   -2.9785444575    2.6745322674
 H    0.9722242576    1.7707091123    0.3935181861
 H   -0.1444969749    1.7319660873   -1.0068825818
 H   -0.7915402070    1.8121758191    0.6618248187