19

 C   -0.0382869323    1.6227962691   -0.2121969538
 C   -0.0559549295    0.0989328282   -0.0700246667
 C    1.0828988781   -0.5464303564   -0.8982745977
 C    2.1748169522   -0.7301447948    0.2065466805
 N    1.4043909000   -1.1291511843    1.4213085360
 C    0.2624520261   -0.6173490152    1.2357823973
 N   -1.0373180324   -1.1251328048    1.5828668965
 C   -2.0388906054   -0.0513637256    1.4029491978
 C   -1.4381410109   -0.5600737349    0.1605170560
 H    0.9818430609    2.0039174813   -0.1050276991
 H   -0.3938046924    1.9096097155   -1.2083118746
 H   -0.6578393665    2.1396070826    0.5230908552
 H    0.7920228063   -1.5334830536   -1.2728052303
 H    1.4045146313    0.0631908595   -1.7476799766
 H    2.8814733879   -1.5270078985   -0.0384010736
 H    2.7605889465    0.1833711829    0.3764143111
 H   -3.0371145238   -0.3949399443    1.6567012601
 H   -1.8140964957    0.9492312743    1.7581554190
 H   -1.9576473703   -1.2247450410   -0.5205206870