15

 N    0.0473316399    1.3376773453    0.1482159459
 C    0.0075264972   -0.0204397145    0.0102556159
 N   -1.0807070609   -0.6902282794   -0.1198994420
 C   -0.7517677387   -2.1250442339   -0.0682378240
 C   -1.3343407925   -2.8566331383   -1.2024145197
 N   -1.7880867993   -3.4692653591   -2.0699432739
 C    0.7807193287   -2.2335903422   -0.0197913447
 N    1.4240282487   -1.6136993474   -1.1859595761
 C    1.2662690619   -0.8370451675    0.0727243090
 H    0.8723212523    1.8104238553   -0.1858316537
 H   -0.8215130311    1.8127369238   -0.0513961540
 H   -1.1789138478   -2.5583109715    0.8470536749
 H    1.2571413607   -3.0629193588    0.4893907620
 H    2.3830410659   -1.9505547272   -1.2478386103
 H    2.1333891150   -0.5254801347    0.6440549005