19

 C   -0.0056715325    1.4940672145    0.0495196044
 C    0.0977149138   -0.0319815864   -0.0029560207
 C    0.7034705695   -0.5281046091   -1.3081209914
 O    0.7573699877   -1.9398888529   -1.2726987617
 C    1.2848709717   -2.5005137758   -2.4351164752
 C    1.1762276981   -4.0281991609   -2.3529834987
 N    2.0071510066   -4.6778618536   -3.2280575154
 O    0.3903757983   -4.6035595312   -1.6363624209
 H    0.9789379680    1.9659413363   -0.0434273612
 H   -0.6356278598    1.8806854219   -0.7593499047
 H   -0.4428105608    1.8247901271    0.9958681693
 H    0.7106532541   -0.4019064970    0.8266394663
 H   -0.8920292099   -0.4870652929    0.1136319085
 H    0.0971304430   -0.1916157964   -2.1677446745
 H    1.7155556135   -0.1074578714   -1.4469289372
 H    0.7297716638   -2.1720350732   -3.3327341432
 H    2.3375297367   -2.2001391551   -2.5891228161
 H    2.7907142972   -4.2144011504   -3.6551619644
 H    2.0215222711   -5.6843650736   -3.1878881733