23

 C    0.2755152911    1.2725005237   -1.9128388640
 C    0.1968806130    0.1299982520   -0.8921385721
 C   -1.0447404877   -0.7077180696   -1.1020049137
 O   -0.9824010196   -1.7299728175   -2.1069352100
 C   -1.2500991126   -2.1304216485   -0.7636868407
 C   -0.2930293087   -3.1074225651   -0.0717372621
 C   -0.8230594705   -3.3947452313    1.3417240842
 C   -0.2165699489   -4.3877011586   -0.9093553374
 O    1.0502586544   -2.6312681315    0.0072156672
 H    1.1749286348    1.8758345239   -1.7586821424
 H    0.3041101001    0.8762218825   -2.9324306829
 H   -0.5913999673    1.9382238697   -1.8358609883
 H    1.0742430584   -0.5120658947   -0.9766823953
 H    0.1789527974    0.5463788941    0.1250936540
 H   -1.9610734874   -0.1105917894   -1.1607583861
 H   -2.2925705948   -2.4292032969   -0.6125890404
 H   -1.8220194774   -3.8403406461    1.3176994616
 H   -0.1483365953   -4.0861570666    1.8537793651
 H   -0.8855180334   -2.4717232009    1.9314946944
 H    0.1876793670   -4.1532381976   -1.8964892039
 H    0.4379395371   -5.1149844894   -0.4215579349
 H   -1.2077903874   -4.8328909655   -1.0350791337
 H    1.0844845577   -1.9507147467    0.6872229415