21

 C   -0.4350301260    1.5408149954    0.0263142320
 C   -0.0768837084    0.0569036725   -0.0478400682
 C   -1.2617071892   -0.8106063930    0.4072559918
 C    0.6028402497   -0.5253411202   -1.3487442010
 C    1.1092113920    0.4836328295   -2.3643386762
 O    1.8183880653   -0.2431537626   -3.3577938825
 C    1.7403733768   -1.1558401488   -0.4862645841
 C    1.2054705639   -0.3568733295    0.7086553520
 O    1.6352901205   -0.0807077231    1.7922810961
 H    0.3879289744    2.1857735210   -0.2933849911
 H   -1.3093241440    1.7690038222   -0.5930867329
 H   -0.6755187810    1.8081454850    1.0599679900
 H   -2.1221935773   -0.6526534441   -0.2523317068
 H   -1.0170084295   -1.8775878857    0.3883272869
 H   -1.5587475582   -0.5509959333    1.4281598328
 H   -0.0185350360   -1.2571508263   -1.8707258775
 H    0.2641181093    1.0383655274   -2.8015155475
 H    1.7663309083    1.2205488381   -1.8741853933
 H    2.1815039623    0.3846220415   -3.9894521665
 H    1.6573544520   -2.2371931573   -0.3419218631
 H    2.7655717049   -0.9313873086   -0.7915020810