19

 O   -0.3700536211    0.9736330095    0.6717560667
 C    0.0216295804   -0.2174613806    0.0277233868
 C    0.8538974098   -1.1288339444    0.9825643939
 C   -0.1559805309   -2.0531442244    1.6448415942
 C   -1.4083725634   -1.4287668485    2.2117185653
 C   -1.4270765055   -2.0283508722    0.8262513280
 C   -1.2161127531   -1.0885304730   -0.3507032367
 C    0.8243400192    0.1368228181   -1.2070087087
 O    1.0516612530    1.2789622185   -1.5246045539
 H   -0.0067617190    1.6947603465    0.1324356186
 H    1.5754676723   -1.7276830911    0.4109537567
 H    1.4155263817   -0.4985737165    1.6774955998
 H    0.2109247356   -2.9742578668    2.0838078786
 H   -1.9208986758   -1.9828457924    2.9906381516
 H   -1.4532479944   -0.3509613642    2.3142935249
 H   -2.0037191244   -2.9309694429    0.6572598844
 H   -2.0635692424   -0.4311891277   -0.5635024257
 H   -1.0101384037   -1.6775209143   -1.2544214013
 H    1.1942417019   -0.7201351935   -1.8069468132