15

 O    1.0156355946    1.0759230345    0.6919270256
 C    0.4112279094   -0.0589217966    0.2844464846
 N    0.7127271186   -0.6299607246   -0.8741285093
 N   -0.1069260570   -1.7143578656   -0.9307884971
 C    0.0628757401   -2.6393280037   -2.0400283210
 C   -1.0868691750   -3.5135457324   -2.2299065713
 C   -2.0159432934   -4.2554384282   -2.3973406343
 C   -0.8842687130   -1.8267725146    0.1706911759
 C   -0.5865359189   -0.7596653861    0.9931782844
 H    1.6440517431    1.3249352438    0.0027229742
 H    0.2372912220   -2.0354508736   -2.9367869316
 H    0.9669960180   -3.2441526727   -1.8846575752
 H   -2.8416669945   -4.9054074388   -2.5530445532
 H   -1.5866946386   -2.6374977462    0.2757329581
 H   -1.0253581854   -0.5109973053    1.9441956502