21

 C   -0.2234229786    1.2765530509   -0.1962598072
 C    0.0280100970   -0.2350430127   -0.1328956878
 C    0.7852562354   -0.7382582772   -1.3644788384
 O    0.0094690412   -0.5222549435   -2.5520784911
 C    0.5735477468    0.1326914653   -3.5818038167
 O    0.0038697753    0.3358401171   -4.6115328509
 C    0.7857168448   -0.6296462002    1.1220434276
 C    0.0508335175   -0.8429896931    2.4201974726
 C    0.6589173608   -2.0193603269    1.6974192490
 H    0.7228931511    1.8311162231   -0.2081995890
 H   -0.7874900049    1.5475067332   -1.0925793016
 H   -0.7909228231    1.6089179417    0.6774208334
 H   -0.9417168761   -0.7507778947   -0.1212268713
 H    1.7548114931   -0.2283795117   -1.4561416538
 H    0.9722743467   -1.8137270750   -1.2857090963
 H    1.6109137427    0.4578574541   -3.3662071928
 H    1.7681375423   -0.1690303653    1.2096662681
 H    0.5153359962   -0.5043121354    3.3394096601
 H   -1.0303568524   -0.7483805293    2.4091442268
 H   -0.0178069737   -2.7114183087    1.2060465144
 H    1.5396833581   -2.4884112716    2.1215756849