16

 O   -0.0994421973    1.4116384010   -0.2714395149
 C    0.0035887827    0.0433594986    0.1086208169
 C   -1.3972400771   -0.5338967164    0.0720032659
 C   -1.9741315041   -0.8347732506   -1.3539123458
 O   -1.1350035554   -2.0404550597   -1.3752751559
 C   -1.5058312032   -2.0958247579    0.0425643356
 C   -3.0311129351   -2.2904874406   -0.0414691979
 C   -3.3516333628   -1.4237551115   -1.0045525440
 H    0.7883979089    1.7786844679   -0.3098726120
 H    0.6507799378   -0.5208750630   -0.5748667767
 H    0.4127122355   -0.0548304531    1.1279500102
 H   -2.0591930422   -0.0045382161    0.7613501650
 H   -1.8466560304   -0.1721634393   -2.2076441520
 H   -0.8947658749   -2.7651380247    0.6479584958
 H   -3.6394732433   -2.9585346256    0.5495791053
 H   -4.3044919592   -1.1641167690   -1.4409614456