17

 O   -0.0343389868    1.4189884741   -0.0800579203
 C   -0.0115217132    0.0078100806    0.0151916077
 C   -1.4105648159   -0.5803478676    0.0529020127
 O   -2.0295649838   -0.1929657048   -1.1798554922
 C   -3.3251192340   -0.5370803213   -1.3397919808
 C   -4.1108279362   -0.1983177642   -2.4150423398
 N   -5.3347491351   -0.7808150396   -2.1335651093
 C   -5.2253678169   -1.4166787945   -0.9425757649
 N   -4.0150998460   -1.2888499374   -0.4328905284
 H   -0.6249830650    1.6242506525   -0.8137407189
 H    0.5485902276   -0.4432324294   -0.8196715784
 H    0.5110498100   -0.2445092158    0.9437724399
 H   -1.3867639355   -1.6729174834    0.1403923215
 H   -1.9826120487   -0.1786553491    0.8963176537
 H   -3.9241999709    0.3699699219   -3.3083312388
 H   -6.1555227171   -0.7349942388   -2.7129520191
 H   -6.0451031422   -1.9537196531   -0.4908385645