16

 O   -0.2841245825    1.4446088077    0.3055452324
 C   -0.0044286390    0.0710230875    0.0295067529
 C    0.7107810063   -0.6017815626    1.2118952839
 C   -0.4218957182   -0.8061363426    2.2300833034
 C   -1.6115925853   -1.2692394057    1.3591636882
 C   -1.3624332680   -0.6536359048   -0.0488940121
 H    0.5555010610    1.8909588684    0.4560319010
 H    0.5637233684   -0.0153159015   -0.9077106922
 H    1.1174357339   -1.5690796104    0.8889114103
 H    1.5485207728   -0.0054415193    1.5907583969
 H   -0.1697897143   -1.5164376730    3.0219916790
 H   -0.6541431918    0.1530168458    2.7029020342
 H   -1.6274813574   -2.3623587574    1.2945503305
 H   -2.5727531878   -0.9654036838    1.7813282085
 H   -2.1316745820    0.0652090021   -0.3399074778
 H   -1.3337872460   -1.4302277104   -0.8184873090