18

 C    0.1442501458    1.4321025487   -0.1310517944
 C    0.0717451432   -0.0497446734    0.0353900186
 C   -0.9529501669   -0.8328672929    0.7921173274
 C    0.5231949681   -1.0260548606    1.1043180308
 C    1.2040743157   -1.7724412902   -0.0378930863
 C    0.8694056663   -3.2162539077   -0.3662149218
 O    1.2995142342   -3.5347152046   -1.6774724345
 O    0.6242897129   -0.8584094638   -1.0222620377
 H    1.1720145409    1.7572854459   -0.3195533690
 H   -0.4741696489    1.7527461804   -0.9772694645
 H   -0.2252660320    1.9365881638    0.7662849148
 H   -1.4920638971   -0.2788054788    1.5547150001
 H   -1.5350892891   -1.6003050937    0.2913251074
 H    0.9454086314   -0.8491624643    2.0842899201
 H    2.2926391187   -1.6362297666   -0.0317601016
 H    1.4007366296   -3.8869499238    0.3184319559
 H   -0.2087761478   -3.3952801374   -0.2410955317
 H    0.9221370052   -2.8571881209   -2.2517441637