19

 O   -0.0110228125    1.4237013143    0.0131685148
 C   -0.0131830756    0.0168768496    0.2081088948
 C   -1.3871173192   -0.5041858980   -0.1988033460
 C   -1.5002433808   -2.0090013681   -0.0669531817
 O   -1.3170233106   -2.5059722242    1.2993006070
 C   -2.5125431016   -3.2825395514    1.2003091385
 C   -3.7140901305   -2.3860890051    1.0499218543
 C   -2.8555488456   -2.7216591233   -0.1521775923
 O   -3.3238891421   -3.3581748371   -1.2826699462
 H    0.8270516566    1.7685780351    0.3343401424
 H    0.7653970855   -0.4713959234   -0.4013041976
 H    0.1768594641   -0.2469570453    1.2583946932
 H   -2.1471068998   -0.0079102962    0.4134069698
 H   -1.5762908110   -0.2278236042   -1.2440725483
 H   -0.7796053860   -2.5165722987   -0.7230980802
 H   -2.5166207773   -4.2824697883    1.6161367215
 H   -4.6640664498   -2.9131435763    1.0495203435
 H   -3.7236524308   -1.4004527406    1.5065567274
 H   -3.9879689127   -2.7955209287   -1.6957698649