17

 C   -0.1249211930    1.4266174649   -0.1254512409
 C   -0.0102077998   -0.0252692083    0.2579107846
 O    0.8531964402   -0.5208646482    0.9269910889
 O   -1.0576603085   -0.7314434497   -0.2729199847
 C   -0.9858458532   -2.1263799219   -0.1486809959
 C   -1.3182851090   -2.7685921560    1.1815099273
 C   -2.3121155082   -2.8289569695    0.0648016218
 C    0.0167387837   -2.7833116026   -1.0272985349
 O    0.7418851402   -2.2003236280   -1.7895752589
 H    0.0938428293    1.5297275621   -1.1927695912
 H   -1.1415840655    1.7917089428    0.0386375173
 H    0.5905828052    2.0121702950    0.4504681862
 H   -0.7741758789   -3.6654262672    1.4565885314
 H   -1.4995072873   -2.0791486643    1.9963772158
 H   -3.1740646449   -2.1738177025    0.1066181834
 H   -2.4736603271   -3.7693936490   -0.4504855140
 H    0.0313298067   -3.8929193477   -0.9269619761