18

 C   -0.1014428223    1.4906837595    0.0265386916
 C   -0.0031536243    0.0030981319   -0.0179228494
 C    0.8852793093   -0.9933446383   -0.8105729851
 N    0.8100196965   -2.0173657313    0.2971052458
 C   -0.0751279106   -1.0520200975    1.0778994343
 C   -1.1174055958   -1.0409924963   -0.0170686181
 O   -2.4606778237   -0.7808420725   -0.0187108976
 C   -0.1957406779   -2.0196554381   -0.8276009552
 C   -0.4499540124   -3.2055648099   -1.6940136944
 H    0.8257094978    1.9475210872    0.3908766019
 H   -0.3156988569    1.9061141287   -0.9649698207
 H   -0.9137002713    1.7976061293    0.6934794260
 H    1.7698599455   -0.8699853271   -1.4279130642
 H   -0.1186188432   -0.9826302791    2.1585965927
 H   -2.9088538431   -1.4560166349    0.5041347664
 H   -0.9839147712   -2.9211392656   -2.6070968238
 H    0.5001853823   -3.6675145815   -1.9802469651
 H   -1.0463170788   -3.9615234645   -1.1705662850