20

 C   -0.1924171504    1.4964979652   -0.0971524928
 N   -0.1144051190    0.0726746818    0.1709782082
 C   -1.2463298803   -0.6509297017    0.7673763506
 C   -0.2400145441   -1.6535118064    1.3795223899
 O   -0.0501360622   -2.8414043247    0.6659237205
 C    0.8537857518   -0.5178317463    1.1167667141
 C    2.1844165969   -0.9423419425    0.5098619175
 C    1.0622176608    0.2268530354    2.4237911024
 O    0.3299084990    1.0789427759    2.8644728709
 H    0.7799161823    1.8540470927   -0.4531151389
 H   -0.9160353961    1.6643201932   -0.9029981132
 H   -0.4864427728    2.0970591402    0.7738243941
 H   -1.7931290889   -0.0828331584    1.5329255304
 H   -1.9620295820   -1.0701541074    0.0486269161
 H   -0.3910411162   -1.9360099757    2.4219606000
 H   -0.0556870487   -2.6240688993   -0.2736106678
 H    2.0298377050   -1.6679615543   -0.2903013159
 H    2.7096132129   -0.0781006951    0.0889939950
 H    2.8355008314   -1.4017321312    1.2606243859
 H    1.9566652905   -0.1079120115    3.0013873128