18

 C    0.0801299110    1.5368643014    0.0152732653
 O    1.2119771415    0.6569836758   -0.0215216648
 C   -0.0940259070    0.0805917753    0.0155782180
 C   -0.4846874568   -0.7776529453    1.2324197793
 N   -1.4373297229   -1.7812192236    0.7228081307
 C   -2.6366343980   -1.0718359158    0.1311546568
 C   -2.0096219777   -1.1629175568   -1.2508951053
 C   -0.9702434345   -2.0866579874   -0.6697979780
 C   -0.5410856370   -0.7373301123   -1.1684689189
 H   -0.0421238751    2.1000544190    0.9404031024
 H   -0.0979691520    2.1060646636   -0.8969567475
 H    0.4106339800   -1.2853672632    1.6085155093
 H   -0.9292509047   -0.2076047322    2.0526113586
 H   -3.5279139958   -1.6969408728    0.2359796702
 H   -2.8407578000   -0.0799009237    0.5512274208
 H   -2.5234254413   -1.2269051483   -2.2025994162
 H   -0.5919066639   -3.0575442764   -0.9608709492
 H   -0.0078213558   -0.6385152575   -2.1062200615