19

 C   -0.9234350721    1.0320970834    0.4124620372
 C    0.0267600163   -0.0771274423    0.0398324003
 N    1.3314081451    0.3103146497   -0.4948724203
 C    1.2853534545   -0.3818556996    0.8032949289
 C    1.7100744636    0.3614975751    2.0114981825
 N    1.7320559188    1.6169287595    2.2013400493
 C    2.2172340582    1.8269191430    3.5720755635
 C    2.4476229830    0.3988259374    4.1328712427
 O    2.1022729388   -0.4642878226    3.0286051168
 H   -0.3814072493    1.8538855433    0.8829109543
 H   -1.4287084047    1.4092079607   -0.4830944683
 H   -1.6898610374    0.6665593321    1.1045269036
 H   -0.4442816035   -0.9578704262   -0.3976200927
 H    1.6430063243   -0.3377849035   -1.2132407342
 H    1.5807911369   -1.4266415559    0.8426391959
 H    3.1353740200    2.4241351425    3.5550766175
 H    1.4771317309    2.3894506247    4.1512000679
 H    3.4854531950    0.1987083612    4.4134029827
 H    1.7992795016    0.1510605674    4.9785450724