13

 C    0.0370551145    1.3806364134   -0.1310191620
 C    1.5238750275    1.8427416523    0.1060532769
 C    2.1103311498    0.5615164215    0.6203457685
 C    1.1329631071   -0.3843120300    0.6496053132
 N    1.7061025758   -1.5000890601    1.1132635048
 N    3.0457200332   -1.2369148331    1.3705643522
 N    3.2654072400    0.0119952887    1.0656234834
 O   -0.0968552806   -0.0464640096    0.2467688831
 H   -0.6768754593    1.9311164849    0.4845058812
 H   -0.2627722110    1.4520939032   -1.1782098398
 H    1.9801184873    2.1929498595   -0.8253278571
 H    1.5696820240    2.6672813744    0.8246092288
 H    1.3362036618   -2.4194165252    1.2857328670