20

 C   -0.0196547195    1.5190310273    0.1576736959
 C   -0.0393963937    0.0050625833    0.0387119543
 C   -1.3304646572   -0.5448993301   -0.5388594862
 C    1.2605218885   -0.6890498986   -0.2864359405
 C    0.7141608868   -0.7741487709    1.1222958288
 O    1.3067925680    0.0088312011    2.1339301766
 C    0.1938434127   -2.1122382893    1.5968337894
 N    0.1529663788   -2.2317404661    2.9531247081
 O   -0.1381547382   -3.0076841459    0.8375038867
 H    0.9077007810    1.8840665150    0.6002482623
 H   -0.1353829429    1.9691194968   -0.8347197435
 H   -0.8495775356    1.8717488185    0.7802050524
 H   -1.4770644044   -0.1496619043   -1.5506834551
 H   -1.3217695130   -1.6334825955   -0.5860672878
 H   -2.1907844192   -0.2312919457    0.0640325978
 H    1.2229766210   -1.6080977906   -0.8605575303
 H    2.1454788791   -0.0757734837   -0.4251883697
 H    2.2134503201   -0.2974840050    2.2488859507
 H    0.3212271704   -1.4235796031    3.5276131056
 H   -0.2806041427   -3.0519372731    3.3425193143