18

 C   -0.4401489549    1.3228437388    0.1046464314
 N    0.3026983379    0.0836421794   -0.0978382609
 C    0.9342767500   -0.4513758044    1.0470813342
 C    0.1654121917   -0.9361246827    2.3185626173
 C    1.0015638314   -1.9023821352    1.5578922423
 O    0.4898569080   -2.9835930132    0.8688563129
 C    2.4748315796   -1.7459626914    1.9682565155
 C    2.3802339022   -0.2822815359    1.4393528678
 O    3.1920820282    0.5831688288    1.2836800321
 H    0.2505356090    2.1049644981    0.4332367774
 H   -0.8775752711    1.6389692010   -0.8462434232
 H   -1.2467939437    1.2462789510    0.8535886399
 H   -0.2592081294   -0.6257815287   -0.5544554810
 H    0.4389104365   -0.6144693998    3.3197971442
 H   -0.9025069957   -0.9921036525    2.1285483007
 H    0.0874795822   -3.5900548136    1.4999618544
 H    2.7383474816   -1.9059491164    3.0183251041
 H    3.1490013365   -2.3186519234    1.3242482710