20

 C    0.0044149971    1.5179933519    0.0282522486
 C    0.0866653382   -0.0105142967    0.0326281302
 C    0.6899200913   -0.5558517242   -1.2694145044
 N    0.7845550475   -2.0024491470   -1.3247326777
 C    1.6859935985   -2.7938826188   -0.5143892603
 C    1.3347623863   -4.2090218724   -1.0111028753
 O    0.0303924800   -4.0865774207   -1.5885135696
 C   -0.2383135571   -2.7659705087   -1.8338665821
 O   -1.2236140752   -2.3873689128   -2.4091498767
 H    0.9962917346    1.9703326455   -0.0839239274
 H   -0.6192497485    1.8777163832   -0.7971432953
 H   -0.4278682779    1.8933811385    0.9601648790
 H    0.6863399445   -0.3440339177    0.8889281004
 H   -0.9131340600   -0.4415465237    0.1582930272
 H    0.0673184428   -0.2576443011   -2.1176129986
 H    1.6915059286   -0.1352412081   -1.4269690832
 H    2.7348196239   -2.5381021531   -0.6993103686
 H    1.4914556169   -2.6749496249    0.5611797867
 H    2.0335665107   -4.5499906233   -1.7832697466
 H    1.2957078676   -4.9515062461   -0.2120537264