21

 C   -0.0780466817    1.5360991258    0.0680084184
 C    1.2938272443    2.2244995482    0.0289509122
 C    1.9698933511    2.2837412918   -1.3463236112
 C    2.1795358058    0.9510930679   -2.0467861579
 O    2.7013568910   -0.1206328607   -1.1988746010
 C    1.7242433866   -1.0217795504   -1.7288141866
 C    0.3411396854   -0.6235471779   -1.3252740261
 C   -0.0197333714    0.0006203425    0.0206371330
 C    1.0142539633    0.0694441811   -2.5006647120
 H   -0.5805034274    1.8240764950    0.9996159694
 H   -0.7106952806    1.9084950294   -0.7490089764
 H    1.1898217250    3.2534104419    0.3935974284
 H    1.9646067714    1.7142101282    0.7299988107
 H    1.3830964783    2.9137048313   -2.0299229145
 H    2.9439253044    2.7778302576   -1.2374779660
 H    2.8734204533    1.0872282366   -2.8877240596
 H    2.0545601366   -2.0193459218   -1.9965352926
 H   -0.3917133270   -1.3376793303   -1.6976305450
 H    0.6922995155   -0.3455577412    0.7797961579
 H   -0.9985623134   -0.3920416904    0.3180494240
 H    0.5983568896    0.0671198852   -3.4996133351