22

 C   -0.4815569697    1.1900526744   -0.5177309550
 O   -0.6877882779   -0.2000193115   -0.5851261095
 C   -1.0664300820   -0.7570285898    0.6586807410
 C   -1.1897990597   -2.2484643742    0.4942288819
 N   -2.1535843381   -2.9074199833    1.4029102621
 C   -2.4242006473   -2.8724073411   -0.0315012551
 C   -3.6174151162   -2.1844397546   -0.7039347946
 C   -3.4339851584   -3.1685242820   -1.8984475071
 C   -2.4943534769   -4.0449505399   -1.0161202708
 H   -0.1987630482    1.5293481683   -1.5174042582
 H   -1.3925573975    1.7253575240   -0.2054808902
 H    0.3240909788    1.4510042659    0.1873108822
 H   -0.3167693984   -0.5162993838    1.4323863097
 H   -2.0289553127   -0.3455905003    1.0007462832
 H   -0.2541594542   -2.7633173066    0.2805833698
 H   -1.8105187990   -3.8261128474    1.6746379812
 H   -4.5491216641   -2.3495028877   -0.1550267326
 H   -3.5130308822   -1.1194492771   -0.9212784159
 H   -4.3348526811   -3.6514837117   -2.2811525514
 H   -2.9005098743   -2.7072879369   -2.7322508167
 H   -1.5552334700   -4.3867883566   -1.4599575997
 H   -3.0167496309   -4.9086095181   -0.5899892643