18

 C   -0.0417339750    1.5808146490   -0.0797290966
 C   -0.0580657415    0.0722894527    0.0074315650
 C   -1.3414144989   -0.5578996609    0.4982805190
 O   -1.7118631035    0.0602982165    1.7206810102
 C   -2.8902211962   -0.4794796568    2.2602364478
 C   -3.2407483298    0.2496721907    3.4827823013
 N   -3.5459290052    0.8063030751    4.4468520999
 C    0.8155654695   -0.7433621861   -0.8488197597
 O    1.1340254877   -0.5323446306    0.5265923931
 H    0.9323489892    1.9286243969   -0.4303819048
 H   -0.8124930999    1.9381201295   -0.7712788137
 H   -0.2401411494    2.0176972942    0.9018282611
 H   -2.1411436058   -0.4201567474   -0.2496297868
 H   -1.1870394747   -1.6374153834    0.6425019985
 H   -3.7338211739   -0.4025968614    1.5538826467
 H   -2.7718105563   -1.5470798990    2.5082363301
 H    0.5323352036   -1.7620932437   -1.1136175866
 H    1.4662616000   -0.2456058554   -1.5665429245