18

 C    0.1234176999    1.5036708553   -0.1043754852
 C   -0.0524647590    0.0135380653    0.0680932778
 C   -1.3225900223   -0.6088764080   -0.5286616107
 N   -1.8762590722   -1.7650334415    0.1755142341
 C   -0.8575818606   -2.6924618454    0.6862907050
 C    0.0273130899   -1.9782377268    1.7016827613
 O    0.1838920095   -2.3392119719    2.8463973711
 C    0.6202991633   -0.6957991476    1.1893581029
 O    1.1256107567   -0.7634042148   -0.1569186989
 H    1.0982555059    1.8214280624    0.2728671394
 H    0.0625777793    1.7736959992   -1.1646284848
 H   -0.6594824670    2.0534397136    0.4280763460
 H   -2.1063114387    0.1520579432   -0.5933867167
 H   -1.0768039208   -0.9036059741   -1.5580782371
 H   -2.4430442272   -1.4449573360    0.9546367322
 H   -1.3373831224   -3.5455524503    1.1709668270
 H   -0.2552542797   -3.0522658543   -0.1550140895
 H    1.2351447055   -0.1454096183    1.8995912161