20

 O   -0.0866672475    1.3964416821    0.1259096827
 C   -0.0229662595   -0.0316224442    0.0812680491
 C    0.7298707948   -0.5543290817   -1.1832495473
 C    1.6566318905   -1.6966940747   -0.6991149285
 C    1.6890616987   -1.5055258639    0.7983625306
 C    0.7908406579   -0.6164193075    1.2169785279
 C   -1.4669186119   -0.5165425578    0.1313238923
 C   -2.4804842919    0.1675803010    0.9668661312
 N   -2.5354218020    0.2617518730   -0.5071189205
 H    0.8131809471    1.7245078482    0.2190217122
 H    0.0403853207   -0.8643050831   -1.9718217036
 H    1.3253420172    0.2718416399   -1.5847296749
 H    1.2498191436   -2.6847314301   -0.9520562819
 H    2.6542313575   -1.6570265691   -1.1515763303
 H    2.3578999481   -2.0679435539    1.4415219699
 H    0.5933733417   -0.3369815851    2.2458974434
 H   -1.5539212587   -1.5914593379   -0.0149847623
 H   -3.2851107263   -0.4037141436    1.4212904127
 H   -2.1640625465    1.0470313639    1.5185137606
 H   -2.1449838836    1.1628418847   -0.7764753432