19

 C   -0.0052191203    1.4146225543    0.0445787142
 N    0.1452208102   -0.0284436341   -0.0038386968
 C   -0.1813152738   -0.7576911123    1.2095253916
 C    0.0610555326   -0.6378080535   -1.2216903958
 C   -0.0211029820   -0.0991992693   -2.4592218299
 C   -0.0035534612   -1.1652230747   -3.4452922754
 N   -0.0531824086   -1.0666777858   -4.7082875264
 O    0.0736899308   -2.3780849951   -2.7712415432
 C    0.1087017409   -2.1437587971   -1.3724388045
 H    0.6435509787    1.8781553039   -0.7034432286
 H   -1.0396018978    1.7380692366   -0.1474896011
 H    0.2945832777    1.7760057769    1.0311796699
 H   -1.2638608408   -0.7948103275    1.4092565893
 H    0.1924029664   -1.7819884391    1.1535013186
 H    0.3037150067   -0.2748925953    2.0626571203
 H   -0.0923264526    0.9388482366   -2.7386172802
 H   -0.0301562774   -1.9931389732   -5.1354732163
 H    1.0267516583   -2.5747912270   -0.9492951381
 H   -0.7477713081   -2.6424466144   -0.8984662877