15

 C    0.0186523804    1.4253626896    0.0969629330
 N   -0.0090203248    0.0083130274   -0.2222960943
 C    1.2100265782   -0.7414984225    0.0440607764
 C   -1.1934331676   -0.6673122436   -0.0900089435
 N   -1.2664827519   -1.9704342614    0.0806619931
 O   -2.6161768823   -2.2645433853    0.0883734890
 N   -3.3692716178   -1.1445823960   -0.0514803914
 C   -2.5313463151   -0.1550378261   -0.1596220581
 H    0.9370269686    1.8595845761   -0.3065963614
 H   -0.8229233971    1.9399820121   -0.3724787718
 H   -0.0100394988    1.6249318704    1.1797254073
 H    1.3651552241   -0.9264618750    1.1176571224
 H    1.1590979317   -1.7073951716   -0.4609013925
 H    2.0627946155   -0.1781654482   -0.3432223079
 H   -2.8861548431    0.8553311742   -0.2814547403