18

 O    0.2747922609    1.3279892527   -0.0418144159
 C    0.2006461518   -0.0574504699    0.1103747395
 C    0.2178737273   -0.6607353477    1.5718502206
 C   -1.1749001799   -1.2253785764    1.3005942795
 N   -2.0200095370   -0.0500283115    0.9470828301
 C   -1.1877903789   -0.7020530336   -0.0927483381
 C   -1.7810073955   -1.2555984839   -1.3632024345
 C   -2.2094893679   -0.2210906393   -2.3028382065
 C   -2.5623794603    0.6345280768   -3.0684958993
 H   -0.5224395038    1.6757412433    0.3816655435
 H    0.9725858851   -0.4989037546   -0.5251518881
 H    0.9865334118   -1.4260237145    1.7015751110
 H    0.2812192712    0.0731943090    2.3787590082
 H   -1.6290810834   -2.1247393968    1.6987870822
 H   -2.9785176296   -0.3737359415    0.8216589260
 H   -1.0431319348   -1.9074488545   -1.8495798946
 H   -2.6345677861   -1.9007876841   -1.1120234537
 H   -2.8668654007    1.3936676865   -3.7455760100