16

 C   -0.1172049874    1.4732969532    0.1012675949
 O    1.1534484478    0.8455591913   -0.0731062815
 C   -0.0067533510    0.0091931117    0.0358740635
 C   -0.3749044330   -0.9127801380    1.1588902166
 C   -0.5849769492   -2.1330469300    0.6080484814
 C   -1.9882308612   -2.4193971233    0.0855518521
 N   -1.4478089601   -1.9193881917   -1.2680898467
 C   -0.0649154333   -2.2272953471   -0.8278305564
 C   -0.3286414256   -0.8321693459   -1.1935320770
 H   -0.2735711747    1.9584797988    1.0642109516
 H   -0.4966647074    2.0194434004   -0.7623431427
 H   -0.9914612572   -0.5400574992    1.9721572958
 H   -2.2669009245   -3.4620860998   -0.0874594663
 H   -2.8165003342   -1.8588881995    0.5267590074
 H    0.5683003138   -2.9714373714   -1.2960453924
 H   -0.1562976628   -0.4338622594   -2.1879338301