20

 C   -0.6551841262    1.3206490179    0.3176103486
 C   -0.1618547080   -0.1003269509    0.1711020711
 C    1.1715865033   -0.3885122644   -0.4647734249
 C    0.9949211187   -0.6326749674    1.0151574284
 C    1.6964162803    0.2123161796    2.0032651272
 C    2.8500665679    0.9661795075    1.9276137911
 C    3.0707771760    1.5632423888    3.2006525049
 C    2.0485476690    1.1576948995    4.0248481509
 N    1.2238400948    0.3415052389    3.2918575190
 H    0.1679193670    1.9995798681    0.5575177248
 H   -1.1239967763    1.6702389845   -0.6088678136
 H   -1.3987526335    1.4056545623    1.1186016897
 H   -0.9426993791   -0.8298375705   -0.0295369026
 H    1.2727784763   -1.2489615817   -1.1166830715
 H    1.7758798583    0.4640454747   -0.7561964132
 H    0.8974273817   -1.6784557989    1.3023830781
 H    3.4753453407    1.0607474589    1.0530485374
 H    3.8885407211    2.2102357418    3.4787186230
 H    1.8382777013    1.3766442677    5.0594581995
 H    0.3786840965   -0.0844637663    3.6304684122