17

 N   -0.0933996105    1.4547833083    0.0327492821
 C   -0.1080880802    0.0222807711   -0.0194154517
 C   -1.3603361693   -0.7998016739    0.0414402170
 N   -1.4933181998   -1.8109366753    1.0149304663
 C   -2.4691106356   -0.1597421820   -0.8083632283
 N   -1.5288661795    0.0238957659   -1.9643502669
 C   -0.4927433156   -0.7740685169   -1.2647583658
 C    0.2951165027   -1.7626772783   -1.9044698571
 N    0.9299574322   -2.5767299036   -2.4328272349
 H    0.8561646392    1.7856398004   -0.1109821482
 H   -0.6398832330    1.8144129925   -0.7481091930
 H    0.6925681971   -0.4471861431    0.5441199064
 H   -1.5775499031   -1.4342780448    1.9527669440
 H   -2.2735070972   -2.4324499135    0.8350277849
 H   -3.2668111707   -0.8788683628   -1.0253615824
 H   -2.9129682471    0.7711280582   -0.4385133845
 H   -1.8617988096   -0.4523859823   -2.7955244879