16

 C    0.0283481575    1.5127322136    0.0495270441
 C    0.0250778431    0.0044292716    0.0147124760
 C   -0.0433295815   -0.7004050553   -1.1882240847
 C   -0.0463730318   -2.0917255706   -1.2211023560
 C    0.0203981338   -2.8032993226   -0.0253541556
 C    0.0893168890   -2.1274197335    1.1868943888
 C    0.0917012970   -0.7333965385    1.2073006530
 O    0.1612633036   -0.1307646558    2.4310483767
 H    0.9413944856    1.9152019132    0.5096573918
 H   -0.0293614004    1.9250836745   -0.9603981180
 H   -0.8253305643    1.9166690040    0.6111524784
 H   -0.0952137176   -0.1387870112   -2.1166922228
 H   -0.1003084928   -2.6135997763   -2.1699102332
 H    0.0189831180   -3.8882616621   -0.0336074090
 H    0.1420722617   -2.6579110135    2.1309490722
 H    0.1558682990    0.8243573425    2.3168715783