19

 C    0.3034828008    1.4159478762    0.0038517214
 O    0.4634474666    0.0196597765    0.0740429919
 C    0.2727903852   -0.6102627959   -1.1831024434
 C    0.4759082063   -2.0870548883   -1.0567877493
 C    1.4276068661   -2.7738755116   -0.3385325606
 C    2.5417945871   -2.3352235814    0.5512377282
 N    1.1634581495   -4.1044336750   -0.6027728919
 C    0.0947251560   -4.1591699969   -1.4476513909
 N   -0.3462756365   -2.9601334009   -1.7403341117
 H    1.0256986333    1.8787038416   -0.6882840620
 H   -0.7097341295    1.6935904502   -0.3271232231
 H    0.4689153405    1.8162194573    1.0071974235
 H   -0.7450440183   -0.4329168527   -1.5620793785
 H    0.9694792630   -0.1715666841   -1.9204278191
 H    2.4955033150   -2.8236899876    1.5323863576
 H    3.5267387095   -2.5568526850    0.1208169019
 H    2.4666293624   -1.2596155339    0.7116635714
 H    1.6607408239   -4.8894054910   -0.2157226574
 H   -0.3140300409   -5.0928903175   -1.8042063380