16

 C    1.0362246678    0.7898160781   -0.5731926836
 C    0.0412809013   -0.1436303771    0.0828110236
 O    0.5874532105   -1.2721311358    0.8046142250
 C   -0.0892306254   -0.2688575209    1.5608672273
 C    0.7166569303    0.5619035564    2.5358941402
 N    2.0390737809    0.2449246098    2.5782501931
 O    0.1858924974    1.4233410502    3.2074704169
 C   -1.1239261732   -0.4510381007   -0.7155740899
 C   -2.0814097030   -0.6822839737   -1.4037072582
 H    1.8765582665    0.9967966543    0.0903127189
 H    1.4108593544    0.3396880908   -1.4968959627
 H    0.5453559036    1.7327656242   -0.8300089732
 H   -1.0649140888   -0.5500063857    1.9521605177
 H    2.3688829783   -0.5711426442    2.0893968000
 H    2.6167456693    0.6831693682    3.2765481018
 H   -2.9323192801   -0.8927355241   -2.0038271269