18

 C   -0.0257186283    1.5366383192    0.0045735590
 C    1.3552035433    2.1408996323   -0.0068733043
 C    2.4662495159    1.4169905036   -0.1293153790
 C    2.4220763920   -0.0940694521   -0.2684547080
 C    1.0985971414   -0.5199012249   -0.9192655765
 C   -0.0013864776    0.0025677116   -0.0019286572
 O    0.2080909917   -0.4984666379    1.3434691867
 C    1.4665543874   -0.8490474732    1.7015304935
 N    2.5508842585   -0.7218909006    1.0607735119
 H   -0.5874737976    1.8773008388    0.8824064604
 H   -0.5956135429    1.8844438955   -0.8698808040
 H    1.4146759106    3.2217639660    0.0925799285
 H    3.4435593897    1.8885091568   -0.0985391203
 H    3.2722520645   -0.4312793457   -0.8682034418
 H    0.9858797869   -0.0904488959   -1.9193723549
 H    1.0502568895   -1.6097443915   -1.0030914978
 H   -0.9862376316   -0.3819921951   -0.2794266150
 H    1.4520309066   -1.2980705970    2.6931222287