19

 C   -0.3041893711    1.2937608190   -0.0338362379
 O    0.2431606592   -0.0031674287    0.1343163526
 C    0.7823554911   -0.5354122049   -1.0290101527
 C   -0.0910538516   -1.0219406027   -2.1589661486
 C    0.6899564685   -2.0136009228   -1.3148406257
 C    2.0575636101   -2.5178590479   -1.7877866683
 C    2.9515991555   -1.2851923246   -1.8556367805
 O    2.5230641499   -0.2779569047   -2.7865759815
 C    2.1947293882   -0.1084556673   -1.4017313290
 H    0.4538290314    2.0206566047   -0.3586027148
 H   -1.1201236254    1.2944597969   -0.7693094640
 H   -0.6950272877    1.6018356502    0.9385332311
 H   -1.1611912609   -0.9998955172   -1.9815344859
 H    0.2235021726   -0.8216862970   -3.1756766679
 H    0.1103338992   -2.6450721529   -0.6514063248
 H    2.4728836701   -3.2176520713   -1.0535669918
 H    2.0156029378   -3.0402653174   -2.7497149984
 H    4.0303019895   -1.3840764535   -1.7558184675
 H    2.6400509137    0.7477272822   -0.9023305446