17

 O   -0.0793042428    0.0097173682   -0.2657445745
 C    0.0646196671    1.2107034323   -0.2548873482
 C    1.3163319995    1.9012079963    0.1297265592
 C    1.3151996826    3.2400733418    0.0523573759
 C    2.4308433492    4.2150676854    0.2986261170
 O    3.4236374546    3.8485148086    1.2285117444
 C    4.1118946206    2.6547822649    0.9655799196
 O    3.4244145440    1.5179894134    1.3940505970
 C    2.4718410597    0.9963434585    0.4907766938
 H   -0.7640679577    1.8944052240   -0.5469795161
 H    0.3924408710    3.7114418749   -0.2898747182
 H    2.8873820663    4.4507279479   -0.6827309724
 H    2.0113478242    5.1544090762    0.6736747464
 H    4.3609193161    2.5797155601   -0.1095072047
 H    5.0265037019    2.7040995125    1.5605114553
 H    2.0736108992    0.0887128566    0.9493603489
 H    2.9678348146    0.6819661885   -0.4445322235