16

 O   -0.9364836923    1.6046207513    0.7026968909
 C   -0.3675300869    0.4183012294    0.2778376525
 C   -0.4581522582   -0.7978046766    1.1388097538
 O   -1.1665221265   -0.7882352022    2.3676946463
 C   -0.7395843694   -0.0027928192    3.3672218131
 N    0.1164323933    0.9228109386    3.2438339503
 C   -1.3031019388   -0.7237359120   -0.1244732568
 C   -2.7750329655   -0.5267502258   -0.0223174494
 O   -3.5600053983   -1.0641241011   -0.7653571075
 H   -0.4934492832    1.8075423773    1.5454920816
 H    0.5414386653    0.5136664298   -0.3175028197
 H    0.3681533050   -1.5022673058    1.1564497855
 H   -1.2608962458   -0.2890655570    4.2844658831
 H    0.2789648614    1.3836799024    4.1355654190
 H   -1.0049667968   -1.3598529244   -0.9500498870
 H   -3.1070732832    0.1595725552    0.7780148141