22

 C   -0.5069227077    1.2939250612    0.4201731149
 C    0.3977983986    0.1650735248   -0.0895249582
 C    1.0165862799   -0.6107734814    1.0501459573
 O    0.1641251710   -1.4969477616    1.7884206940
 C    1.2719931294   -2.0598536864    1.0698860928
 C    0.9508511270   -3.0091519320   -0.0589118892
 N    0.7510318358   -4.3546179306    0.4705367765
 C   -0.5936872184   -4.6495491304    0.9611313362
 C   -0.1049973179   -5.2359112211   -0.3169578888
 H    0.0535005363    2.0019860063    1.0404638843
 H   -0.9471591717    1.8526638200   -0.4108445187
 H   -1.3200506297    0.8873392638    1.0287360974
 H   -0.1770744663   -0.5063419361   -0.7334750314
 H    1.2069123610    0.5815674323   -0.7037893167
 H    1.6581876193   -0.0025728775    1.6942123010
 H    2.0741271797   -2.4195055734    1.7166736173
 H    0.0728558386   -2.6451530806   -0.6167023964
 H    1.7983671776   -3.0438676496   -0.7560540295
 H   -0.6419651778   -5.2542644585    1.8618457850
 H   -1.3377007633   -3.8584667817    0.9028669708
 H   -0.5302494908   -4.8441207344   -1.2399993992
 H    0.2068992395   -6.2752325732   -0.3667550094