18

 O    0.0204055697    0.0136369711   -0.4294924779
 C   -0.0094138205    1.1696781410   -0.0708034562
 C   -1.3083505176    1.9331447473    0.1795120358
 C   -1.0001278678    3.3617303179    0.6452641892
 C   -0.1062330318    3.2980769319    1.9033370967
 C    1.2461714724    2.9579104582    1.2950520415
 C    1.2406086882    1.9507963949    0.1742134487
 N    1.2953391481    3.4155819459   -0.0942799952
 C   -0.0358824040    3.9981053096   -0.3771663959
 H   -1.8922813902    1.9254232234   -0.7481438802
 H   -1.8928286989    1.3762863834    0.9211305023
 H   -1.9125999490    3.9417139839    0.7977995983
 H   -0.0506550228    4.2697948871    2.4058300974
 H   -0.4508892364    2.5616138309    2.6357840236
 H    2.1512720346    3.0669326720    1.8846008469
 H    2.1568087295    1.4207730721   -0.0652771313
 H   -0.3202288489    3.8096774760   -1.4170286207
 H    0.0489456153    5.0807326433   -0.2373217530