18

 C    0.7461086225    1.2263800566    0.0043564159
 O    0.8912161997   -0.1599330101   -0.2117111019
 C   -0.0761274731   -0.6820765268   -1.0943976437
 C    0.1067745402   -2.2051790885   -1.2421978568
 O   -1.0307244924   -2.7263566309   -1.8734520306
 C    1.3564939395   -2.5658635702   -2.0593563854
 C    2.7154394178   -2.3023163211   -1.4685748654
 O    1.1971149949   -3.0677440438   -3.1538937835
 H    0.8583720135    1.7981453582   -0.9295851128
 H   -0.2363708956    1.4655374174    0.4386376772
 H    1.5276197679    1.5314043526    0.7039889042
 H   -1.0930567798   -0.5172328673   -0.7081602506
 H   -0.0166960632   -0.1998803094   -2.0845425018
 H    0.2174489951   -2.6246356414   -0.2302128528
 H   -0.7040567003   -3.0757492843   -2.7203551415
 H    2.7651275076   -1.2834632841   -1.0765504852
 H    2.8688260726   -2.9719648172   -0.6135864761
 H    3.4902382831   -2.4847422095   -2.2140736692