20

 O   -0.1079459382    1.1960764859   -0.4506425603
 C    0.0190646266   -0.1508328232   -0.0657344558
 C    0.1819063207   -0.3909419272    1.4589921526
 N   -1.2739705781   -0.6363919244    1.5303845675
 C   -1.7740666609   -1.6165738040    2.4695172504
 C   -3.2858597923   -1.6446456032    2.4743927140
 C   -4.0525181087   -2.6477073151    1.7227760185
 O   -3.8899385557   -2.7535995638    3.1378104673
 C   -1.3170431130   -0.9259405423    0.0798396723
 H   -0.7735903176    1.5969343379    0.1203528313
 H    0.7754528335   -0.5878122513   -0.7179632298
 H    0.7887312316   -1.2850270083    1.6776712206
 H    0.5472435656    0.4494547323    2.0595280708
 H   -1.3968726062   -2.6376099984    2.2648925063
 H   -1.4228367765   -1.3392104765    3.4716599876
 H   -3.7587271685   -0.6820904454    2.6730515279
 H   -5.0612510921   -2.4174075156    1.3831068093
 H   -3.5240484953   -3.3987279603    1.1363164919
 H   -2.1828058187   -0.5268278936   -0.4590719488
 H   -1.2062875762   -1.9983355635   -0.1536336036