20

 C   -0.0635193254    1.4576037264    0.0162259943
 N   -0.0140832639   -0.0017500012    0.0130626734
 C    0.0235589641   -0.6410444767   -1.2200322932
 O    0.0189080718   -0.0278678864   -2.2710402625
 C    0.0189940261   -2.1610156090   -1.1656935510
 C    0.8402421008   -2.7160356064    0.0011500430
 C    0.4471574066   -1.9996474722    1.2617153922
 C    0.0458224841   -0.7229266623    1.2348449738
 C   -0.3678879846    0.0192559476    2.4757005311
 H    0.8235392436    1.8830573479    0.4974167511
 H   -0.0933518409    1.7778832787   -1.0234744733
 H   -0.9540133855    1.8270281045    0.5328787626
 H   -1.0284353262   -2.4722793925   -1.0516309589
 H    0.3627082682   -2.5174105022   -2.1381139164
 H    0.6765838198   -3.7941892662    0.0952728372
 H    1.9152770236   -2.5876356823   -0.1988185785
 H    0.4800307833   -2.5201446719    2.2111649935
 H   -0.2967858076   -0.6440264153    3.3393395908
 H    0.2639706571    0.8927616870    2.6689689068
 H   -1.4011501750    0.3788856425    2.4062929941