21

 O    0.4862125044    0.5535534839    0.9297035725
 C    0.0233662553   -0.5919048870    0.2476780177
 C   -1.4084651460   -0.3944322928   -0.2503727099
 C   -2.0728650470   -1.6824925712   -0.7697267682
 C   -2.8475452466   -2.1657483560    0.4477191160
 C   -3.7133967865   -3.3892248937    0.4574369427
 C   -2.4162337605   -3.3769684786    1.2356687473
 C   -3.2466823844   -0.8793713957    1.1437855073
 O   -2.1967024850    0.0482991221    0.8744821591
 H   -0.2280368697    0.7932430808    1.5340281326
 H    0.6956149485   -0.7600299343   -0.6016035093
 H    0.0598590753   -1.4884108180    0.8896498929
 H   -1.4173175654    0.4091914421   -0.9966568720
 H   -2.7542434227   -1.4570078864   -1.5974796928
 H   -1.3409498076   -2.4118167743   -1.1291759507
 H   -4.6436324125   -3.3540795708    1.0161795505
 H   -3.7641471906   -3.9887447240   -0.4456203873
 H   -1.5895747699   -3.9684323324    0.8556085077
 H   -2.4714112165   -3.3324240218    2.3186692077
 H   -4.1958284660   -0.4896172802    0.7424192734
 H   -3.3550382367   -0.9868639116    2.2285163627