20

 C    0.2812248208    1.6149772504   -0.0920558581
 C   -0.0391125213    0.1227304950   -0.0431382864
 O    0.5653207636   -0.4477040925   -1.1962175233
 C    0.1018851505   -1.7285018823   -1.5714653832
 C    0.7280353181   -2.8681742660   -0.7678742758
 C    0.2446090096   -2.9761606857    0.6849822696
 C    0.5213457675   -1.7865130658    1.5729199363
 C    0.4025619972   -0.4931996129    1.2725755914
 H    1.3621672741    1.7709553614   -0.0212885771
 H   -0.0691489131    2.0452575923   -1.0329877066
 H   -0.2002538836    2.1408392341    0.7377467900
 H   -1.1350406765   -0.0032678839   -0.1305720274
 H   -0.9994051533   -1.7725546185   -1.5019779312
 H    0.3672285543   -1.8399335336   -2.6286785348
 H    0.5053058676   -3.8117040491   -1.2829852757
 H    1.8162066914   -2.7391741215   -0.7869504178
 H   -0.8395511547   -3.1720951235    0.6841898579
 H    0.6973656605   -3.8645840717    1.1389869703
 H    0.8253545776   -2.0312056754    2.5890866961
 H    0.6134632398    0.2278734991    2.0603784560