22

 C   -0.6658519218    1.4728091408    0.1111447955
 C   -0.0839452790    0.0670762480   -0.0111436703
 C   -1.1568509897   -0.9301770469   -0.4649303584
 C    1.2342639290   -0.0609767355   -0.8463051085
 C    1.8606707764   -0.9359740122    0.2800112110
 O    3.1945461382   -0.7182991759    0.6640782849
 C    0.7255914413   -0.4685253116    1.1972105372
 C    0.8826311443    0.1549285968    2.5310946502
 N    0.2615157206   -1.1792323789    2.3817674811
 H    0.0936267816    2.1963829130    0.4231365462
 H   -1.0759911051    1.8079673930   -0.8484150119
 H   -1.4825374766    1.5059868600    0.8428020160
 H   -1.5710873934   -0.6350471679   -1.4353449686
 H   -0.7554060732   -1.9432970057   -0.5638094880
 H   -1.9880438588   -0.9712051683    0.2489981218
 H    1.1526205824   -0.5075833261   -1.8400532309
 H    1.7547698003    0.8986224102   -0.9329613036
 H    1.7880115513   -2.0058614856    0.0651317961
 H    3.2875947770    0.2147055556    0.8855293224
 H    1.8542715732    0.1436009691    3.0188467351
 H    0.2519823802    1.0021306893    2.7879024101
 H   -0.7507087282   -1.0985413213    2.4634143424