21

 C   -0.1556826855    1.5756145083   -0.0369356009
 C   -0.0295202999    0.0596025940   -0.0084142237
 O   -1.2843411732   -0.5589334599   -0.2498433757
 C    1.1960422867   -0.6043078518   -0.6745571091
 C    2.1186908182   -0.2872154328    0.5528686958
 C    2.5900160116   -1.7499461591    0.6616541341
 C    1.1049046280   -1.8537061322    0.2667539642
 C    0.7047168807   -0.6197483490    1.1660884403
 C    0.3062397865   -0.6426479515    2.6157954549
 H    0.7923667065    2.0697024440    0.1928532805
 H   -0.4712270689    1.9188991737   -1.0308842965
 H   -0.9072482239    1.9110020537    0.6849011984
 H   -1.6581978584   -0.1798652631   -1.0520889111
 H    1.5026509959   -0.6088343128   -1.7228352744
 H    2.6907823400    0.6283252342    0.7120528383
 H    3.3213313081   -2.0851512611   -0.0810301880
 H    2.8684026530   -2.1106723496    1.6573497893
 H    0.4943936294   -2.7387708275    0.0953193574
 H    1.0045890945   -1.2404656857    3.2115525317
 H    0.2866174241    0.3679699340    3.0393246494
 H   -0.6933747532   -1.0741889759    2.7319935251