23

 C    0.0389744221    1.5676457953   -0.1515645766
 C    0.0286026948    0.0551323812    0.0094770992
 O    0.6371392329   -0.4944680995   -1.1478120549
 C    0.7214516494   -1.9239847418   -1.2489246842
 C    1.4912537925   -2.5396024601   -0.0619398072
 C   -0.6817221226   -2.5733140816   -1.3760753843
 C   -1.5400713582   -1.9901218081   -2.4986085133
 C    1.4898979268   -2.1653694919   -2.4799905957
 C    2.1230719753   -2.4073016543   -3.4718769498
 H    1.0641579674    1.9328965347   -0.2581331226
 H   -0.5225785034    1.8637944455   -1.0420297862
 H   -0.4138259131    2.0463260550    0.7221405671
 H    0.5784018446   -0.2289189540    0.9182534424
 H   -1.0048253988   -0.3039557536    0.1259831406
 H    0.9148251693   -2.4662735330    0.8643742443
 H    1.6881466757   -3.5969856546   -0.2549123118
 H    2.4476733526   -2.0279965765    0.0709961311
 H   -0.5344585038   -3.6478603909   -1.5310154663
 H   -1.1952957427   -2.4715966547   -0.4128053583
 H   -2.5163045673   -2.4828733507   -2.5331809964
 H   -1.7021200748   -0.9184716861   -2.3558634839
 H   -1.0555408259   -2.1247475811   -3.4698622712
 H    2.6834410471   -2.6066606590   -4.3517280521