20

 C   -0.2312839348    1.5492671493    0.1357996194
 C   -0.1152394069    0.0331825976   -0.0298323603
 C   -1.4313501729   -0.6656128604    0.3237389770
 C    0.5633462765   -0.5207752845   -1.3208757600
 C    1.1581222878    0.4006600442   -2.3668335731
 O    1.9656827774   -0.3283956227   -3.2722402595
 O    1.6424067227   -1.1024544171   -0.5002522522
 C    1.0906207993   -0.5912530603    0.6572780147
 N    1.4822117577   -0.6518537788    1.8460916227
 H    0.7071387876    2.0667055605   -0.0767248966
 H   -1.0073499113    1.9559703044   -0.5211956487
 H   -0.5062452968    1.7809393415    1.1687465828
 H   -2.2408973582   -0.3123084819   -0.3240908552
 H   -1.3520074452   -1.7510812858    0.2125731989
 H   -1.7037927003   -0.4525757602    1.3613198317
 H    0.0105996050   -1.3284822313   -1.8106971391
 H    0.3571267576    0.8599226966   -2.9564184519
 H    1.7269520866    1.2074682789   -1.8828108342
 H    2.6403499813   -0.7724387474   -2.7453788564
 H    2.3564879068   -1.1731926326    1.9308150101