21

 C   -0.5469076163    1.4361870706   -0.1256250340
 C    0.0572356363    0.0344860080   -0.0807326683
 C    1.2797979175   -0.1879798806   -0.9862873936
 C    1.8635257389   -1.4747778639   -0.4053213867
 O    1.5962851461   -1.4296787099    0.9977227347
 C    0.5885227606   -0.4548329029    1.2914222126
 C    1.2000942989    0.6369086056    2.1903059920
 C    1.7995580992    0.0540894076    3.4532711757
 O    1.5025174832    0.4060062481    4.5674551673
 H    0.1916292387    2.2061091181    0.1182681147
 H   -0.9307560277    1.6530614460   -1.1274131558
 H   -1.3821799152    1.5368283174    0.5753792978
 H   -0.7155861255   -0.6823650589   -0.3873741286
 H    1.0162503304   -0.2796883289   -2.0430294168
 H    1.9885158232    0.6427584673   -0.8878152038
 H    1.3811305753   -2.3593993847   -0.8475466169
 H    2.9444216800   -1.5735099636   -0.5478359979
 H   -0.2128533329   -0.9537285340    1.8524020899
 H    2.0058862090    1.1407276500    1.6389266813
 H    0.4521646767    1.3798895833    2.4797222845
 H    2.5510045733   -0.7438982544    3.2798436717