16

 C    0.0010699565    1.5085221983    0.0375973421
 C    0.0037411689   -0.0005329201   -0.0003709939
 C   -0.0695200684   -0.6917399800   -1.2104197883
 C   -0.0453458915   -2.0859269590   -1.2269818055
 C    0.0496786737   -2.8118540547   -0.0475174843
 C    0.1209188065   -2.1267530513    1.1671550502
 O    0.2102856311   -2.8729905787    2.3056481343
 C    0.0969234507   -0.7332268794    1.1867795044
 H    0.9989370048    1.9026163745    0.2653876728
 H   -0.3073842004    1.9293446883   -0.9228872106
 H   -0.6776715085    1.8897458094    0.8077418974
 H   -0.1462224412   -0.1387373321   -2.1408361209
 H   -0.1043132848   -2.6138354870   -2.1734405651
 H    0.0670254610   -3.8953745965   -0.0431218174
 H    0.2514842776   -2.2821225891    3.0646784143
 H    0.1505822338   -0.2101074127    2.1397866203