23

 C    0.3999253647    1.5478467548    0.2439883617
 C    0.0413859010    0.0644170186    0.0949676736
 C    0.5965976373   -0.6128787924   -1.1642125825
 C    0.1415356805    0.0957722925   -2.4622302862
 C   -1.3591272379    0.2314341290   -2.5643031300
 O   -1.9521266286    1.2811186608   -2.5954376429
 C    2.1409997342   -0.8633004266   -1.1886367253
 C    1.8857015697   -2.3227252216   -1.6487582436
 C    0.3990491251   -2.1654578146   -1.2347253724
 H    1.4825776460    1.7052790465    0.1818748909
 H   -0.0771272907    2.1560274554   -0.5297822956
 H    0.0662413694    1.9283474797    1.2140517564
 H    0.4132879342   -0.4897028116    0.9659930697
 H   -1.0516500285   -0.0466216899    0.1152704077
 H    0.5800916182    1.0948206654   -2.5356181426
 H    0.4877371999   -0.4893741840   -3.3256533058
 H   -1.9175704887   -0.7326747054   -2.6013819549
 H    2.7369694353   -0.2256197102   -1.8471454518
 H    2.5688339041   -0.8143891672   -0.1828563712
 H    2.0105985930   -2.4495765774   -2.7274142659
 H    2.4578872833   -3.1073082412   -1.1492414478
 H    0.1975237205   -2.5862087253   -0.2452529942
 H   -0.3570753521   -2.5475631350   -1.9260774375