19

 C    0.0120209270    1.5416063450    0.0173916417
 C    0.0345800040    0.0356685402    0.0481627349
 C    0.4863341832   -0.7417326976   -1.2146266791
 C    0.3145880090   -2.2254729891   -0.7231050620
 C   -0.1928041458   -1.9727639006    0.7148885465
 C    0.7481805181   -0.8040218923    1.1819720920
 O    2.1384546772   -0.9565816715    1.1803620133
 C   -1.1790727473   -0.8225763388    0.4512629208
 O   -2.3460195583   -0.6235747523    0.6230919674
 H    1.0227045314    1.9463186398   -0.1044668067
 H   -0.5995880967    1.9090864676   -0.8134027214
 H   -0.4072814256    1.9486336362    0.9426700742
 H   -0.1395975469   -0.5098610237   -2.0800125205
 H    1.5186952604   -0.4976647674   -1.4879929725
 H   -0.4055940544   -2.7866465870   -1.3224610407
 H    1.2522893920   -2.7906895228   -0.7330244463
 H   -0.4342393391   -2.8266627465    1.3434182199
 H    0.4830141522   -0.4393656927    2.1765936831
 H    2.4191631696   -1.3210211964    0.3350907353