16

 C   -0.1035355291    1.4938833815    0.1216168111
 C   -0.0290294149    0.0026035817    0.0948453659
 N   -0.1776106631   -0.6923295416   -1.0315600086
 N   -0.0433298920   -1.9829676170   -0.6722406339
 C    0.1970906890   -2.1526502740    0.6515620342
 C    0.2056942512   -0.8771753643    1.1782081297
 O    0.4465712330   -0.4763449264    2.4665915459
 C   -0.2413587619   -1.0982190171    3.4596419782
 N    0.0769325509   -0.8890243987    4.6595138345
 H    0.8423805222    1.9334330733    0.4549291048
 H   -0.3300579615    1.8693560259   -0.8780781136
 H   -0.8792452215    1.8417274021    0.8118138162
 H   -0.1243904535   -2.6951098712   -1.3769043660
 H    0.3533311371   -3.1208426453    1.0981347586
 H   -1.0460909770   -1.7389048601    3.0779075372
 H   -0.5476580088   -1.4010336988    5.2790127858