22

 C   -0.8167714360    1.4276545225    0.4774858688
 C   -0.0580476109    0.1834564221    0.0020880441
 C    0.8331777022   -0.4240068294    1.0758971323
 C    0.2465675136   -1.3315232154    2.1343406215
 C    1.1791861951   -1.8965123203    1.0875459392
 C    0.7124896466   -2.8704356607    0.0297922835
 N    1.8856108043    0.4523837466    1.5392451712
 C    3.0088080960    0.7122323774    0.8145978441
 O    3.2922698387    0.1991103049   -0.2466659223
 H   -0.1271727582    2.2157061783    0.7970040856
 H   -1.4355726737    1.8382958159   -0.3257937925
 H   -1.4745519902    1.1940804912    1.3220550726
 H   -0.7753096708   -0.5691102538   -0.3389167918
 H    0.5697913577    0.4319130668   -0.8608082358
 H    0.6043527931   -1.2380140896    3.1544804475
 H   -0.8111766204   -1.5617108426    2.0503792998
 H    2.1875119932   -2.0891616637    1.4407266843
 H   -0.3335715999   -2.7143039499   -0.2483407785
 H    1.3207893371   -2.7823402247   -0.8762171918
 H    0.8002123163   -3.8990300709    0.3960154856
 H    1.7210153466    1.0107948989    2.3629354830
 H    3.6592818995    1.4549124065    1.3215045297