18

 C   -0.3019823095    1.4404414009   -0.4961028287
 O   -0.3528063343    0.0419338239   -0.6520404383
 C   -0.9667189396   -0.6077428075    0.4314613598
 C   -0.9910804697   -2.0994942674    0.2067746387
 C   -0.4601447252   -2.6862313669   -0.9385357240
 C   -0.5211975872   -4.0716573808   -1.0719617351
 N   -1.0610404021   -4.8891992266   -0.1654722896
 C   -1.5679443520   -4.3149519421    0.9305782437
 C   -1.5582887030   -2.9449064102    1.1616976959
 H    0.1886458987    1.8490121176   -1.3822243248
 H   -1.3092422681    1.8776839557   -0.4119263018
 H    0.2741692089    1.7299803438    0.3966772798
 H   -0.4304777918   -0.3855564937    1.3715105591
 H   -1.9989710923   -0.2393162226    0.5704854441
 H   -0.0099102039   -2.0716532163   -1.7068482149
 H   -0.1114450293   -4.5479396405   -1.9601573258
 H   -2.0060458829   -4.9876732779    1.6645284769
 H   -1.9883542567   -2.5454507193    2.0755734352