20

 C   -0.6691018761    1.1373614656   -0.0097406039
 C   -0.3886817413   -0.3245898676    0.2596537531
 C    0.9116669854   -0.9455551506   -0.1787458647
 C    0.6104184988   -0.7864118073    1.2876279223
 C    1.4085129129   -0.0767479177    2.4107431436
 C    0.8816322629    1.2232660090    3.0009110331
 N    1.1176502265   -1.2755965899    3.2229417190
 C    0.4349724106   -1.9557303173    2.2374880035
 O   -0.0668980676   -3.0484675927    2.1826202891
 H    0.2443586883    1.7382071666    0.0402372083
 H   -1.0915955377    1.2642571368   -1.0123090329
 H   -1.3836543455    1.5529928607    0.7081298832
 H   -1.2593035900   -0.9729427622    0.1891069392
 H    0.9097230197   -1.9556115453   -0.5752398260
 H    1.6592878414   -0.2854893664   -0.6090149806
 H    2.4757617410    0.0150704573    2.1719053252
 H   -0.1928507928    1.1566823026    3.1926782813
 H    1.3859212070    1.4432705245    3.9482216212
 H    1.0664564685    2.0645010932    2.3263761826
 H    1.4883184082   -1.5850076795    4.1088845936