23

 C    0.0835817488    1.5522742862   -0.0352852817
 C    0.0030880656    0.0282596460    0.0715596662
 O    0.7713576373   -0.4513260979    1.1775719569
 C   -1.4378207073   -0.5266219921    0.0819928257
 C   -1.4421250260   -2.0624556482   -0.0079649320
 C   -2.8682196009   -2.6185455232    0.0941753116
 C   -3.5688892913   -2.0431080269    1.3248843754
 O   -3.5611149800   -0.6249942534    1.3114813202
 C   -2.2489753588   -0.0913577915    1.3136792057
 H    1.1280620735    1.8670386550   -0.1098987585
 H   -0.4522980034    1.9163366795   -0.9176331033
 H   -0.3525896478    2.0430748992    0.8429687238
 H    0.5037202550   -0.4025526690   -0.8053423153
 H    0.5287057817    0.0637992633    1.9538063778
 H   -1.9503477304   -0.1232152959   -0.8029455229
 H   -0.9680228725   -2.3848393477   -0.9426743563
 H   -0.8251539975   -2.4575196898    0.8083616085
 H   -3.4432227619   -2.3424792883   -0.7985269687
 H   -2.8584968298   -3.7132980262    0.1501134207
 H   -4.6211261469   -2.3399313908    1.3644035135
 H   -3.0779472499   -2.4131421157    2.2426113050
 H   -1.7212062233   -0.4060728353    2.2320945675
 H   -2.3730930742    0.9948190127    1.3502479103