22

 C    0.0483745368    1.5801225674   -0.0595733530
 C    0.0453322832    0.0466538287    0.0175264293
 C    0.5899739469   -0.5441706691   -1.2864959387
 C    0.8901322131   -2.0326269578   -1.1501744447
 C    1.9599022911   -2.2077964591   -0.0754749357
 C    1.6422569359   -1.5049698221    1.2390954199
 O    2.1589405984   -1.8860930018    2.2776889355
 N    0.7764392876   -0.4340877470    1.2022803945
 C    0.3666044956    0.1316115143    2.4823445103
 H    1.0744223438    1.9603721807   -0.1024634758
 H   -0.4748078054    1.9009436038   -0.9657452600
 H   -0.4538252029    2.0418198031    0.7932618754
 H   -1.0032455637   -0.2804852456    0.1259804086
 H   -0.1416838282   -0.3494260808   -2.0773525464
 H    1.5097355685   -0.0137942801   -1.5680646438
 H   -0.0217135393   -2.5750652567   -0.8688279395
 H    1.2270776741   -2.4538642361   -2.1029600948
 H    2.1388224229   -3.2551529180    0.1780453613
 H    2.9181801387   -1.8083347203   -0.4329356356
 H    0.7567298154   -0.5078765709    3.2720726876
 H    0.7566056628    1.1449558225    2.6260080094
 H   -0.7281637153    0.1715208450    2.5435787264