16

 O   -0.0337860464    0.0618280133    0.3910942040
 C   -0.0734100964    1.2308755231    0.0898519495
 C   -1.3394894386    1.9682010376   -0.1487870890
 C   -1.3854250848    3.2778334168    0.1216205426
 C   -0.1276869012    3.9795768575    0.5535953064
 C    0.5481163820    3.4488976106    1.8840938405
 C    1.6658448079    2.8170648950    1.0400743926
 C    1.0992504908    3.4307223081   -0.2062845977
 N    1.1281134365    1.9904669505   -0.0448236412
 H   -2.2065513818    1.3804347329   -0.4265367576
 H   -2.3176185721    3.8331805546    0.0630779066
 H   -0.2275600786    5.0646779901    0.5412423479
 H    0.9256853417    4.2796825048    2.4843554800
 H   -0.0443964815    2.7824158345    2.5160721272
 H    2.6916043214    2.6491630699    1.3438243339
 H    1.5861900810    3.8657460807   -1.0719383858