17

 O   -0.4622392428    1.2627035893    0.0737763693
 C   -0.0563489630   -0.1100325125    0.0208884272
 C    0.7525892521   -0.3808159741   -1.1700611027
 C    1.4668186440   -0.5791392430   -2.1171725932
 C    0.6909330946   -0.5641900838    1.2846563069
 O    1.0451639103   -1.9143302728    1.2341829821
 C    1.5930250145    0.4051582938    2.0309819744
 C    0.2723534679   -0.0539073782    2.6292958475
 O   -0.8062409154    0.8015815863    2.8182165072
 H    0.2921168993    1.8034721902   -0.1860111706
 H   -0.9878456562   -0.6851384125   -0.0361348099
 H    2.0717639964   -0.7580409554   -2.9723696732
 H    1.7152978985   -2.0152667410    0.5456491130
 H    2.5135813847    0.0085587865    2.4450950733
 H    1.6497023666    1.4327649111    1.6851266660
 H    0.3373807530   -0.7786722578    3.4343676249
 H   -0.9296913745    1.2971921039    1.9962929976