10

 O   -0.0723785764    0.0249320720   -0.0007516467
 C   -0.0101337821    1.2238928976    0.0072882163
 C    1.2734726195    1.9825370970   -0.0006177956
 N    2.4537184623    1.4150762183   -0.0174857413
 O    3.3543526156    2.4285200363   -0.0194942315
 N    2.7604809164    3.6506048808   -0.0039650546
 C    1.4721752088    3.4003542449    0.0082130173
 C    0.4906287298    4.4272570610    0.0265256222
 N   -0.3475690428    5.2231621458    0.0414991062
 H   -0.9096164213    1.8708180264    0.0213119379