18

 C   -1.0955924864    1.1085616355   -0.4306642326
 C   -0.1347150741   -0.0666071446   -0.3369659171
 C    0.8421533627   -0.4334424500   -1.5269562659
 C    1.0357794152    0.6375371153   -2.4897981767
 N    1.1921433319    1.4970584060   -3.2477839659
 C    2.0296962228   -0.5990201688   -0.4939071671
 C    3.4017461615    0.0021914016   -0.7567504454
 C    1.1175405211    0.0754400477    0.5447510036
 O    1.3270307628    0.6193875887    1.5886545454
 H   -0.5862738580    2.0127617045   -0.7740578460
 H   -1.9165685197    0.8969370819   -1.1217334726
 H   -1.5198900687    1.3121791624    0.5564615764
 H   -0.6690882225   -0.9783781469   -0.0435261328
 H    0.5786583354   -1.3465110577   -2.0634847238
 H    2.1170932157   -1.6637608642   -0.2455442499
 H    3.3260602197    1.0503990887   -1.0574788274
 H    4.0020721713   -0.0464797854    0.1560183072
 H    3.9295443995   -0.5411328346   -1.5457951093