14

 C   -0.0247154410    1.5625902087    0.0204461134
 C   -0.0027586659    0.0333481662    0.0103028091
 C    0.7099823353   -0.5252890564   -1.2417818379
 C    0.7457485686   -1.9768552265   -1.2783284964
 C    0.7631139357   -3.1853793924   -1.2866153115
 C    0.7848531785   -4.5500054872   -1.2997363026
 N    0.8031670314   -5.7117594120   -1.3107998182
 H    0.9897638956    1.9757873759    0.0153223080
 H   -0.5505598630    1.9594504602   -0.8547239358
 H   -0.5328366857    1.9383306555    0.9129510657
 H    0.5047231970   -0.3451917147    0.9039153315
 H   -1.0238366289   -0.3614048104    0.0409695047
 H    0.2093837579   -0.1579195414   -2.1475981398
 H    1.7382182147   -0.1418733455   -1.2844911702