13

 C   -0.0594241138    1.4561100807   -0.0166661142
 N   -0.0006711922    0.0114495820    0.0297582107
 C   -0.0222165613   -0.8363631996   -1.0266701137
 N    0.0468867228   -2.1015853566   -0.6539923927
 C    0.1160042584   -2.0603574730    0.7072829802
 O    0.1986728044   -3.1902249141    1.4437451553
 C    0.0895753431   -0.7700610011    1.1736323987
 H    0.8376954198    1.8984707685    0.4281313256
 H   -0.1256531209    1.7747333934   -1.0587623541
 H   -0.9376768902    1.8292718047    0.5197919662
 H   -0.0890654057   -0.4806632801   -2.0441150369
 H    0.1944217528   -3.9196677504    0.8120360877
 H    0.1241261029   -0.3478850145    2.1622211873