19

 C   -0.2552967787    1.5051555324    0.1491130568
 N    0.0608409060    0.0897089346    0.0920153950
 C    1.0411116066   -0.3915045551   -0.9230722251
 C    1.8360554319   -1.0933416878    0.1858142003
 C    2.3922588784   -2.4928602986    0.0995429882
 C    3.6049563834   -2.5622113668   -0.7227183663
 N    4.5554924046   -2.5995908107   -1.3785374716
 C    2.2928520871   -0.0601984099    1.1849846862
 C    0.8461783291   -0.5001136085    1.1719246602
 H    0.6238979347    2.1633956643    0.2623863013
 H   -0.7804945088    1.7963955964   -0.7661960686
 H   -0.9271840540    1.6900702828    0.9936978149
 H    0.5767207313   -1.0668554799   -1.6504513737
 H    1.5844759000    0.3946072692   -1.4632177393
 H    2.6323736735   -2.8706443645    1.1000174006
 H    1.6491551302   -3.1782365924   -0.3263694453
 H    2.8800956048   -0.4459901230    2.0133223082
 H    2.5856222243    0.9326781619    0.8552220166
 H    0.3608330858   -0.9428025744    2.0364277116