23

 C   -0.1931176651    1.7044103038    0.1952753693
 C   -0.1081316309    0.1745944236    0.2057824713
 C   -1.4303314792   -0.5406480372   -0.1443276123
 C   -1.9020547016   -0.2624476897   -1.5816646936
 C   -1.3458554502   -2.0404632717    0.1362009962
 C   -1.5783754599   -2.5405287084    1.5602232531
 C   -2.6186995487   -2.7908124665    0.5251087631
 C   -0.3729471789   -2.8509865472   -0.6488718125
 O   -0.2070437025   -4.0420137645   -0.5137467489
 H    0.7513471232    2.1486147507    0.5241551407
 H   -0.4091474587    2.0977806865   -0.8026086571
 H   -0.9799302459    2.0603567059    0.8702830954
 H    0.6800743827   -0.1484068270   -0.4870927349
 H    0.2088360145   -0.1593339146    1.2013027954
 H   -2.1988556601   -0.1441060549    0.5343781517
 H   -2.8334430565   -0.7962264466   -1.7945823460
 H   -2.0851807901    0.8033357165   -1.7433683379
 H   -1.1585588064   -0.5829700438   -2.3200257601
 H   -0.9719030221   -3.3812277297    1.8767896371
 H   -1.7633545975   -1.7835787520    2.3148825145
 H   -3.5336129732   -2.2086286794    0.5517117576
 H   -2.7143592485   -3.8002348838    0.1423057762
 H    0.2210422855   -2.2865874297   -1.4001088183