21

 C   -0.6621045099    1.3231508351    0.0348502344
 C   -0.0405024662   -0.0734708474   -0.1011205364
 C    0.8116706127   -0.2558496533   -1.3391807096
 C    2.0242712646   -0.7471704656   -1.0833665675
 C    2.2515925212   -0.9645556798    0.3851447833
 C    2.9326604936    0.2040540603    1.1319914893
 O    1.6584205241    0.7322047136    1.5496529969
 C    0.9426159022   -0.4355534643    1.0472248597
 C    0.3215853909   -1.2213503453    2.1858261970
 H    0.1166176204    2.0860361466    0.0931544021
 H   -1.3077056068    1.5411014242   -0.8219440580
 H   -1.2737499730    1.3953524777    0.9401806019
 H   -0.8616730279   -0.8065432244   -0.1128977693
 H    0.4400272328   -0.0069509105   -2.3285217797
 H    2.7844843270   -0.9546135647   -1.8291926839
 H    2.5994494566   -1.9673520008    0.6474225571
 H    3.5484921914   -0.0954934261    1.9909240897
 H    3.4947499577    0.9157294349    0.5164374569
 H   -0.4775689930   -0.6402887514    2.6591858717
 H   -0.1094777604   -2.1594461005    1.8200858859
 H    1.0665527820   -1.4563036382    2.9518123484