14

 C    0.0185250466    1.4387245926   -0.0506244953
 O    0.0179116175    0.0024617825   -0.0312207517
 C    0.5915901245   -0.6466228907   -1.0334301479
 C    0.6379806332   -2.0129238752   -1.0972961875
 N    1.2390813683   -2.6233066978   -2.1484916271
 C    1.7729245003   -1.9136670959   -3.0984157742
 C    1.7798225514   -0.4654376242   -3.1295221977
 O    2.2324168437    0.2916057268   -3.9365963492
 O    1.1265662196    0.1097866731   -1.9859801884
 H    1.0396461752    1.8276632542   -0.0488760442
 H   -0.5108619644    1.8164329459   -0.9287211681
 H   -0.5004927827    1.7340408945    0.8602347927
 H    0.1992108396   -2.6178766433   -0.3162465826
 H    2.2512838969   -2.4130469728   -3.9347188288