21

 C    0.0735567067    1.5960668377    0.0573774778
 C    0.0297301812    0.0670226891    0.0235536695
 C    0.7443295393   -0.5603690849   -1.2004060058
 C    1.2414201161   -1.9634214437   -0.7547542388
 C    0.1850769435   -3.0549536382   -0.9702420312
 O    2.4703295719   -2.3384746834   -1.3656054503
 C    1.4787747880   -1.7733933844    0.7360738009
 O    2.1663328683   -0.5657768014    1.0748527681
 C    0.7373667426   -0.5958650892    1.1968581655
 H    1.1100324110    1.9441772845    0.1072931666
 H   -0.3875363470    2.0249163992   -0.8382037993
 H   -0.4596491772    1.9910374264    0.9288169325
 H   -1.0189299078   -0.2611817711    0.0457051975
 H    0.0966832236   -0.6084574406   -2.0811651372
 H    1.6248874103    0.0336719920   -1.4563136618
 H   -0.0084144554   -3.1883980100   -2.0410907618
 H    0.5315235176   -4.0108197286   -0.5658842884
 H   -0.7656731626   -2.7985852518   -0.4916693851
 H    2.3055243352   -2.4728361406   -2.3048698208
 H    1.6999429857   -2.6340067069    1.3631274135
 H    0.3535381991   -0.4978062642    2.2101942184