23

 C    0.1170518328    1.5351358111   -0.0757373566
 C    0.0231608244    0.0143428636   -0.0163754626
 C   -1.4282856566   -0.4363346400   -0.1763886968
 O   -1.8894971818   -0.0471386138   -1.4630927869
 C    0.9576596787   -0.8034345856   -0.9702049259
 C    1.4199990046   -1.6893440829    0.2198559679
 C    2.7617657242   -1.2639391063    0.8638704678
 C    2.0056553753   -0.2290503031    1.7521721197
 C    0.6423213957   -0.7387693145    1.2015288538
 H    1.1540346988    1.8815850543   -0.0460314187
 H   -0.3344193513    1.9026124614   -1.0015906944
 H   -0.4156614046    1.9976058767    0.7644787397
 H   -1.4895261791   -1.5296154093   -0.0523118328
 H   -2.0393969052    0.0204315500    0.6203125895
 H   -2.7944964039   -0.3544651392   -1.5654344376
 H    0.4274968059   -1.3151330325   -1.7761168836
 H    1.7656885743   -0.2159310343   -1.4172527489
 H    1.2174406150   -2.7580283841    0.1361211139
 H    3.2273789633   -2.0601294291    1.4511672251
 H    3.5139589342   -0.8654213099    0.1758660274
 H    2.1312180024   -0.3926773156    2.8251366465
 H    2.2309867424    0.8209245045    1.5504909162
 H   -0.0649446195   -1.0962824715    1.9550060373