17

 C    0.0146141487    1.4046170973    0.1013427479
 N    0.0357408670   -0.0378184685   -0.0626237007
 C   -1.0857407146   -0.6381845109   -0.0523867070
 N   -2.3709803079   -0.1549283822    0.1196588247
 C   -3.4167844353   -1.1326880665   -0.1909777654
 C   -2.7013537249   -2.4658886903    0.0918038371
 O   -3.1782136235   -3.5510198645   -0.6463382791
 C   -1.2463303392   -2.1281684303   -0.2302799598
 O   -0.4459241915   -2.9313230374   -0.6333036006
 H    1.0318686256    1.7963067865    0.0346138768
 H   -0.5885209242    1.9059512653   -0.6741973246
 H   -0.3987551118    1.7010364903    1.0781714387
 H   -2.5611752956    0.8313759148    0.0548769262
 H   -4.2968123983   -0.9743642646    0.4369330414
 H   -3.7264868719   -1.1094643048   -1.2443401805
 H   -2.7494383178   -2.6608065129    1.1783307075
 H   -2.3930448947   -4.0463260413   -0.9243589825