19

 C   -0.3340894143    1.4139746513    0.0464622830
 C    0.0542258234   -0.0534938367   -0.0573642182
 C    1.3831934285   -0.3892829424   -0.7780623903
 O    1.9449999223   -0.9647964924    0.4286053595
 C    0.7488500542   -0.6928096713    1.1433523691
 C    0.7511397022   -0.3340054525    2.5833917334
 C    0.1903449469   -1.6948643466    2.1355997756
 C   -1.2167409584   -1.9471016519    2.1689948122
 C   -2.4056091015   -2.1379255415    2.1653608759
 H    0.5012285389    2.0208904992    0.4112880348
 H   -0.6374301136    1.8059962285   -0.9301663903
 H   -1.1760326766    1.5483802499    0.7332308798
 H   -0.7916356087   -0.6498217856   -0.4092225533
 H    1.3228213100   -1.1254534121   -1.5867722864
 H    1.9634715238    0.4778252297   -1.1148566351
 H    1.7048454409   -0.3550382304    3.0994755895
 H    0.0434179929    0.4061745762    2.9404978464
 H    0.8367944541   -2.5463360681    2.3288029338
 H   -3.4518892849   -2.3170135134    2.1782650507