21

 C   -0.1823037932    1.5305440077    0.0384325880
 C    0.0315523151    0.0115926776    0.0743447440
 C    0.6450651090   -0.4904913340   -1.2464584393
 C    0.9639163159   -1.9770587812   -1.2551878583
 O    0.7414701888   -2.6699663571   -2.2210348219
 C    1.5926110603   -2.5817948113    0.0035900017
 C    1.6396905172   -1.7011379676    1.2410793916
 C    2.3694470164   -0.3782088839    1.2476884406
 C    0.8587246843   -0.4095930826    1.2799784723
 H    0.7746271124    2.0557732790   -0.0565031407
 H   -0.8137199780    1.8220795371   -0.8073278546
 H   -0.6659890742    1.8814151509    0.9559566965
 H   -0.9550934153   -0.4636881910    0.1770512156
 H   -0.0129704533   -0.2851756038   -2.0949075379
 H    1.5840036597    0.0479959198   -1.4407493530
 H    1.0219120231   -3.4942056583    0.2105894742
 H    2.5973895325   -2.9264622813   -0.2762866371
 H    1.6886640449   -2.2623148762    2.1695304213
 H    2.8938831625   -0.0905945164    2.1520941656
 H    2.8689106200   -0.0614413360    0.3379326927
 H    0.4015105116   -0.1498456816    2.2312997685