16

 C   -0.0682288065    1.5476565600    0.0793150344
 C    0.0516829298    0.0439733338   -0.0479635933
 C    0.6808405073   -0.6616052663   -1.2133836758
 C    1.6256310329    0.1485818524   -2.0871595188
 O    2.6616634044    0.6502888515   -1.2275468803
 C    2.6163036101    0.0672713969    0.0131657204
 O    3.4928909825    0.2158453553    0.8138898386
 C    1.3548238707   -0.7258183241    0.1402158046
 H    0.8029783349    2.0719430840   -0.3202546694
 H   -0.9536085013    1.9066844369   -0.4565620192
 H   -0.1752210554    1.8358414484    1.1297462351
 H   -0.7944363934   -0.4948704746    0.3714875297
 H    0.1951500592   -1.5241748053   -1.6531305580
 H    2.0890122275   -0.4766894177   -2.8580642448
 H    1.1487861791    1.0054961469   -2.5736404131
 H    1.3819180883   -1.5976471280    0.7795581000