20

 C    0.3000151985    1.3487512720   -0.0955116113
 O    0.1137747312   -0.0433348595    0.0155053542
 C    0.7588578779   -0.5965264066    1.1402729746
 C    0.4792170817   -2.0907719260    1.1389434307
 C    1.1981119504   -2.8650918386   -0.0011408571
 C    2.2888116209   -3.3190397896    1.0049188594
 C    1.3314380594   -2.9116391649    2.1714270090
 C    1.8950676682   -2.2269424316    3.3233491566
 N    2.3520003946   -1.6671560826    4.2267425174
 H    1.3649018826    1.6113638721   -0.1959596432
 H   -0.2317711200    1.6786414497   -0.9910797618
 H   -0.1036561917    1.8853176144    0.7771264261
 H    1.8445771400   -0.3998263643    1.0989324979
 H    0.3883714301   -0.1381508879    2.0720502487
 H   -0.5988628840   -2.2476490304    1.2161988830
 H    0.6020420612   -3.7013761626   -0.3739028725
 H    1.5205856814   -2.2610264868   -0.8502018799
 H    2.6003112050   -4.3645359668    0.9865718909
 H    3.1792150537   -2.6882930443    0.9773769526
 H    0.7626460788   -3.7759716659    2.5248457948