19

 C    0.1503250775    1.5160252846   -0.0079592324
 C    0.0131980406    0.0018001681    0.1077625720
 O    0.5100492982   -0.6143557803   -1.1075271846
 C    1.2757456664   -1.7456967423   -0.7492936182
 C    2.8421981210   -1.8003798511   -0.8659095959
 C    2.8817405740   -2.2437183167    0.6577552683
 O    3.8188882507   -1.6707159084    1.5285610415
 C    1.5002103739   -1.6521150860    0.7272076892
 C    0.8612820880   -0.6012298298    1.2235655024
 H    1.2040066988    1.8031400748   -0.0717489603
 H   -0.3612298084    1.8684421584   -0.9080245684
 H   -0.2981484176    2.0105597064    0.8599344906
 H   -1.0549852460   -0.2524582163    0.2115623700
 H    0.8102150863   -2.6623640156   -1.1353035841
 H    3.2768159916   -2.4844175361   -1.5994095403
 H    3.2593608333   -0.7969940063   -0.9659096926
 H    2.8806640505   -3.3408830354    0.7297775774
 H    4.6324851210   -2.1818069446    1.4784995106
 H    1.0122157701   -0.1112898436    2.1766702249