15

 C   -0.0140016290    1.4376630200   -0.0692001769
 N   -0.0074798545   -0.0008214013    0.0557630783
 N   -0.0403703077   -0.7785126251   -1.0710916882
 N   -0.0267361566   -2.0427909954   -0.7283552611
 C    0.0159907123   -2.0716233737    0.6201311599
 C    0.0296114090   -0.7925398626    1.1592809223
 C    0.0743765964   -0.8983090685    2.5786268478
 C    0.0857643373   -2.2569251365    2.8288828766
 N    0.0505843663   -2.9788078277    1.6489575645
 H    0.8938286157    1.8702719109    0.3632923225
 H   -0.0552898098    1.6707645077   -1.1335310564
 H   -0.8871025372    1.8675367617    0.4319349268
 H    0.0958058290   -0.1206757361    3.3240370945
 H    0.1168379517   -2.7726600840    3.7762581226
 H    0.0506457371   -3.9798458494    1.5716438369