22

 C   -0.2856397715    1.5918319853   -0.1716846044
 C    0.1613209751    0.1367456313   -0.0009180189
 N    0.7810272704   -0.4188807150   -1.1939870067
 C    0.0787419848   -0.7512222990   -2.3305802789
 C    0.9615595871   -1.2333601984   -3.2653680971
 C    2.2517089260   -1.1953810642   -2.6734683826
 C    2.1235758698   -0.6905855251   -1.3954985075
 C    3.1909310204   -0.4530551011   -0.3708309870
 C    3.6354205609    1.0141747717   -0.2228039812
 H    0.5624086433    2.2370914931   -0.4174724740
 H   -1.0204951656    1.6822236985   -0.9766557434
 H   -0.7444859863    1.9582052071    0.7522028665
 H    0.8741526627    0.0542035669    0.8224009162
 H   -0.6996659057   -0.4876818751    0.2646659207
 H   -0.9920374345   -0.6233987014   -2.3666722203
 H    0.7084310409   -1.5834993146   -4.2543899993
 H    3.1811585970   -1.5135203833   -3.1224148389
 H    2.8842456836   -0.8403120590    0.6101770027
 H    4.0568429150   -1.0547699706   -0.6660717359
 H    3.9721618682    1.4123168925   -1.1844871137
 H    2.8194422298    1.6513615504    0.1318863376
 H    4.4597584488    1.1008528599    0.4928733761