20

 C    0.0886764177    1.1813145142   -0.2381021091
 O   -0.0871375830    0.0362580700    0.5744585903
 C   -1.2874053468   -0.6252511269    0.3281395354
 C   -1.4915356379   -1.7124310452   -0.7219534252
 N   -0.3527229441   -2.5980372222   -0.9216231122
 C    0.8166510065   -2.1345106360   -1.6485586722
 C   -0.2446695049   -2.8769613220    0.5333012347
 C   -1.4991339989   -2.0284255655    0.7801728182
 O   -2.5602587823   -2.4318529205    1.5686257467
 H    1.0427132663    1.6328966148    0.0436044611
 H    0.1131774675    0.9225060547   -1.3058040446
 H   -0.7146795136    1.9154964860   -0.0761597168
 H   -2.1805097084   -0.0060148124    0.4553303135
 H   -2.3003017474   -1.6714931000   -1.4456782953
 H    1.3404390537   -1.2925400466   -1.1710965361
 H    1.5260487263   -2.9626517423   -1.7567412602
 H    0.5125942314   -1.8297862981   -2.6556409977
 H   -0.3938867840   -3.9369444573    0.7640113565
 H    0.6715228221   -2.5135873963    1.0140603288
 H   -2.4598577002   -2.0290410583    2.4382259042