18

 C   -0.1809780863    1.5545485409    0.0203289602
 C   -0.0272008076    0.0447381182   -0.0515611720
 C    1.1034783735   -0.5646798679   -0.9879497472
 O    1.9726229465    0.3166468693   -1.6387253344
 C    1.6734180209   -1.2971897476    0.2343332216
 N    2.0599267794   -0.2100153446    1.1552337467
 C    0.6389357503   -0.6840953056    1.1324829842
 C    0.0168378082   -1.2132368561    2.2951891975
 C   -0.5349682177   -1.6445345071    3.2743754079
 H    0.7486272954    2.0306607776    0.3414129189
 H   -0.4496701915    1.9599120713   -0.9598467768
 H   -0.9664519296    1.8318165786    0.7308502124
 H   -0.9824405785   -0.4351068049   -0.2834823243
 H    0.6905206152   -1.2330486112   -1.7457774984
 H    2.4637376136    0.7655903141   -0.9372797167
 H    2.1414003661   -2.2725543425    0.2916745032
 H    2.5074131582   -0.6287109879    1.9690454785
 H   -1.0199981261   -2.0300214648    4.1367220588