14

 N    0.2379807611    1.4415461577    0.0069823529
 C    0.0317877975    0.0503068536   -0.0134889008
 C   -1.0739264682   -0.7782396806   -0.0313576040
 O   -2.3630990069   -0.3707939486   -0.0331260223
 N   -0.7289140266   -2.0859920499   -0.0475345608
 C    0.6062750333   -2.1001297372   -0.0400450527
 N    1.0977412861   -0.8300375898   -0.0195837189
 C    1.4389404402   -3.2384190785   -0.0510497463
 C    2.1730365187   -4.1933062968   -0.0600779441
 H   -0.1789163520    1.8706465628    0.8271846398
 H   -0.1699415223    1.8933160346   -0.8055209601
 H   -2.9001538656   -1.1725392491   -0.0473694103
 H    2.0668705187   -0.5563975643   -0.0102233740
 H    2.8091427361   -5.0433491739   -0.0682146383