14

 N   -0.0702037930    1.2438974261    0.0079314731
 C   -0.0277395362   -0.0084446707    0.0007513392
 C   -1.2470342923   -0.9380381839    0.0024568222
 N   -0.5983646159   -2.2309270207   -0.0083543352
 C   -0.8493790605   -3.5799578222   -0.0144201287
 N    0.2724538434   -4.2595893663   -0.0244834382
 C    1.3107911681   -3.3397117822   -0.0252320863
 C    0.7605254729   -2.0939819180   -0.0152359196
 O    1.1303352186   -0.7758429354   -0.0100117059
 H    0.8639277101    1.6542184884    0.0049534176
 H   -1.8560146837   -0.7725881494    0.8958000193
 H   -1.8660108012   -0.7627369984   -0.8820941510
 H   -1.8465748328   -3.9908590730   -0.0110908278
 H    2.3453277325   -3.6371054443   -0.0326961886