20

 C    0.0353901598    1.5387334618    0.3142847694
 C    0.0318813912    0.0414517394    0.0748059777
 C    1.0607851998   -0.5436140105   -0.8643469052
 C    1.1813470717   -0.7794887033    0.6201415320
 C   -1.3324556077   -0.6074841297    0.0640862362
 N   -2.2322956277   -0.3112371763    1.2193970824
 C   -3.4022698232   -0.0252991238    0.3503242472
 C   -2.4415663893   -0.0338114489   -0.8499616324
 O   -2.5081259748    0.2955104697   -1.9950455739
 H    1.0580329954    1.9257798998    0.3485152624
 H   -0.4933373976    2.0672652878   -0.4872696503
 H   -0.4569720353    1.7767368317    1.2615310290
 H    0.7719708400   -1.3770727202   -1.4959691526
 H    1.7553788000    0.1438109274   -1.3343292479
 H    1.9608218512   -0.2551353388    1.1623841457
 H    0.9742856572   -1.7753142170    0.9987517298
 H   -1.2253904675   -1.6849071089   -0.1430880024
 H   -2.3629149584   -1.0880806489    1.8558073989
 H   -4.1546463406   -0.8235783283    0.2754004144
 H   -3.9138948542    0.9197606071    0.5624653596