19

 C   -0.1082935208    1.4449290753    0.0892328497
 C    0.0881543378   -0.0706908322   -0.0031365252
 C    0.7073723275   -0.4822363550   -1.3293164182
 O    0.8500154358   -1.9105712135   -1.3203800190
 C    1.3991119729   -2.4428296548   -2.4433059794
 O    1.7565330306   -1.7974593686   -3.4048712238
 N    1.4806200924   -3.7945048583   -2.3144298749
 C    2.0259499363   -4.6404476359   -3.3525700434
 H    0.8447739178    1.9770725153   -0.0024189393
 H   -0.7691550814    1.8106550047   -0.7041318688
 H   -0.5539828745    1.7241115291    1.0480730068
 H    0.7318864084   -0.4195068025    0.8127528312
 H   -0.8727432811   -0.5849579369    0.1149361811
 H    0.0791044350   -0.1854221460   -2.1764563092
 H    1.6898461530   -0.0201345614   -1.4759632499
 H    1.1447064956   -4.1959531476   -1.4556007498
 H    2.3223551341   -3.9932207464   -4.1788658656
 H    2.9059261343   -5.1924627894   -3.0022675541
 H    1.2844171064   -5.3613486858   -3.7161277385