21

 C   -0.2374320878    1.4925259947    0.1921768888
 C    0.1043159750    0.0048703121    0.0371018663
 C    0.7566389181   -0.3223843412   -1.2695023842
 O    1.5385173944   -1.5270454797   -1.3653341498
 C    2.1384294214   -0.2771914496   -1.7447086669
 C    1.6749503247    0.1219677101   -3.1881414614
 C    2.3643258800    1.1886699346   -3.9860753066
 C    0.7459213028   -0.9216667246   -3.7457972301
 C    0.2316314948    0.0412263886   -2.7017053322
 H    0.6612535555    2.1134073217    0.1197973455
 H   -0.9380310246    1.8273307338   -0.5791809610
 H   -0.7012088648    1.6818376457    1.1644586504
 H    0.7789917004   -0.3171958885    0.8377460406
 H   -0.8095399803   -0.5964835478    0.1370356432
 H    3.0694335367   -0.0011911325   -1.2607956831
 H    3.3222740766    0.8334377195   -4.3860897726
 H    1.7482919849    1.5041970086   -4.8342206251
 H    2.5700138424    2.0776973504   -3.3774611613
 H    0.3945744925   -0.7192481763   -4.7534967041
 H    0.8759130557   -1.9690169449   -3.5042189025
 H   -0.5740337083    0.7392255950   -2.8905077137