16

 C    0.4294532096    1.4432062285    0.0281258997
 C   -0.1032602163    0.0151217209   -0.0084504402
 C    0.3759056041   -0.8149279922   -1.2164814579
 C    1.6411610097   -1.4932229617   -0.6746899714
 C    1.3716779809   -1.5837056339    0.8121259245
 N    1.9697077330   -2.3397508045    1.6275551099
 O    0.3723019338   -0.7137613787    1.1472722110
 H    1.5183315783    1.4633492254   -0.0856908197
 H   -0.0116104472    2.0331544747   -0.7818044591
 H    0.1772473220    1.9195222745    0.9792485907
 H   -1.1945638200    0.0274205618    0.0688077250
 H   -0.3764419071   -1.5651964290   -1.4766721612
 H    0.5524468639   -0.1953473070   -2.0982667401
 H    1.8444448151   -2.4778133419   -1.0958396774
 H    2.5327085971   -0.8775356432   -0.8370691630
 H    1.6110105531   -2.1977093038    2.5735838394