19

 C    0.0699376662    1.5821349901   -0.1908720701
 C    0.0617036694    0.0710804904   -0.0730221586
 C    0.3545079261   -0.7223458428   -1.3474246865
 C    0.2858669855   -1.9996400052   -0.9790035062
 C   -0.0444457703   -1.9265265127    0.4999044261
 C    0.7797709409   -0.7286136179    1.1022300045
 C   -0.3947282064   -0.4674926516    2.0583271676
 O   -0.4521940552    0.8095002903    2.6533231508
 C   -1.0684904619   -0.7482497814    0.6901121280
 H    1.0472817326    1.9291476544   -0.5468761481
 H   -0.6754171382    1.9083215746   -0.9263772105
 H   -0.1423960366    2.0669599332    0.7601272687
 H    0.5675272898   -0.2882052327   -2.3151370971
 H    0.4248558025   -2.9022902042   -1.5570313144
 H   -0.1632330706   -2.8396545215    1.0843092497
 H    1.8477756423   -0.7264982680    1.3368689935
 H   -0.5532716827   -1.2500321503    2.8139223941
 H   -1.2963172697    0.8883742639    3.1081847184
 H   -2.1353676537   -0.7714223085    0.4464103201