14

 N   -0.1324775681    1.3266541940   -0.2077702241
 C   -0.0184072416    0.0555704693   -0.0855459290
 N    1.2003084481   -0.6275267709   -0.1612712927
 C    1.5414497000   -1.9531421112    0.1662662795
 O    2.5947635328   -2.1774545330    0.7119357193
 N    0.7362055878   -2.9994721632   -0.3013053275
 C   -0.5383113342   -3.0229721703   -0.2637291125
 C   -1.4837650028   -2.0005407721    0.1732273061
 C   -1.2565985571   -0.6787639078    0.2078543992
 H    0.7646441997    1.7735892695   -0.4074175217
 H    2.0110671955   -0.0290305994   -0.0552949226
 H   -1.0023078947   -3.9399839413   -0.6382767051
 H   -2.4915587716   -2.3527522955    0.3746077808
 H   -2.0734063039   -0.0028020683    0.4352319804