18

 C    0.0246369684    1.6162418941   -0.0244039826
 C    0.0193099353    0.0873276456    0.0004368743
 C    0.7504577046   -0.5604440916   -1.2166879958
 C    2.0343914536   -1.1344637138   -0.6001367928
 O    1.6543816735   -1.5301734571    0.7069457774
 C    0.8314184449   -0.4968387424    1.2087276745
 C   -1.3970018408   -0.4527003809    0.0748804976
 O   -2.3991569597    0.2135109734    0.0913987639
 H    1.0450343240    1.9958129981   -0.1370022115
 H   -0.5827344875    1.9944565232   -0.8502830091
 H   -0.3937572568    2.0255943620    0.8997946894
 H    0.1534918912   -1.3735430674   -1.6435197754
 H    0.9364692460    0.1687244360   -2.0084498019
 H    2.4252371415   -2.0123349265   -1.1199015825
 H    2.8266631127   -0.3686287953   -0.5631700759
 H    1.4332290535    0.3107498736    1.6539530833
 H    0.2015837923   -0.9244512161    1.9957553650
 H   -1.4449031367   -1.5666446650    0.1231930222