15

 C   -0.2520133999    1.7906572755    0.0007767919
 C    0.0201076428    0.3039877217    0.0085295838
 C    0.7803612997   -0.3036673194   -1.2082482070
 C    1.8661754371   -0.5859795715   -0.1947029374
 N    3.0023754506   -1.1072138035   -0.2424488010
 O    1.1598245659   -0.0579883016    0.8713481359
 C   -1.1821511312   -0.5320233161    0.4188796472
 O   -2.3200736860   -0.1476936541    0.3746607582
 H    0.6237097976    2.3417561939   -0.3505951721
 H   -1.1016653034    2.0046251735   -0.6524763126
 H   -0.5061843722    2.1364135479    1.0062640990
 H    0.3393094098   -1.1944427649   -1.6610026074
 H    1.0387124305    0.4118264409   -1.9899404931
 H    3.4468736779   -1.1284644313    0.6767702129
 H   -0.9129068993   -1.5576715010    0.7561665817