17

 C   -0.0388320804    1.4903711409    0.0432264644
 C    0.0571392379   -0.0040864140    0.0012598132
 C    0.9003241263   -0.9027240145   -0.8915703796
 N    0.0284947993   -2.0805932994   -0.4985804819
 C    0.4065588017   -2.2569614511    0.9533426551
 C   -0.2324498839   -0.9040216329    1.2519493185
 C   -0.6535638168   -0.3541151856    2.4935441989
 N   -0.9878906129    0.0847434513    3.5121341343
 C   -1.0156229304   -1.0438418165   -0.0423605186
 H    0.8919146424    1.9326229056    0.4139249667
 H   -0.2298745051    1.8914953338   -0.9575663494
 H   -0.8473307260    1.8210441754    0.7015931591
 H    0.7486503390   -0.6783181776   -1.9509801076
 H    1.9685793248   -1.0333492567   -0.6881972486
 H   -0.1608348743   -3.0833572894    1.3864468201
 H    1.4763296447   -2.3968240774    1.1377544236
 H   -2.0762691363   -1.0577404419   -0.2502365783