16

 C    0.0279044235    1.5386268411   -0.0514875493
 C    0.0536521009    0.0092897500   -0.0197283422
 C    0.6491991920   -0.5382175691    1.2903651540
 C    0.7310922158   -2.0281338328    1.3033344195
 N    0.0593940788   -2.7670132759    2.1475700163
 O    0.4206939315   -4.0791076543    1.8005302604
 C    1.2711791300   -3.9658633791    0.7818764835
 N    1.5138740311   -2.7494605717    0.4166106562
 H    1.0376913673    1.9538651140    0.0392785214
 H   -0.3999071711    1.9052534589   -0.9892989750
 H   -0.5725945999    1.9443683878    0.7701377216
 H   -0.9624962007   -0.3845082392   -0.1409236828
 H    0.6396283415   -0.3759405164   -0.8612216606
 H    1.6613462561   -0.1367141290    1.4230323516
 H    0.0524987960   -0.2158211878    2.1487995481
 H    1.6693462672   -4.8815524064    0.3691991475