19

 C    0.2286171486    1.4133289859    0.1524710144
 O   -0.2411897005    0.1400101153   -0.2317418714
 C    0.5522321813   -0.4782670680   -1.2064790431
 C    1.8099346363   -1.1891146969   -0.6033331197
 C    0.9569733963   -2.4740820110   -0.5413012921
 O    0.9939989717   -3.4731837026    0.1142483225
 C   -0.0519228741   -1.8727622660   -1.5513417382
 O   -1.4191788073   -2.0308985626   -1.4101977494
 C   -1.8692394103   -3.3312315599   -1.7554550664
 H    1.2253778312    1.3690779852    0.6164475422
 H    0.2796192543    2.0994534876   -0.7070319875
 H   -0.4810736894    1.8091265989    0.8820702510
 H    0.7305217401    0.1897885062   -2.0587608552
 H    2.6542427334   -1.2748347954   -1.2940850814
 H    2.1650718444   -0.8114693392    0.3570563868
 H    0.2976521094   -2.1583846863   -2.5628055223
 H   -2.9528801142   -3.3359210253   -1.6214072757
 H   -1.6377477691   -3.5671054409   -2.8062664533
 H   -1.4185203820   -4.0965842850   -1.1131465412