14

 C    0.0474865495    1.3742628167    0.0094051155
 O   -0.0399514445   -0.0624988906    0.0036123340
 C   -1.2820800385   -0.5495867629    0.0107816481
 O   -2.3022283587    0.0820905246    0.0212301211
 N   -1.2453810809   -1.9557303215    0.0040832238
 C   -0.1709048152   -2.8245040284   -0.0077591282
 N   -0.5811323846   -4.0565056048   -0.0110881784
 N   -1.9764418948   -4.0341063611   -0.0004453206
 C   -2.3454262410   -2.7892897257    0.0087144563
 H    1.1129591504    1.5988095914    0.0016082079
 H   -0.4415118572    1.7867287971   -0.8754534169
 H   -0.4267261620    1.7786218441    0.9059838821
 H    0.8512691361   -2.4855058659   -0.0137529811
 H   -3.3529138287   -2.4072990429    0.0181706763