21

 C    0.3202215718    1.4448147054   -0.2291761075
 C   -0.0728048356   -0.0062661605    0.0988286285
 C    0.5316513855   -0.5139657914    1.3623897527
 C    0.0204583065   -0.9277836920    2.5502780730
 C    1.1332739404   -1.2946178198    3.3885347774
 C    1.0528155597   -1.8124302309    4.7915578482
 C    2.2489690834   -1.0716922674    2.6377242633
 C    3.7070732858   -1.2349808441    2.8795176252
 O    1.8950088606   -0.5964523657    1.4020781653
 H    1.4059079630    1.5397952135   -0.3177875766
 H   -0.1292661354    1.7649871937   -1.1741481551
 H   -0.0138920268    2.1270182792    0.5585034453
 H   -1.1605396319   -0.0904114294    0.1900409750
 H    0.2223121237   -0.6554312767   -0.7364136539
 H   -1.0266886378   -0.9732092125    2.8105860897
 H    0.4774688548   -2.7443350858    4.8433491303
 H    2.0439548778   -2.0150366471    5.2062870803
 H    0.5579218131   -1.0949899551    5.4567814803
 H    4.1577909697   -1.9375105455    2.1684827820
 H    4.2417100483   -0.2830017550    2.7787057074
 H    3.8841063333   -1.6157286429    3.8876457995