15

 O    0.0108248105    1.4285967218    0.2167284340
 C   -0.1869782272    0.0945477950    0.5754926799
 C   -1.1978708027   -0.5678618087   -0.3408467171
 O   -1.6848737899    0.0581603146   -1.2569054490
 C   -1.6275411455   -2.0054633877   -0.1074098888
 C   -3.0737672804   -2.3058710318   -0.3430514328
 O   -2.1026343694   -2.6852554325   -1.2803050387
 C   -0.9223373255   -2.9283855445    0.8398363955
 O   -0.1389971484   -2.5909027210    1.6889746178
 H   -0.5324797946    1.5727295534   -0.5731230157
 H    0.7478476381   -0.4864559427    0.5346955872
 H   -0.5378432708    0.0009853344    1.6142207332
 H   -3.5460623000   -3.1127571915    0.2166876691
 H   -3.7024446293   -1.4643057332   -0.6261573910
 H   -1.2036307548   -3.9906386454    0.6739631464