17

 C   -0.0167663486    1.5300625972    0.0289411819
 C   -0.0627680007    0.0322671559    0.0432367562
 N    1.1490254593   -0.7160676714   -0.2709376565
 C    0.5358822962   -0.9571378636    1.0437611670
 C    1.3060353894   -0.6961868458    2.2222461603
 N    1.8966217601   -0.4915436208    3.1958251789
 C   -0.7084836332   -1.8191894079    0.9661632674
 C   -1.9313131923   -1.0115453408    1.3129679994
 C   -1.3074251695   -0.8368166822   -0.0470208937
 H    0.9509556052    1.8867710047    0.3882800781
 H   -0.1582427294    1.9048429183   -0.9910711138
 H   -0.8073299884    1.9516608619    0.6566904422
 H    0.9818847910   -1.5028024128   -0.8957229763
 H   -0.7096683194   -2.9020132537    0.9321861402
 H   -2.8663999651   -1.5633525116    1.3381082518
 H   -1.8641207859   -0.2176086001    2.0510217893
 H   -1.8348453088   -1.0752153274   -0.9633776623