17

 C    0.0154259383    1.5833680531   -0.0525252857
 C   -0.0021297945    0.0541943260    0.0031318185
 C    0.6878688482   -0.5825069372   -1.2033967491
 C    0.6795020872   -2.0965677046   -1.1642040440
 O    0.1936366871   -2.7778601128   -0.2964035776
 O    1.2999405114   -2.6063247858   -2.2500991507
 C    1.3485398246   -4.0364700470   -2.3126960798
 H    1.0403006819    1.9708630880   -0.0748029674
 H   -0.4968736412    1.9567848195   -0.9464635979
 H   -0.4835048058    2.0148280442    0.8203711650
 H    0.4849747313   -0.2962464892    0.9193347157
 H   -1.0334958090   -0.3101539727    0.0582784164
 H    0.2155632871   -0.2686417796   -2.1429617204
 H    1.7321958502   -0.2547580335   -1.2829480492
 H    1.8839993818   -4.4437816915   -1.4511437193
 H    0.3400344425   -4.4579043599   -2.3270984761
 H    1.8749778186   -4.2761862370   -3.2367515881