14

 C    0.1433990149    1.4726375738    0.0598608690
 C   -0.0235655942    0.0043999923   -0.0043690573
 C   -1.0843450161   -0.8399390400   -0.1166847454
 N   -0.6522840447   -2.1720943187   -0.1178812434
 C    0.6328581633   -2.0633974878   -0.0173177957
 N    1.5719679910   -3.0545411926   -0.0437088894
 O    1.1005509777   -0.7881690459    0.0591868853
 C   -2.4491516661   -0.4670487029   -0.2124353668
 N   -3.5543895466   -0.1297219429   -0.2876952293
 H    0.7638554324    1.8405996616   -0.7649396446
 H   -0.8361332659    1.9510052566   -0.0029486041
 H    0.6210496973    1.7805606094    0.9968209873
 H    1.1938935063   -3.9722818178    0.1367890439
 H    2.4309765807   -2.8545804150    0.4460770905