19

 C   -0.0585881608    1.2013323178   -0.5424333029
 C    1.1681033145    1.2840136360    0.3135471062
 C    0.5101229253   -0.0681118627    0.0756992388
 C   -0.1929245736   -0.7244669861    1.1370150166
 C   -0.7882938291   -1.2802859557    2.0274045138
 C   -1.4897418021   -1.9486167226    3.1054136688
 C   -1.4199884307   -1.3231782717    4.5273838669
 C   -2.9571118204   -1.3126435794    4.4440063722
 O   -2.9352616636   -1.7735328171    3.0769406014
 H   -0.9926758272    1.5688458361   -0.1353368633
 H    0.0465026034    1.3160192111   -1.6152663906
 H    2.1256818140    1.4582314311   -0.1639926840
 H    1.0705900299    1.7090673706    1.3052049356
 H    1.0310574504   -0.7304083883   -0.6097395146
 H   -1.2408764690   -3.0191738260    3.0979955997
 H   -0.9728907813   -1.9525629880    5.2975635910
 H   -0.9576012754   -0.3363377777    4.5445644071
 H   -3.4635730935   -2.0261298767    5.1068162219
 H   -3.4443029010   -0.3353884906    4.5375187154