22

 C    0.0462503126    1.5469945571    0.1442816931
 C   -0.0171970027    0.0562982441   -0.0136637375
 C   -0.9108295069   -0.8110937600    0.7849951457
 N    0.5433860115   -0.9098439878    1.0245414249
 C    1.0600022163   -1.7527220031   -0.1091109814
 C    0.5686613140   -0.7418019337   -1.1799548095
 C   -0.2314032031   -1.2054943270   -2.4267625519
 C    1.0546018788   -1.0249418598   -3.2774908411
 C    1.6369806146   -0.1482113595   -2.1361409710
 H    1.0482212495    1.9313517812   -0.0735180686
 H   -0.6598447665    2.0443511461   -0.5317163942
 H   -0.2090091256    1.8339708517    1.1684832708
 H   -1.4466716898   -0.3522954314    1.6110402893
 H   -1.4271212720   -1.6516457929    0.3241546264
 H    2.1484692636   -1.8337674852   -0.0491230631
 H    0.6268874678   -2.7599415079   -0.1371011747
 H   -0.6839230093   -2.2002364244   -2.3905719618
 H   -1.0074920872   -0.4816667167   -2.6968063855
 H    1.6031373358   -1.9638308185   -3.3927528170
 H    0.9490210063   -0.5640155851   -4.2619309755
 H    1.4654631073    0.9170672955   -2.3213409866
 H    2.6871922049   -0.2862052328   -1.8635897906