11

 O   -0.1204735041    1.3552803250    0.0112088628
 C    0.0711763206    0.0176402193    0.0026453821
 C    1.1648054240   -0.7721963680   -0.0079684766
 N    0.6843352957   -2.0986378734   -0.0127727003
 C   -0.6950913942   -2.1432577754   -0.0051881746
 O   -1.4329804699   -3.1081689707   -0.0064857787
 N   -1.0516522007   -0.7893987088    0.0044363545
 H    0.7366256358    1.7935133821    0.0091586549
 H    2.2122572436   -0.5313030160   -0.0125576304
 H    1.2414218896   -2.9332697888   -0.0204908696
 H   -2.0046682905   -0.4716404254    0.0114982659