16

 C    0.4673260795    1.4797450628   -0.0962551761
 C    0.1083038544    0.0202813887    0.0732601205
 O    0.8603645735   -0.8619154918   -0.8049167928
 C    1.2644165202   -1.7073142064    0.2919896238
 C    0.5805661974   -0.7665941524    1.3241052947
 N    1.9151856990   -0.4653210191    1.8422712900
 C    2.5955484205   -1.2426163478    0.8910346972
 N    3.7976292520   -1.4800487402    0.5905344414
 H    1.5235220094    1.6538118985    0.1268255788
 H    0.2849693902    1.7906303357   -1.1292234544
 H   -0.1454313542    2.1062080939    0.5612798343
 H   -0.9671934938   -0.1354630200   -0.0927565160
 H    1.0682323921   -2.7669047857    0.1307269120
 H   -0.1580238603   -1.0550712735    2.0714514432
 H    2.2282776465    0.4081498565    2.2446337325
 H    4.4493079836   -0.9324842792    1.1562676611