13

 C   -0.0199065899    1.4679394988    0.0105015986
 C   -0.0027029619    0.0143647340    0.0027522784
 C    0.0258897868   -1.1903437426   -0.0037563135
 C    0.0207022533   -2.6070798006   -0.0111395931
 N    1.1491026985   -3.2986341524   -0.0219612778
 O    0.7690222882   -4.6298723501   -0.0265061383
 C   -0.5704900798   -4.7108654403   -0.0183905417
 C   -1.1186923411   -3.4732741050   -0.0083647894
 H    0.9981072558    1.8713368175    0.0029776233
 H   -0.5439098183    1.8613626489   -0.8674584455
 H   -0.5271481730    1.8521157065    0.9022943161
 H   -0.9808699017   -5.7086203526   -0.0210046092
 H   -2.1581932169   -3.1949147223   -0.0002445479