19

 O    0.0321247039    1.4188264854   -0.0901038283
 C    0.0764339381    0.0075153244   -0.0018185877
 C    0.7983794585   -0.4593926289    1.2746528121
 O   -0.0212788743   -0.2881072352    2.4331185252
 C   -1.3446872493   -0.7377713078    2.2438147805
 C   -1.4360160068   -2.2057732972    1.7741249091
 C   -1.4312526688   -2.0791304768    0.2272696011
 C   -1.3570504573   -0.5537758517    0.0138436643
 O   -1.9709734283   -0.0073709448    1.1993697568
 H   -0.5824228863    1.7026478607    0.5994378925
 H    0.6266848893   -0.3452147783   -0.8812940773
 H    1.1120110568   -1.5096996584    1.1763448244
 H    1.6899970758    0.1501808313    1.4360080404
 H   -1.8698526535   -0.5200523481    3.1746198661
 H   -0.6130724680   -2.8036195651    2.1707816660
 H   -2.3702497223   -2.6429174181    2.1324554913
 H   -0.5916736006   -2.6013272376   -0.2396446815
 H   -2.3504246233   -2.4775639409   -0.2071838103
 H   -1.9175354340   -0.1882702831   -0.8483221649