17

 C   -0.0712167888    1.5659875583   -0.1421708483
 C    0.1087282904    0.0665907241   -0.0067339181
 O    0.9646099109   -0.4138189523   -1.0426762147
 C    1.3294880259   -1.6984792335   -0.6195528083
 O    1.4619464490   -1.6589432956    0.7895577932
 C    0.8085499949   -0.4735149387    1.2659655496
 C    1.8430369872    0.4479113639    1.9020088174
 H    0.8887188322    2.0853350287   -0.0978856730
 H   -0.5440582875    1.7999985251   -1.0996399423
 H   -0.7141319151    1.9470725333    0.6572345532
 H   -0.8723741225   -0.4307814435   -0.0948008607
 H    0.5573015747   -2.4389648574   -0.8988915839
 H    2.2864674744   -1.9666999206   -1.0798264213
 H    0.0614288993   -0.7680144702    2.0139198613
 H    2.5647093486    0.7948105985    1.1568682837
 H    1.3694540744    1.3178068603    2.3685505989
 H    2.3892128420   -0.0993344505    2.6750069132