19

 C   -0.0010553322    1.0319656753    0.8445839713
 N   -0.1462536021   -0.1627213431    0.0331100003
 C   -1.3478723849   -0.7527099450   -0.2062733069
 O   -2.4039046315   -0.3529395709    0.2553982409
 C   -1.3087385491   -1.9654798588   -1.1568694673
 N   -2.4911947104   -2.8010201754   -1.0747861109
 C   -2.5703124991   -3.5992656167    0.1435812889
 C   -3.6816924960   -4.6305409125    0.0360472514
 O   -4.2278226465   -5.1406291667    0.9784614582
 H    0.6371808372    0.8466712786    1.7153394191
 H    0.4258925757    1.8580559606    0.2654008240
 H   -0.9973862152    1.3131640049    1.1868627835
 H    0.6777329280   -0.5674006809   -0.3808268044
 H   -1.2163765860   -1.5744911889   -2.1794583341
 H   -0.4159370527   -2.5751069217   -0.9717126121
 H   -3.2938951537   -2.1763690911   -1.0986375138
 H   -1.6347573078   -4.1708664599    0.2438811137
 H   -2.7011227877   -3.0268645652    1.0734043006
 H   -3.9417746061   -4.8939729225   -1.0145663123