23

 C    0.4433776110    1.3941251410    0.2810713979
 C   -0.0503394032   -0.0242947421   -0.0419606111
 C   -1.5848043394   -0.0935317132   -0.0441016950
 C    0.5604781660   -0.5823402082   -1.3324915855
 C    0.1235084855    0.1260446038   -2.6229724776
 C    0.9504457497   -0.2517778505   -3.8324871708
 O    0.6403736759   -1.0989775080   -4.6319452835
 C    1.9589732610   -1.1519830826   -1.2216596384
 C    0.7754291520   -2.0747403568   -1.3951802453
 H    1.5368462453    1.4434370545    0.2829750085
 H    0.0741821378    2.1286415050   -0.4431867431
 H    0.0889837853    1.7101185365    1.2675858364
 H    0.3059909951   -0.6814279728    0.7635098739
 H   -2.0170642528    0.5869859572   -0.7858032836
 H   -1.9370431420   -1.1048170807   -0.2709256600
 H   -1.9863508930    0.1934123511    0.9330405540
 H   -0.9197539584   -0.1204681891   -2.8439172661
 H    0.2049969240    1.2122394646   -2.4907794585
 H    1.9045142788    0.3115901163   -3.9468569150
 H    2.6521389868   -1.0488114401   -2.0489339904
 H    2.4385953719   -1.1135675109   -0.2489906184
 H    0.4610677843   -2.6687085563   -0.5433541412
 H    0.6545199984   -2.5678933488   -2.3537027470