18

 C    0.0711556472    1.4952256767   -0.0484271406
 C   -0.0717223834   -0.0079115564    0.0436655439
 C   -0.4405208836   -0.7359822625   -1.2984291251
 O   -1.4166270230   -1.7835744386   -0.9600728856
 C   -0.9113908547   -2.0160124594    0.2986984399
 N    0.0163186714   -2.8569824243    0.5086471391
 C    0.9721662154   -2.1710695450    1.4087373535
 C    0.5700911546   -0.6896476144    1.3239090566
 C   -0.8967911045   -0.7014906041    1.0732273831
 H    0.9488161488    1.7757582422   -0.6422545332
 H   -0.8088166258    1.9449029313   -0.5228723693
 H    0.1842331436    1.9472612331    0.9411029080
 H   -0.9382133142   -0.0395734309   -1.9785440780
 H    0.4121358538   -1.2109931875   -1.7932759381
 H    0.9356904093   -2.5215321712    2.4499100530
 H    1.9747127651   -2.3903850036    1.0252416661
 H    1.0205536069    0.0166975493    2.0147963261
 H   -1.7222743466   -0.3189923246    1.6608197705