24

 C    0.2027763450    1.5130598195    0.0088798266
 C    0.0687623552   -0.0090600344   -0.0879174227
 C   -1.3808646378   -0.4896376523    0.0369764749
 C   -1.5083818058   -2.0111453664   -0.0589488084
 C   -2.9043831245   -2.5731474920    0.0510094253
 C   -3.0683410196   -4.0750294030    0.0609826592
 C   -3.2450625807   -4.6323213778    1.4855942949
 N   -3.8698167811   -1.7412297529    0.1458766924
 O   -5.1175863453   -2.3888295951    0.2496489422
 H    1.2461799434    1.8305473286   -0.0838226095
 H   -0.3690130218    2.0107795853   -0.7822052560
 H   -0.1743642179    1.8824818612    0.9689762526
 H    0.4865217740   -0.3527828371   -1.0439447167
 H    0.6794347771   -0.4802436964    0.6943146036
 H   -1.8056841293   -0.1503621642    0.9889744833
 H   -1.9959561489   -0.0251003692   -0.7420992920
 H   -1.0788988096   -2.3634736276   -1.0093646132
 H   -0.8916444091   -2.4883299421    0.7183314471
 H   -3.9441883939   -4.3384635569   -0.5389510640
 H   -2.1913792954   -4.5327161892   -0.4092561111
 H   -3.3453374401   -5.7217367463    1.4627512106
 H   -2.3857187339   -4.3883255361    2.1188302065
 H   -4.1411135864   -4.2128653714    1.9482436358
 H   -5.7246880636   -1.6429749342    0.2893189685