23

 C    0.2110030532    1.5624666142   -0.1211271484
 C    0.1184798993    0.0403547364    0.0211260363
 C    0.6034808433   -0.5041442543    1.3817363172
 C   -0.2500743702   -0.0165455560    2.5626463791
 C    0.6634384984   -2.0062013980    1.3408193054
 C   -0.4885610650   -3.0373397830    1.3418703177
 C    0.4917627553   -4.0645578742    2.0101091601
 C    1.5805707196   -2.9865166443    1.9542772671
 O    1.7219740475   -2.6083698847    0.5765583776
 H    1.2345953821    1.9133007749    0.0531377284
 H   -0.0792269885    1.8770244870   -1.1283992134
 H   -0.4435353753    2.0828122609    0.5848918239
 H   -0.9183864894   -0.2824925940   -0.1446122121
 H    0.7182081581   -0.4332318803   -0.7643009667
 H    1.6364696439   -0.1613371816    1.5313483622
 H    0.0973265203   -0.4515971365    3.5051636575
 H   -0.2035076466    1.0709433487    2.6622681220
 H   -1.3022623442   -0.2929501673    2.4320378976
 H   -1.3204755445   -2.7689661343    1.9970139673
 H   -0.8721612152   -3.2960670888    0.3523221422
 H    0.1932656110   -4.3264343399    3.0281607259
 H    0.7132162194   -4.9749429544    1.4481365974
 H    2.4481179373   -2.8497985105    2.5911482456