18

 C   -0.2873335850    1.5482897132    0.0519302184
 C    0.0100714356    0.0531135318    0.0397561971
 C    1.1972034940   -0.4236696361   -0.9064324822
 N    1.8453585041   -0.8852300197    0.3240474377
 N    2.8803567386   -1.5223453200    0.8603642777
 C    2.5251150763   -1.5505101500    2.1621061691
 C    1.2647269276   -0.9407276720    2.4327058556
 N    0.6569282973   -0.7527268640    3.6893439875
 C    0.8666199434   -0.5179582574    1.1728535556
 H    0.6264322258    2.1283395148    0.2136093377
 H   -0.7366905671    1.8656359573   -0.8951283354
 H   -0.9879383964    1.7971704681    0.8550661198
 H   -0.9064409701   -0.5162142510   -0.1481724568
 H    0.9522842905   -1.2238013826   -1.6104841990
 H    1.7340422217    0.3789451274   -1.4206503692
 H    3.1903666578   -2.0051726843    2.8833950384
 H    1.0329386533   -1.3874189435    4.3827468134
 H   -0.3472789274   -0.8791398817    3.6561168347