16

 N   -0.0703401846    1.2792938822    0.5501737270
 C   -0.0162094028    0.0960017092    0.0730470077
 N   -1.1806041205   -0.5880869934   -0.2060016691
 C   -1.2405545578   -1.7177504503   -1.0812068989
 C   -0.6558278510   -1.6666997740   -2.4659343584
 C    0.0537875744   -2.4357407437   -1.3525434718
 C    1.3010191822   -1.8774084214   -0.7609037990
 O    2.3715951318   -2.4448703671   -0.7782913024
 N    1.1600081148   -0.6269161850   -0.1760348506
 H    0.8552969244    1.6497437274    0.7498342480
 H   -1.9826679241    0.0250034207   -0.1934391992
 H   -2.1226402807   -2.3275929193   -0.9187915859
 H   -1.1117666545   -2.2588761909   -3.2510492524
 H   -0.2115019956   -0.7325048002   -2.7907873648
 H    0.0610982263   -3.5161082822   -1.4148799830
 H    2.0199390778   -0.2308303621    0.1756842226