18

 C    0.4904287030    1.4253407792   -0.3958053239
 C   -0.0877071907    0.1235485408    0.1613750652
 O   -0.0697746576   -0.9114532603   -0.8404797439
 C    1.1255350895   -1.6652987916   -0.7332911244
 C    1.6144256775   -1.4933408386    0.7037776698
 O    2.5386873092   -2.0514141797    1.2316415131
 C    0.7027230172   -0.4603747603    1.3218930541
 C    1.0601404300    0.2322896764    2.5811343870
 N    0.0902574903   -0.8672824663    2.6112184052
 H    1.5541439888    1.3181525042   -0.6325598723
 H   -0.0393454382    1.7038960227   -1.3106236959
 H    0.3870265018    2.2404536070    0.3272419225
 H   -1.1416073688    0.2706590616    0.4245432375
 H    0.9149591220   -2.7161654920   -0.9551366986
 H    1.9033365475   -1.3195718514   -1.4324666357
 H    2.0178990334    0.0006469150    3.0388009993
 H    0.7084416765    1.2519331616    2.7177741360
 H   -0.8559699914   -0.4912437883    2.6525202351