19

 C   -0.0339813684    1.5168765310   -0.0902421454
 C    0.0688145888    0.0004442546   -0.0097530577
 O    0.6959265228   -0.4566920455   -1.1981366592
 C    0.7144260992   -1.8774051700   -1.2607167581
 C    1.4686195345   -2.4475341292   -0.0686630794
 O    0.9091845193   -1.9625096646    1.1543175746
 C    0.8299157863   -0.5555068151    1.2203700047
 C    2.1834390844    0.1107704864    1.4481069683
 O    3.2452236045   -0.4533117043    1.4199841306
 H    0.9460294748    1.9714958327   -0.2563605645
 H   -0.6767257105    1.7940755760   -0.9295199978
 H   -0.4651181726    1.9315803503    0.8261142352
 H   -0.9441192632   -0.4335659130    0.0495207183
 H   -0.3180691518   -2.2627971135   -1.2767279962
 H    1.2049854169   -2.1474435707   -2.2004986275
 H    1.3724254000   -3.5366087840   -0.0315837503
 H    2.5297492553   -2.1842561262   -0.1263496035
 H    0.2323959186   -0.3261686730    2.1155836495
 H    2.1158522810    1.1971683781    1.6845692485