19

 C   -0.5220596750    1.2502728409    0.1071550214
 N    0.0534016249   -0.0859878270    0.0708922472
 C    1.3711751368   -0.2437833877   -0.5283291031
 C    1.1798217693   -0.4302885630    0.9416843683
 C    1.7953947237    0.5187039865    1.9353998863
 C    1.2575485106    0.4987212453    3.3880212703
 O    2.5669304961    0.2157932583    3.9198313503
 C    3.1212041050    0.0689214357    2.5979890574
 H    0.2106243347    2.0685583041    0.1872292259
 H   -1.0928101479    1.4061286532   -0.8138370691
 H   -1.2165858944    1.3255868594    0.9503188634
 H    1.5028649986   -1.0968168196   -1.1892297160
 H    1.8979288448    0.6579539640   -0.8428503608
 H    1.1163755395   -1.4539321093    1.3141180739
 H    1.8642631432    1.5296201855    1.5313153389
 H    0.8494663339    1.4396589227    3.7752172278
 H    0.5451021297   -0.3114257648    3.5971691121
 H    3.4059409798   -0.9708916740    2.3846644700
 H    3.9928355566    0.7145148498    2.4398865656