16

 O    0.0246891749    0.0513213684   -0.3825448149
 C    0.0078313798    1.2148606883   -0.0941933282
 C   -1.2287500116    2.0594361304    0.2288564715
 C   -0.6893368187    3.4330749801    0.6544511591
 C    0.6512108113    3.5614624359   -0.1000965199
 C    1.2634159591    2.1428928446   -0.0226957449
 C    1.9580347170    1.9017828833    1.2350405503
 C    2.4997303675    1.7105736310    2.2915067014
 H   -1.8216446655    2.1259553507   -0.6924776800
 H   -1.8530766912    1.5544668971    0.9699645353
 H   -1.3756083955    4.2518854633    0.4274452572
 H   -0.5029482856    3.4465431980    1.7331283394
 H    0.4692127283    3.8115577872   -1.1517013418
 H    1.3087230489    4.3247691984    0.3192470973
 H    1.9236637400    1.9077571281   -0.8629967545
 H    2.9942984215    1.5320884153    3.2140825827