19

 C   -0.2546130866    1.5692484628   -0.0926531490
 C    0.0689354497    0.0659696188    0.0200300759
 C    0.7864637129   -0.4726158607   -1.1792984175
 C    2.0505549248   -0.9147097621   -1.3038148012
 C    2.3029491935   -1.3631604664   -2.7201144174
 O    1.0816104498   -1.1098084418   -3.4146017357
 C    0.1073336938   -0.6033592775   -2.5193919530
 C    3.0840130472   -0.9954849783   -0.2766169700
 O    4.2030764170   -1.4153165515   -0.4889415843
 H    0.6613164944    2.1581468737   -0.1972559575
 H   -0.8918669063    1.7817985312   -0.9558040288
 H   -0.7797592266    1.9112115411    0.8034892346
 H    0.6549288420   -0.1117818650    0.9258504373
 H   -0.8703794554   -0.4899676873    0.1433502887
 H    3.1248718890   -0.8083397107   -3.1926827496
 H    2.5599278468   -2.4308719216   -2.7735086878
 H   -0.7582481048   -1.2858114793   -2.4565835414
 H   -0.2768758030    0.3607838096   -2.8882528346
 H    2.7923219218   -0.6447469550    0.7361884912