21

 C   -0.0169519852    1.5243317646    0.1264288362
 C    1.3037022716    0.8097924403   -0.0257022058
 C   -0.0006934016    0.0220111073   -0.0171335428
 C   -0.0291990614   -0.6611469428   -1.4153248738
 C    1.4828926814   -0.9775098379   -1.5667436544
 C    1.9081250572    0.5088875641   -1.4280534478
 C    1.0499851162    1.2041446736   -2.4887393380
 C    0.6060794617    0.4508906174   -3.7187670018
 C   -0.2553377515    0.4158044217   -2.4801637568
 H   -0.2379988312    1.9011503091    1.1208757629
 H   -0.4000513179    2.1500140942   -0.6687024465
 H    1.9792485921    0.7850009516    0.8225248866
 H   -0.2850028536   -0.5824739112    0.8374028136
 H   -0.7074777289   -1.5149815354   -1.4666567727
 H    1.8532290989   -1.5816560980   -0.7350154418
 H    1.7715517139   -1.4656217039   -2.5002209473
 H    2.9789926507    0.7114367020   -1.4908767108
 H    1.0567964268    2.2879318662   -2.5212420292
 H    0.2251242761    1.0729322985   -4.5225416609
 H    1.1336030187   -0.4264384663   -4.0736933323
 H   -1.2180107340    0.9140770350   -2.5062919265