15

 O    0.0707850777    1.4023376072    0.2728671815
 C    0.0152246954    0.0702292301    0.0015737221
 C   -1.0346805645   -0.9889132900   -0.0773325148
 C   -0.4178235612   -1.6392907620   -1.3221848061
 C    0.9022815155   -0.9466004304   -0.9304859265
 O    1.8775720685   -0.6700188816   -1.8472386717
 C    1.2898595389   -1.5292204186    0.4303634880
 O    2.3720263298   -1.8765586137    0.8291238943
 C    0.0219172401   -1.0542273264    1.0545722842
 H   -0.0798316656    1.8866805146   -0.5478739663
 H   -2.0790881349   -0.9257293385    0.1968729334
 H   -0.3935978247   -2.7331995115   -1.3788332008
 H   -0.8388786161   -1.2220781414   -2.2407594063
 H    2.7270578560   -0.8177164920   -1.4055932983
 H   -0.2438979749   -0.9611253957    2.0976101672