19

 C    0.2954603955    1.5647925867    0.0491800737
 O    1.2373575305    0.5102221945   -0.1558351446
 C   -0.1453372338    0.1664117570   -0.0306794544
 C   -0.5347919151   -0.6254637562    1.1999818921
 C   -2.0182555437   -0.5611278562    1.5296568538
 C   -2.5463859524   -1.7720869501    1.7216576984
 C   -1.5507698101   -2.8570007812    1.4836289479
 C   -1.0349432098   -2.9336789656    0.0591040076
 C   -0.2742113103   -2.1333822890    1.0870774569
 H    0.3497173220    2.0557521466    1.0206274167
 H    0.1460042868    2.2325150456   -0.7982652571
 H   -0.6020244696   -0.1677344085   -0.9633224688
 H    0.0543184310   -0.2132144886    2.0321297526
 H   -2.5575411278    0.3781308484    1.5808440866
 H   -3.5792011220   -1.9697630808    1.9861950766
 H   -1.5518537215   -3.7513607704    2.0964332224
 H   -0.5776337171   -3.8637601530   -0.2620680270
 H   -1.6071854324   -2.4231330614   -0.7083278956
 H    0.6956914097   -2.5066432278    1.3910237223