13

 N    0.0945958104    1.3820865385    0.1347371709
 C   -0.0092339704    0.0201252506    0.0454534007
 N   -1.1603239871   -0.6139826240    0.0194133688
 O   -0.7559090768   -1.9842163454    0.0040248261
 C    0.5667514025   -1.9634815530    0.0095913926
 N    1.2863294290   -3.1339218656   -0.0055957592
 C    0.8091671644   -4.4368318452   -0.0482153159
 O   -0.3457637133   -4.7607664763   -0.0819715948
 N    1.1110010777   -0.7800063763    0.0331418244
 H    0.9500049410    1.7587992370   -0.2432273377
 H   -0.7357708228    1.8907610690   -0.1289199571
 H    2.2859902968   -2.9932210728    0.0171584785
 H    1.6554200486   -5.1494584463   -0.0474022773