19

 C   -0.6012263645    1.3809930307    0.1305651443
 C   -0.4271570842   -0.1229521518    0.1674865183
 N   -0.0880894686   -0.6733568504    1.2564685486
 N   -0.5579630649   -0.8053581367   -1.0938914471
 C    0.1200508480   -1.9998519957   -1.3696313204
 N    0.7593483663   -2.6692291388   -0.4973493265
 C   -1.3265832236   -0.2694719965   -2.1655140132
 C   -2.6745325143    0.3343380089   -1.8152009462
 N   -0.8875198518   -0.4102443431   -3.3518178169
 H   -0.1899006211    1.8171831762   -0.7847517386
 H   -1.6483322309    1.6835747237    0.2120912609
 H   -0.0737121465    1.7849099819    0.9942664826
 H    0.0667853671   -1.6745163480    1.1369750486
 H    0.0098937282   -2.2683449319   -2.4200030471
 H    1.1622748744   -3.4988958300   -0.9275204171
 H   -3.0307256857    0.0179471582   -0.8333635273
 H   -2.6388142592    1.4264942086   -1.8362781585
 H   -3.4021760457    0.0149805589   -2.5660851959
 H   -1.5756326033   -0.0812325943   -4.0284913787