20

 C   -0.0448431370    1.6627057085   -0.2125895560
 C   -0.0277544570    0.1237309910   -0.1072513114
 C   -1.4294045169   -0.4846075270    0.1385557928
 C   -2.1288372628   -0.0349893238    1.4414690710
 C   -3.5032504876   -0.7137450920    1.6043351840
 C   -1.2845010897   -0.3026257863    2.6118645336
 N   -0.6152055173   -0.5201081580    3.5292213831
 C    0.5520949355   -0.4686779431   -1.3117840025
 C    1.0061598961   -0.9492893558   -2.3157623474
 H    0.9549598334    2.0381147967   -0.4423538349
 H   -0.7199255683    1.9903761419   -1.0095815714
 H   -0.3649748170    2.1191542161    0.7282548232
 H    0.6089366690   -0.1505739413    0.7448185408
 H   -2.0857078596   -0.2236048705   -0.6992450481
 H   -1.3424425939   -1.5758857808    0.1451474772
 H   -2.2842160914    1.0498594169    1.4069397981
 H   -3.3955398765   -1.8006339595    1.6568181369
 H   -4.0044491738   -0.3749466576    2.5141327591
 H   -4.1373810534   -0.4707119451    0.7472275666
 H    1.4228646083   -1.3773489302   -3.1936634749