18

 C    0.0137164087    1.4790594741   -0.2713126095
 C    0.1358100308   -0.0034271193   -0.0334335549
 O    1.4607286599   -0.5617644460    0.0193113223
 C    0.6620016506   -0.6265168087    1.1998582708
 C    1.1442704272    0.1543017687    2.4005158661
 C    0.2164278033   -2.0513941646    1.5715171611
 O   -0.8520798955   -2.0523193148    2.5021586716
 C   -0.1115519843   -2.8704253073    0.3873034218
 N   -0.4306126107   -3.5169303048   -0.5154282585
 H    0.7380057028    2.0517858024    0.3098626635
 H    0.1837419846    1.6965903547   -1.3305294368
 H   -0.9944758468    1.8240760082   -0.0179055916
 H   -0.5505945635   -0.6071441850   -0.6300669611
 H    1.3818232722    1.1864057405    2.1434726637
 H    0.3849585318    0.1453065545    3.1865469646
 H    2.0516390388   -0.3099761001    2.8025273193
 H    1.0498319107   -2.5408308344    2.0896718795
 H   -1.6307304704   -1.6893544779    2.0634602882