19

 O   -0.1758015877    1.4377838502    0.5186188134
 C   -0.0724993490    0.1086008106    0.0697415365
 C    0.4344906505   -0.9468471446    1.0935247834
 C   -0.9240970321   -1.6944130203    1.0201593753
 C   -1.8769041353   -1.4169571318    2.1858849222
 O   -2.3712171830   -0.0877707014    1.9672162361
 C   -2.6223372449   -0.0054703732    0.5654582053
 C   -1.4163278868   -0.6957624392   -0.0800509423
 O   -1.6650327765   -1.2770506697   -1.3358744701
 H   -0.6456668030    1.4141985287    1.3630667739
 H    0.4950012462    0.1369726388   -0.8645350285
 H    1.2899929778   -1.5308303875    0.7474684975
 H    0.6787219170   -0.5218747958    2.0723610815
 H   -0.8864152791   -2.7430027618    0.7254156292
 H   -2.7141290499   -2.1314054384    2.1863442500
 H   -1.4002197078   -1.4339085059    3.1696492216
 H   -3.5394210567   -0.5470685812    0.2869316364
 H   -2.7243054919    1.0507992443    0.3048550666
 H   -1.7516349577   -0.5677086516   -1.9826942681