17

 C   -0.0414639113   -1.1897106374   -0.0082285824
 C   -0.0321055486    0.0067917234   -0.1129026402
 C   -0.0139958186    1.4583077196   -0.2243645983
 C    1.3750222490    2.0542551844   -0.0146384000
 O    2.2327891022    1.7167742550   -1.0934448900
 C    3.1316380223    2.7939143828   -1.2245276170
 C    2.6241919775    3.9753720790   -2.0214310957
 C    2.5024338056    3.9477683343   -0.5143625943
 O    1.2758174964    3.4725657950   -0.0071866637
 H   -0.0508759385   -2.2480860510    0.0747691005
 H   -0.3676116265    1.7800369145   -1.2100207884
 H   -0.6795826840    1.9060943471    0.5226847170
 H    1.8156415725    1.7052484661    0.9344872343
 H    4.1823845541    2.5308954467   -1.1778469839
 H    3.3616907825    4.6448248040   -2.4531178299
 H    1.7169693524    3.8333644434   -2.5968637825
 H    3.0273765628    4.6478986032    0.1256298846