16

 C    0.0588688676    1.5086240524   -0.1777215329
 C   -0.0467002292    0.0211651772    0.0927931901
 O    1.1906802329   -0.7253835889    0.0504591927
 C    0.5193286784   -0.6343688567    1.2973376020
 C    1.2127890395    0.1249328355    2.4186538330
 C    2.1706823098   -0.7199718250    3.1328196312
 N    2.9169588142   -1.3961939838    3.6984569026
 C   -1.1715435297   -0.6262476862   -0.5466142229
 C   -2.1193613321   -1.1331903333   -1.0838012159
 H    0.9506125077    1.9385591002    0.2806663089
 H    0.1157620211    1.6797334866   -1.2561489826
 H   -0.8268525664    2.0282385840    0.1996019717
 H    0.0458650589   -1.5615897428    1.6205565787
 H    1.7400063275    0.9981045405    2.0275075250
 H    0.4635922361    0.4823566800    3.1354465217
 H   -2.9517351063   -1.5925721095   -1.5578999832