19

 C   -0.5008431523    1.5152922963    0.1512797735
 C   -0.0397283883    0.0748038185   -0.0331110354
 O   -1.1137377781   -0.8459179928    0.0511498494
 C    0.8542028694   -0.2136313362   -1.2842877246
 C    2.0450862610   -0.5149130476   -0.3549893920
 C    3.1663371212   -1.5208172903   -0.4895852367
 C    3.4895067867   -0.0627712516   -0.4531848168
 C    1.1756378859   -0.3376533188    0.8490619018
 O    1.3109586179   -0.5037971034    2.0314387212
 H    0.3290346590    2.2199235998    0.0349631406
 H   -1.2721886601    1.7560144299   -0.5867772446
 H   -0.9203432181    1.6543656854    1.1536915045
 H   -1.3924768596   -0.8776616750    0.9742054326
 H    0.4917087028   -1.0782594688   -1.8431761780
 H    0.9820177465    0.6354218871   -1.9594054633
 H    3.3836469759   -2.1204919990    0.3880474042
 H    3.2415434035   -2.0443386303   -1.4366909246
 H    3.7840557523    0.4249282870   -1.3765988352
 H    3.9363926744    0.3468979496    0.4465405635