18

 C    0.3597876324    1.4656892762   -0.3205010268
 C    0.0066168973    0.0122370377   -0.0369867468
 O   -1.3674525037   -0.1396240026    0.2530045512
 C    0.6213900680   -0.9940895763   -1.0598661874
 C    1.7672526940   -1.2773015869   -0.0556748861
 C    0.8805069813   -0.6655330173    1.0749754755
 C    1.4924827343    0.1404468281    2.1087453345
 C    2.0155235010    0.8243737805    2.9492879038
 H    1.4304337919    1.5919011449   -0.5045781275
 H   -0.1733270312    1.8147999597   -1.2140043172
 H    0.0836492240    2.0983855827    0.5273722380
 H   -1.8708510316    0.4011737118   -0.3649224742
 H   -0.0418904839   -1.8540571101   -1.1799970422
 H    0.8936428375   -0.6061469416   -2.0446116477
 H    2.0791352832   -2.3135917193    0.0811917137
 H    2.6514581759   -0.6645910826   -0.2436260695
 H    0.2629667618   -1.4513952719    1.5219019778
 H    2.4729132977    1.4194289870    3.7001879408