18

 O    0.5426291422    1.2605752465   -1.1682045711
 C    0.0697599602    1.1013601254   -0.0402950073
 O    0.4679980500    0.5477772033    0.9966983326
 C   -1.3724094704    1.8234710188    0.0840818563
 C   -2.1743753085    1.6483989522    1.4122972181
 C   -1.1956471042    2.6976842963    2.0200575179
 C   -1.2400534630    3.2602583600    0.5902986488
 N   -2.7326666835    3.7247751306    0.5284929774
 H   -2.9162541772    4.5789544825    1.0573515917
 H   -3.0234210658    3.8724680526   -0.4370722551
 C   -3.4246154716    2.4930039379    1.1533240331
 H   -1.9049998487    1.6884929045   -0.8630894020
 H   -2.3233198746    0.6730540926    1.8671343401
 H   -1.5248110611    3.3328123292    2.8504544259
 H   -0.2365392909    2.2147208038    2.2044765956
 H   -0.5939521562    4.0270804709    0.1664217999
 H   -4.1203204188    2.0768263763    0.4233541759
 H   -3.9704228377    2.8242279566    2.0400216623