14

 O   -0.3299864934    1.3375391969   -0.0188462329
 C   -0.1160381381   -0.0002499436    0.0337071516
 C   -0.2232130232   -0.9542881907   -1.1260733830
 C   -1.1380139068   -1.2104447349    0.0491241367
 N   -0.4170841586   -1.7573307799    1.1931820144
 C    0.5437374757   -0.7229276479    1.2158865666
 O    1.5002386492   -0.5323495385    1.9037621300
 C   -2.5928271157   -1.0378554643    0.0154657575
 O   -3.1910939288   -0.6042362411   -0.9434818454
 H   -0.2668866927    1.6457116811   -0.9287666958
 H   -0.7313072000   -0.5405515175   -1.9947929954
 H    0.5693211138   -1.6642854476   -1.3455601537
 H   -0.1458713377   -2.7324941440    1.2574387335
 H   -3.1029861038   -1.3067626982    0.9639116360