20

 C    0.6440882029    0.1893560263   -1.2996680194
 C    0.0070689019    0.0728799119    0.0930681614
 C    0.0323935998    1.4116029911    0.8458789391
 C   -1.4216892099   -0.4234235829   -0.0428175798
 C   -1.8760472126   -1.8232008728   -0.0525311100
 C   -1.0568682246   -2.7389221486    0.8550466857
 C   -1.3617340575   -1.7048430978    1.9512110656
 O   -1.1015530112   -1.5833047556    3.1073370143
 N   -2.2416717905   -0.8943576602    1.1268113849
 H    1.6788014475    0.5370225457   -1.2234561966
 H    0.6465219984   -0.7725097241   -1.8223187077
 H    0.0980032228    0.9079792953   -1.9218589354
 H    0.5901665385   -0.6511007277    0.6736668545
 H   -0.4054586358    1.3107958526    1.8426895723
 H    1.0591406523    1.7735744692    0.9563991372
 H   -0.5354196785    2.1754517438    0.3020247257
 H   -2.0358417525    0.2438820826   -0.6475325069
 H   -2.6634613323   -2.1709577730   -0.7109184629
 H   -1.5553393751   -3.6886266744    1.0665591685
 H   -0.0104213736   -2.9314133712    0.6080506792