16

 N   -0.2315978814    1.1007188736   -0.6091638432
 C   -0.0992016368   -0.0017462596   -0.0177084645
 C   -1.2312576312   -0.9510103046    0.3550109861
 C   -0.5384156447   -2.1911901779    0.8803671757
 C    0.4371363318   -2.8934596488   -0.0177382224
 C    0.9408356405   -1.8211253836    0.9202673845
 O    1.1113779600   -0.5299766256    0.3814365089
 C    1.8062071607   -2.1380774190    2.0772004840
 O    1.8415983596   -3.2250757236    2.6014568170
 H    0.6733864511    1.5515036117   -0.7512556987
 H   -1.8553704026   -0.4861033903    1.1239288642
 H   -1.8672496386   -1.1303698643   -0.5155101966
 H   -0.9600928317   -2.7394829341    1.7133741833
 H    0.7097707336   -3.9080392637    0.2495665655
 H    0.4523060773   -2.6549758064   -1.0764179605
 H    2.4173700924   -1.2820879139    2.4337316669