16

 C   -0.2163644189    1.3394960213    0.2409459533
 O   -0.1288801745   -0.0778679479    0.2313708116
 C    0.8838994348   -0.5798087736    1.0571513608
 O    0.6304214493   -0.4014949757    2.4263419027
 C   -0.2605221509   -1.4488498868    2.8559144719
 C    0.1938134718   -2.6971038827    2.0937470688
 C    0.8798923539   -2.1134042996    0.8573333831
 O    1.3475924606   -2.7048991507   -0.0741887004
 H    0.7183634004    1.7940037455   -0.1183945409
 H   -1.0289925782    1.6111924902   -0.4354647622
 H   -0.4319765232    1.7213479639    1.2453754568
 H    1.8524555698   -0.1131473463    0.8344620368
 H   -0.1610322930   -1.5283821299    3.9394499683
 H   -1.2971375354   -1.1859210999    2.6135100644
 H    0.9340853943   -3.2728995914    2.6592342808
 H   -0.6100844308   -3.3773019363    1.8045180442