23

 C   -1.2647486998    1.1289469491    0.2214162346
 O   -0.7998405478   -0.1979938166    0.1843513334
 C    0.5527178040   -0.3662838836    0.6002597672
 C    0.7133117426   -0.2479835649    2.1192858975
 C    0.9822506677   -1.7297647409    0.1066711309
 C    1.4823948772   -1.9024124644   -1.3132065997
 C    2.4286786981   -2.0254451741   -0.1431398281
 O    3.3398588678   -1.0021425914    0.1152119488
 C    4.5116183106   -1.0952842125   -0.6693632843
 H   -0.6174771437    1.8043059519   -0.3614215090
 H   -2.2637578039    1.1326627287   -0.2229211503
 H   -1.3407038200    1.5290209364    1.2434706651
 H    1.1788959762    0.3993221955    0.1176769492
 H    0.3964548031    0.7331438928    2.4846863966
 H    0.1155160079   -1.0117124657    2.6275926446
 H    1.7644911371   -0.3845221856    2.3877751036
 H    0.3924288477   -2.5430768233    0.5211275932
 H    1.2068928487   -2.7922908046   -1.8682923821
 H    1.5596477662   -0.9992526499   -1.9098148507
 H    2.8010555022   -3.0201143164    0.1091408501
 H    5.0506322981   -2.0359968085   -0.4797754688
 H    4.2859651894   -1.0371974942   -1.7436839403
 H    5.1544916705   -0.2571890078   -0.3902081916