14

 C    0.0644395259    1.5097255354    0.0440342482
 C   -0.0231033367   -0.0101263520   -0.0785317442
 N    0.7131403694   -0.5123840431   -1.2305799657
 N    0.1204096616   -1.0547317925   -2.2760947506
 N    1.0780097787   -1.3669914404   -3.1231345227
 C    2.2257469912   -0.9827843490   -2.5242478313
 O    3.4341073667   -1.1320692784   -3.0681286390
 N    2.0440558832   -0.4380592529   -1.3291812592
 H    1.1042949641    1.8276758533    0.1477250980
 H   -0.3650141260    1.9961515863   -0.8359687852
 H   -0.4904428016    1.8381261906    0.9272783556
 H    0.3839870835   -0.4990001429    0.8110454700
 H   -1.0508998267   -0.3473413261   -0.2235740376
 H    3.3075072868   -1.5514456483   -3.9286601362