18

 C   -0.0570686219    1.5182170775    0.0892886832
 C    1.3712042319    2.0181976220   -0.0779176475
 C    2.3079637626    0.8422761753    0.2237710283
 C    1.4371006267   -0.3574229528    0.5704964422
 C    0.0471491749   -0.0220780261   -0.0222946337
 N   -0.0935843521   -0.4880620767   -1.4016505944
 C    0.6860883078   -0.1007666865   -2.3131319775
 O    1.7480702523    0.7446582573   -2.3152215718
 C    2.2181574687    1.4156563263   -1.1593934794
 H   -0.4252101098    1.8068494438    1.0813358226
 H   -0.7539582679    1.9208773449   -0.6511410469
 H    1.6042489940    3.0297783775    0.2388923636
 H    3.2387232810    0.9780096061    0.7652849608
 H    1.8156378464   -1.3047548707    0.1764178683
 H    1.3757116881   -0.4538495743    1.6613346956
 H   -0.7465655518   -0.5073953330    0.5505682520
 H    0.5538728617   -0.4672365332   -3.3305550224
 H    3.0663840975    2.0089176227   -1.4807341129