20

 C    0.1188823821    1.5871011555    0.2978509509
 C   -0.0052303222    0.0896933603    0.0841139043
 C   -1.3853043676   -0.4037526933   -0.3259061105
 C   -1.8551115971    0.1256060481   -1.6963169555
 C   -3.1308683626   -0.5477571672   -2.1434431151
 O   -4.1583184548    0.0181831147   -2.4142026827
 C    1.1909485169   -0.6476131088   -0.4720087171
 C    0.8080363390   -0.8121634662    0.9812966057
 H    1.1276666981    1.8528686984    0.6281991448
 H   -0.0834697129    2.1488258269   -0.6206268540
 H   -0.5847008056    1.9361148244    1.0630639716
 H   -1.3779043057   -1.5010307740   -0.3533116244
 H   -2.1195181459   -0.1192951092    0.4394197981
 H   -2.0195682814    1.2059888874   -1.6863928740
 H   -1.0806891259   -0.0989551933   -2.4442333606
 H   -3.0601847754   -1.6609054235   -2.2025721543
 H    1.0169605410   -1.4854805854   -1.1399468382
 H    2.0838089633   -0.0770066598   -0.7046758943
 H    1.4406909949   -0.3505131964    1.7321763951
 H    0.3756309218   -1.7583914887    1.2898027002