21

 C   -0.4320323069    1.4530257502   -0.0990753677
 C   -0.0353163263   -0.0093877153   -0.0234976872
 O    1.0785706855   -0.3071447591   -0.9050617103
 C    1.9423199277   -0.6301083775    0.1801719347
 C    3.0746856173    0.3524675491    0.3889887098
 O    3.1504801516    1.4429097596   -0.1141148988
 C    0.7611778268   -0.5369366167    1.2154984428
 C    0.9218688001    0.3950527896    2.4138191318
 C    0.2834245829   -1.9193325326    1.6596638416
 H    0.4346372963    2.1015889024    0.0459407648
 H   -0.8485346720    1.6660254147   -1.0884728412
 H   -1.1963757111    1.6906334446    0.6488007978
 H   -0.8955634537   -0.6453886384   -0.2719356820
 H    2.3773797016   -1.6371360646    0.0880747709
 H    3.8570936606   -0.0189205196    1.0935813323
 H    1.2917690822    1.3839718717    2.1339655060
 H   -0.0400431945    0.5280751150    2.9208168428
 H    1.6170436234   -0.0290697516    3.1470372338
 H    0.9925799032   -2.3776546070    2.3578359488
 H   -0.6848628403   -1.8461369939    2.1680105642
 H    0.1657619857   -2.5917479004    0.8042019951