18

 C    0.0802988207    1.5584746482   -0.0203993097
 C    0.0308486898    0.0313645317   -0.0358200248
 N    0.6946367182   -0.4963433913   -1.2221724108
 C    0.7007575582   -1.9463247825   -1.3219881840
 C    1.4468550888   -2.5365841609   -0.1432274875
 O    2.5758104141   -1.8101934324    0.3078963240
 C    1.4130714437   -1.8278373520    1.1521982661
 C    0.6153730892   -0.5563496869    1.2562081373
 O    0.3531215589   -0.0843833650    2.3389129455
 H    1.1145441212    1.9016577420   -0.1106623825
 H   -0.4956119216    1.9718365454   -0.8545481560
 H   -0.3392851412    1.9320085520    0.9150307512
 H   -1.0359312885   -0.2807409411    0.0161127499
 H    0.2911461695   -0.0851571002   -2.0550720905
 H   -0.3074992061   -2.4068689425   -1.3431149331
 H    1.2046512009   -2.2296853209   -2.2529160025
 H    1.5545378374   -3.6210943180   -0.1324686734
 H    1.5339545266   -2.3578145255    2.0949872007