12

 N    0.0126322135    1.3017985569    0.0076457029
 C   -0.0485261181   -0.0349421193    0.0009948336
 N   -1.2107958897   -0.6454118616    0.0040106004
 C   -1.1018295443   -1.9859845241   -0.0036419531
 O   -2.2670588226   -2.6238595613   -0.0006366954
 N   -0.0127084248   -2.7267516692   -0.0132977289
 C    1.1852434580   -2.1112798593   -0.0164107718
 O    2.2861243857   -2.5598912782   -0.0247356670
 O    1.1311913099   -0.6288299572   -0.0084242692
 H    0.9027810067    1.7677231771    0.0053146038
 H   -0.8457977600    1.8246198817    0.0149721287
 H   -2.0563981746   -3.5697225656   -0.0066859840