15

 O   -0.1807022646    1.4299697333   -0.0413957168
 C   -0.0621262696    0.0398200877    0.0205825971
 C   -0.4775335362   -0.6883101771    1.2728494362
 C   -1.3545989100   -0.7105775311    0.0485427245
 C   -2.7695724245   -0.1588990471   -0.1784474047
 N   -3.0121986208   -1.3783379266   -0.9679218641
 C   -1.7405795193   -1.8934254261   -0.8270137806
 O   -1.1928344644   -2.8761478316   -1.2516226810
 H    0.5542554634    1.8146470530    0.4479960327
 H    0.7407788688   -0.3929885545   -0.5759883992
 H    0.0370947941   -1.6062243372    1.5378729028
 H   -0.8166618391   -0.0803984282    2.1054282357
 H   -3.3978119680   -0.0759725536    0.7138136954
 H   -2.8074270165    0.7710907154   -0.7528821009
 H   -3.7686313734   -1.6369181461   -1.5824182969