15

 O    0.0441479860    0.0731238745    0.0191241669
 C    0.0095484023    1.2683195567   -0.0332275120
 C   -1.0837697787    2.2953171650    0.0074282511
 C   -0.1140354811    3.2340256288    0.7382141691
 C    1.0668929050    2.3849899330    0.1129932982
 C    0.9006692697    3.1979827771   -1.2003020105
 C   -0.5007404446    3.5647215162   -0.6788086687
 C   -1.3655694772    4.5880973973   -1.1577802864
 C   -2.0775373478    5.4605095147   -1.5813221232
 H   -2.1495585399    2.1858349634    0.1484080828
 H   -0.2493542484    3.7455962422    1.6782581616
 H    2.0386156755    2.1862934451    0.5544318510
 H    1.5411150389    4.0825813093   -1.2219168514
 H    0.9777009208    2.6516813854   -2.1458899220
 H   -2.7088860907    6.2292695513   -1.9528288363