20

 C   -0.1194911685    1.5473011032   -0.0035804659
 C    0.0426212629    0.0355364244    0.0341666853
 N    0.8834973273   -0.4825410816   -1.0756778115
 C    2.2613695790   -0.5857418924   -0.5146884258
 C    2.2582247812   -0.1185628720    0.9322471908
 C    0.8068829969   -0.5649304487    1.2385924764
 O    0.2409716550   -0.2343583563    2.4742093722
 C    0.8444372846   -2.0537283698    0.8055188827
 C    1.3883305217   -1.7957899649   -0.5924698409
 H    0.8427328151    2.0655892631   -0.0323444481
 H   -0.6782497636    1.8412605530   -0.8964937731
 H   -0.6674289782    1.8870477629    0.8800931792
 H   -0.9471815063   -0.4305576964   -0.0381075094
 H    3.0826863334   -0.3991233456   -1.1959833295
 H    2.9956632355   -0.6513204336    1.5437088138
 H    2.4124818183    0.9553262420    1.0583577390
 H    0.7700622742   -0.6333838977    3.1722466507
 H    1.5212376414   -2.6616681546    1.4167954373
 H   -0.1492569735   -2.5112565056    0.8155246644
 H    1.5147736938   -2.5781553293   -1.3314326679