18

 C   -0.0474923923    1.4102525346   -0.3387256671
 C    1.4178655909    1.5911343984    0.1056080903
 C    1.2420416214    0.1909576605    0.7172023785
 O   -0.1124453005    0.1018268013    0.2688523268
 C    2.1972933537   -0.9886079830    0.5474597802
 C    3.0979451840   -0.5182226912    1.7325060309
 C    2.9677688383   -1.9036190767    2.3535289178
 N    1.5699071912   -1.7327980717    1.7640571967
 C    1.6201750732   -0.2212158289    2.1384062943
 H   -0.7705025324    2.1029505354    0.1071482479
 H   -0.2161961513    1.3659034443   -1.4208303673
 H    2.1501837674    1.6592292696   -0.7010176627
 H    1.5973859617    2.3942378280    0.8228038462
 H    2.4947888688   -1.5401044277   -0.3462781510
 H    3.9411401030    0.1801905975    1.7014979227
 H    3.5321971696   -2.7281574799    1.9055526602
 H    2.9735774742   -1.9853627420    3.4455041591
 H    1.2435274492    0.1236919817    3.1030795365