25

 C    0.0403653661    0.6679819379    1.2541839563
 C   -0.1887645426   -0.0302086287   -0.0753975383
 O   -1.3743232364   -0.7946354165    0.0134425560
 C   -1.6904864692   -1.4823968715   -1.1749065830
 C   -3.0106660262   -2.2360239001   -0.9855328525
 O   -3.3897693654   -2.8402274457   -2.2190483739
 C   -3.0086704570   -3.2279059848    0.1970816700
 C   -4.4340646893   -3.7237171343    0.4731873842
 C   -2.0502868088   -4.4097044400   -0.0158828029
 H    0.9519859164    1.2717063004    1.2157293180
 H   -0.8014657732    1.3242662088    1.4923473450
 H    0.1423111146   -0.0643302381    2.0601621863
 H   -0.2747638993    0.7073776501   -0.8911407547
 H    0.6658053809   -0.6829433428   -0.3231251723
 H   -1.8045228336   -0.7839051944   -2.0191343008
 H   -0.8805339721   -2.1844198375   -1.4454113128
 H   -3.7877478930   -1.4871632956   -0.7925547906
 H   -2.7274894267   -3.5042763018   -2.4384646630
 H   -2.6560195464   -2.6576569435    1.0641303722
 H   -4.8430532490   -4.2285105637   -0.4077704025
 H   -4.4524464855   -4.4280776454    1.3110382747
 H   -5.1018237861   -2.8914811200    0.7197802354
 H   -2.3520227310   -5.0242769768   -0.8732591686
 H   -1.0165826244   -4.0860533694   -0.1727171384
 H   -2.0557340928   -5.0668729664    0.8590590360