17

 C   -0.1852002811    1.5254138265   -0.0529798093
 C   -0.0233866858    0.0444964795    0.0114369039
 C    0.0755978748   -1.0568483019   -0.9781955192
 O    1.2284788595   -1.6668087878   -0.4213341513
 C    0.9033716816   -0.9587730720    0.8108366561
 C   -0.3536521505   -1.6927925708    1.3313789491
 C   -1.0576340969   -1.1049858457    0.1026948222
 C   -2.4361899917   -1.0712776530   -0.2228117455
 C   -3.6067682013   -1.0309701001   -0.5056774768
 H    0.7344338238    2.0138724902   -0.3931855884
 H   -0.9869840577    1.7859525125   -0.7513696499
 H   -0.4502816310    1.9429340001    0.9246330801
 H   -0.1135478947   -1.1223675448   -2.0416435372
 H    1.7696244108   -0.7363659757    1.4297017640
 H   -0.2780036084   -2.7799746235    1.4251508527
 H   -0.7370256237   -1.2484749533    2.2529907839
 H   -4.6388699178   -1.0038067901   -0.7526094744