25

 C    0.0097639498    1.5241436942    0.0322332976
 C    0.0284583039    0.0106935499    0.0313074946
 C    0.9169939685   -0.7965265132   -0.9733450238
 C    0.7388922227   -1.9269312750    0.0730435923
 C    0.7851565027   -0.7994105027    1.1365448707
 C   -0.7700186641   -2.2213384080   -0.0216633156
 C   -1.3398215535   -0.7534911780   -0.0551948688
 C   -2.2727232326   -0.4609018581    1.1313493307
 C   -2.1179552986   -0.4574428130   -1.3477378014
 H    1.0259920097    1.9271831235    0.0960296560
 H   -0.4454590201    1.9223538971   -0.8815294791
 H   -0.5552927680    1.9198958466    0.8836168719
 H    0.5554383910   -0.9637664669   -1.9911492455
 H    1.9399403866   -0.4116704837   -1.0068697577
 H    1.4119508673   -2.7842200226    0.1139255227
 H    1.7959068779   -0.4148206959    1.2981999491
 H    0.2997340529   -0.9693523853    2.1009638409
 H   -1.0268798818   -2.7852887073   -0.9244017249
 H   -1.1371648890   -2.7877784788    0.8404867530
 H   -1.7943170337   -0.6361868335    2.0984939684
 H   -2.6247167240    0.5766663701    1.1153514402
 H   -3.1582501407   -1.1045582524    1.0841182136
 H   -3.0023013561   -1.1011612226   -1.4128515985
 H   -2.4694964881    0.5801016948   -1.3727050345
 H   -1.5229142824   -0.6300043991   -2.2483556920