15

 N    0.0484861896    1.3684856363    0.1539078837
 C   -0.0308348985   -0.0221882998    0.0570218909
 C   -1.1663336230   -0.8119676560    0.0373636488
 N   -0.6696849418   -2.1179494186    0.0086095703
 C   -1.0170511798   -3.4608432889   -0.0285477574
 C    0.1474370203   -4.1678508611   -0.0460860518
 N    1.2074636285   -3.2666704439   -0.0223415016
 C    0.6933437583   -1.9996052618    0.0114160162
 N    1.1363886135   -0.7595385311    0.0368855035
 H    0.9494171763    1.6978455554   -0.1676763790
 H   -0.6975910124    1.8503809518   -0.3289008127
 H   -2.2166876493   -0.5857145248    0.0610274172
 H   -2.0364485203   -3.8038284810   -0.0362923249
 H    0.3104790710   -5.2307709240   -0.0725808246
 H    2.1851684475   -3.4911312325   -0.0248379686