17

 C    0.3231152259   -0.9324063313    1.3391053755
 C    0.0199653614    0.0503321320    0.2273504888
 O    0.1969042337    1.2439546963    0.3510558988
 N   -0.4677121390   -0.4930493665   -0.9700790595
 C   -0.7245510472   -1.9263763483   -1.1598384575
 C   -1.9533011769   -2.3922569343   -0.5199471020
 C   -2.9552585166   -2.7851758578    0.0139727766
 C   -0.7622615932    0.3712950682   -2.0251103101
 N   -1.2047652988   -0.0631094618   -3.1343178747
 H    0.5918849364   -0.3567770076    2.2237910292
 H   -0.5336857186   -1.5756195755    1.5562573821
 H    1.1654249529   -1.5785132417    1.0683449970
 H   -0.7946245558   -2.0751181716   -2.2407902526
 H    0.1313724708   -2.5029643068   -0.7975014918
 H   -3.8491161941   -3.1298785665    0.4727174793
 H   -0.5580381353    1.4070697970   -1.7569352140
 H   -1.3516373157    0.7088950362   -3.7809006250