24

 C    0.3715281271    0.6527017771   -0.7592461014
 C   -0.4313697868    0.2917040709    0.4961162153
 N   -1.6024506383   -0.5585621970    0.3677764700
 C   -1.9556923457   -0.9948329611   -0.7589589771
 O   -3.0467128274   -1.7821347627   -0.8539584674
 C   -3.4560183173   -2.2851239234   -2.1536595137
 C   -2.3626366883   -3.1808952315   -2.7519266708
 C   -4.7017269972   -3.1126872686   -1.8281933669
 C   -3.8174790157   -1.1237859757   -3.0898385826
 H    1.2136343736    1.2944699369   -0.4828415138
 H    0.7809621816   -0.2353920469   -1.2531042631
 H   -0.2346007172    1.1992635223   -1.4900810164
 H    0.2375658465   -0.1920172077    1.2209778503
 H   -0.7600814727    1.2172894705    0.9881848136
 H   -1.4473663359   -0.7911651832   -1.7060879819
 H   -2.0845760737   -3.9643602709   -2.0414316901
 H   -2.7278262165   -3.6578962092   -3.6665725710
 H   -1.4627889003   -2.6160805982   -3.0118208774
 H   -5.4656611999   -2.4828262039   -1.3648058340
 H   -5.1169791124   -3.5557066410   -2.7379641232
 H   -4.4523271249   -3.9156876211   -1.1295944575
 H   -2.9444043707   -0.5209976321   -3.3556912911
 H   -4.2458341261   -1.5110916853   -4.0193428684
 H   -4.5554987617   -0.4709506279   -2.6154231915