20

 C   -0.0502929269    1.5878152076    0.0887334608
 N   -0.0035403351    0.1285219907   -0.0216317971
 C    0.6898432898   -0.4191809745   -1.1974620090
 C   -0.0582764052   -0.0258735952   -2.5068008958
 N   -1.4592134216   -0.4067524259   -2.5732743793
 C    2.1931340789   -0.0281679748   -1.2823824818
 O    2.8872095259   -0.3403049628   -0.0915910482
 C    0.6449955382   -1.8900368400   -1.0634297824
 N    0.6687668274   -3.0424391974   -0.9734073623
 H    0.9285446646    2.0895898468    0.0609790656
 H   -0.6756736735    2.0141657760   -0.7006046980
 H   -0.5231092089    1.8340165864    1.0430491686
 H    0.4541145245   -0.2436827084    0.8036883522
 H    0.0249086435    1.0608761417   -2.6196084323
 H    0.4722760637   -0.4682259608   -3.3556636201
 H   -1.5366637520   -1.4168050182   -2.6539271388
 H   -1.9095761346   -0.1633469815   -1.6946756222
 H    2.6483175033   -0.5023831319   -2.1631504959
 H    2.2710150371    1.0549545174   -1.4110283935
 H    2.9864540308   -1.2983149752   -0.0462713706