17

 C   -0.0393878093    1.5460858123    0.0167048111
 C    0.0262092641    0.0094890342   -0.0038039445
 C    0.7296651449   -0.5115292377   -1.2781231119
 C    1.0330807255   -1.9929015343   -1.1129991144
 O    1.7868288871   -2.2303688543    0.0890634741
 C    1.5078527977   -1.4285181053    1.1327454121
 N    0.7301691093   -0.4295638448    1.2146392234
 C   -1.3497313019   -0.5295685896    0.0409326744
 N   -2.4219971243   -0.9611761396    0.0464492097
 H    0.9780392074    1.9459179118    0.0036574218
 H   -0.5864433755    1.9274436777   -0.8499485353
 H   -0.5317732496    1.8849510971    0.9300495293
 H    0.1152987236   -0.3478832418   -2.1676657324
 H    1.6625216367    0.0484828591   -1.4024953119
 H    0.1076782783   -2.5779177207   -1.0586750352
 H    1.6450778597   -2.3817165577   -1.9290042743
 H    2.0827090963   -1.7390285564    2.0033379341