21

 C   -0.0837559082    1.5251772640   -0.0475657167
 C    0.0490366729   -0.0006609458   -0.0186196645
 C    0.7018582750   -0.5395086338    1.2573481609
 C   -0.0969285160   -0.2765383286    2.5652155283
 C    0.1991960247   -1.4853986877    3.4108024371
 C    0.7657852527   -2.4747378299    2.7028556028
 C    0.9384241964   -2.0721714320    1.2459111414
 C    1.1292829204   -3.7564265003    3.1808428154
 C    1.4595524842   -4.8588519934    3.5397903858
 H    0.8961246769    2.0082576563    0.0391645399
 H   -0.5403571212    1.8654847352   -0.9820718850
 H   -0.7057958721    1.8900067602    0.7765390631
 H   -0.9426489870   -0.4599517918   -0.1323187247
 H    0.6367179608   -0.3292898049   -0.8855520060
 H    1.6815395758   -0.0575470718    1.3728003838
 H    0.1851710910    0.6630296939    3.0533242388
 H   -1.1780034365   -0.2034370045    2.3664542333
 H   -0.0564295869   -1.5540360746    4.4618109946
 H    0.1961670721   -2.5920982641    0.6236004405
 H    1.9216576457   -2.3451261404    0.8497935029
 H    1.7429178394   -5.8263095361    3.8724758584