25

 C    0.0356252810    1.6358210087   -0.0070953218
 C   -0.0454142343    0.1064825329    0.0157750826
 C    0.6957492020   -0.5095973341    1.2091493045
 C    0.7297601489   -2.0451950894    1.2360263800
 C    1.5986178277   -2.5670818216    2.3920477853
 C    1.7545517783   -4.0934117830    2.3456263940
 C    0.4424486352   -4.7834200670    2.0791111852
 C   -0.6413155171   -4.1447761209    1.6407645442
 C   -0.6748172118   -2.6711855361    1.3240619696
 H    1.0756017553    1.9762010625   -0.0645566913
 H   -0.4995498319    2.0529087631   -0.8660436545
 H   -0.4020377928    2.0685970023    0.8995669039
 H   -1.0989719544   -0.1972438766    0.0314209551
 H    0.3735752043   -0.2960845492   -0.9164366395
 H    1.7298460357   -0.1374372206    1.2099455347
 H    0.2445875739   -0.1441495632    2.1436130783
 H    1.1873569933   -2.3907268758    0.2962073277
 H    2.5835976286   -2.0862691270    2.3715898212
 H    1.1301426771   -2.2804543617    3.3436969796
 H    2.4831757886   -4.3765779611    1.5707196839
 H    2.1810007470   -4.4575761647    3.2892744433
 H    0.4002349609   -5.8547277727    2.2627092334
 H   -1.5661133414   -4.6969462757    1.4875022390
 H   -1.2669679030   -2.1430227088    2.0889085450
 H   -1.2178776209   -2.5180613603    0.3833909168