17

 C   -0.3217086183   -0.6482459142    1.4877660134
 C   -0.0881228210    0.0324800632    0.5252700877
 C    0.2187392955    0.8706286460   -0.6279412379
 C    1.3166556299    1.8925453262   -0.3398486556
 C    2.7244917592    1.5397427782   -0.5621391999
 O    2.0071901904    2.3520873406   -1.5000691206
 C    0.9600193557    2.9423490393    0.6728206285
 C    1.3477151458    4.3438776472    0.4924330875
 O    0.0062661239    3.9154815973    0.2371736472
 H   -0.5392476919   -1.2553985811    2.3313766742
 H    0.5354294214    0.2543833204   -1.4764208471
 H   -0.6785087457    1.4156020990   -0.9465995059
 H    3.5040507594    2.0550158500   -0.0038116377
 H    2.9784526927    0.5390488934   -0.9078425524
 H    0.7828519250    2.5606233404    1.6783148743
 H    1.4759483801    4.9800860795    1.3668609385
 H    1.9194540178    4.6181499546   -0.3903504242