22

 C   -0.1132413197    1.6115510934    0.0019791463
 C    0.0072059672    0.0832429996    0.0049174375
 C    0.7542556247   -0.4930941676    1.2246586555
 C    0.0793970673   -0.1071523937    2.5490866685
 C    0.8864871850   -2.0400513735    1.1122517048
 C    1.6116284796   -2.5388708748   -0.1674199140
 O    1.7609020404   -3.9391386108   -0.1937153674
 C    1.6114069119   -2.5924522944    2.2619713446
 N    2.2298775532   -3.0513868508    3.1251647531
 H    0.8703148186    2.0857806761    0.0937726047
 H   -0.5608385314    1.9572110935   -0.9345986157
 H   -0.7392245828    1.9793033839    0.8192898559
 H   -0.9951343640   -0.3648886976   -0.0434782652
 H    0.5214696744   -0.2175932015   -0.9137158964
 H    1.7733107191   -0.0811576110    1.2258580542
 H    0.0690448290    0.9765404049    2.6852575572
 H   -0.9590270169   -0.4587407128    2.5752867662
 H    0.6033489136   -0.5417756642    3.4044855962
 H   -0.1168601300   -2.4862583887    1.1191725488
 H    1.0087974529   -2.2870314963   -1.0416888889
 H    2.5765619582   -2.0161803454   -0.2576606309
 H    2.3322271695   -4.1962097983    0.5397098753