21

 C   -0.0746370337    1.5396008692    0.3748915686
 C   -0.0681341718    0.0861316548   -0.1312458625
 C   -1.4188482934   -0.5666954873   -0.1038075010
 C   -2.1177954621   -1.0187293047   -1.1458049735
 C   -3.4584080331   -1.5897033105   -0.7572855966
 C   -3.3616962614   -1.7052284418    0.7949647614
 C   -2.1906753426   -0.7592463408    1.1891419611
 C   -4.6539637974   -1.3332217393    1.4781713629
 O   -5.3013662052   -2.0500588871    2.1963193323
 H    0.9299300398    1.9702617706    0.3261574507
 H   -0.7408198512    2.1618936983   -0.2309554548
 H   -0.4117080362    1.6014567483    1.4144202289
 H    0.3265548759    0.0556999079   -1.1528173675
 H    0.6275342999   -0.4969204747    0.4891082371
 H   -1.7910045649   -0.9631808728   -2.1790909636
 H   -4.2756200647   -0.9186965241   -1.0642417734
 H   -3.6733285029   -2.5600468011   -1.2172478380
 H   -3.1200328692   -2.7332304376    1.0748920543
 H   -1.5817546418   -1.1847080696    1.9949732321
 H   -2.5613970657    0.2059867160    1.5655389452
 H   -4.9878029884   -0.2887972338    1.2587546664