18

 O   -0.1578541100    1.5008592773   -0.1585089754
 C    0.0237538665    0.1023245044   -0.0032247342
 C   -1.3654932918   -0.5257367043    0.0517979815
 C   -1.3551830971   -2.0694519725    0.0528688445
 C   -0.7091538954   -2.6689288642    1.3274790267
 O   -0.7180777933   -4.0783051276    1.3276453477
 C   -2.7106211052   -2.6021052041   -0.0827399948
 C   -3.8200599409   -3.0644416565   -0.1414886475
 H    0.7073404245    1.9203893446   -0.1494892212
 H    0.5895063483   -0.3245773446   -0.8485277752
 H    0.5901423915   -0.1210047516    0.9137366571
 H   -1.8959807516   -0.1582372936    0.9372519417
 H   -1.9272023139   -0.1721637848   -0.8183109972
 H   -0.7653562283   -2.4229671843   -0.8044505806
 H    0.3424061948   -2.3731529010    1.3813003910
 H   -1.2219854616   -2.2538422378    2.2103810360
 H   -1.6352923925   -4.3541552261    1.2080874303
 H   -4.8036050739   -3.4571292933   -0.2227464703