17

 C   -0.0561912857    1.5424586445   -0.2787810100
 N   -0.1165850005    0.0788335692   -0.2747551432
 C   -0.2050779052   -0.5462661096    1.0412149544
 C   -1.3909412675   -0.4974824346    0.1413928186
 C    1.3535258482    2.0193632036   -0.1212618872
 N    1.8478163383    2.3708623440    1.0586006505
 N    3.1251934102    2.6948781671    0.7495956903
 C    3.3402396050    2.5356192772   -0.5719281920
 N    2.2409284630    2.1096557093   -1.1577347657
 H   -0.4438196577    1.8912890576   -1.2407592955
 H   -0.6669912629    1.9873353681    0.5242354454
 H    0.3579991880   -1.4670799499    1.1629292768
 H   -0.2107261834    0.1036970248    1.9141807958
 H   -2.1951616024    0.1838122585    0.4161401486
 H   -1.7105440709   -1.3799249999   -0.4055295540
 H    3.7512950663    3.0157113485    1.4696118918
 H    4.2874821973    2.7422461318   -1.0473121248