18

 O   -1.3299363731    1.7868828948    0.0121096677
 C   -0.5862767513    0.5982442345   -0.2303894129
 C   -1.5160308274   -0.5723967228    0.0503247139
 N   -2.6848000596   -0.5224061036   -0.8051328227
 C   -3.0935219515   -1.5741018703   -1.5516800766
 O   -2.5496466349   -2.6636850816   -1.5682099313
 C   -4.3454070710   -1.3345543617   -2.4245000023
 C   -4.9314252263   -0.0038463478   -2.3858847024
 C   -5.3997115095    1.1029914089   -2.3382491137
 H   -0.8176608134    2.5384538406   -0.2986701170
 H   -0.2388558577    0.5514229866   -1.2728734159
 H    0.2931095878    0.5321888511    0.4282699944
 H   -1.0133873382   -1.5236007730   -0.1365798116
 H   -1.8158104639   -0.5426604065    1.1060625801
 H   -3.1777241614    0.3553728209   -0.8752031216
 H   -4.0584692511   -1.6012999516   -3.4478046730
 H   -5.0798420553   -2.0870854820   -2.1153593255
 H   -5.8230696822    2.0763289636   -2.3029413895