19

 C   -0.2457092950    1.4897914530   -0.2049711970
 C    0.1839594856    0.0430287196    0.0636299647
 C    0.8353564711   -0.5882043567   -1.1494948985
 C    0.9173047931   -2.0798869560   -1.3698526194
 N    0.2209679211   -2.9649482088   -0.4731203104
 C   -0.0353799911   -1.2294380258   -2.2279275128
 O   -1.3905271516   -1.3920652719   -1.9767137288
 C    0.2900079746   -1.0094134861   -3.6147970318
 N    0.5884451455   -0.8262656154   -4.7175147135
 H    0.6057236001    2.1082237073   -0.5084500046
 H   -0.9910280988    1.5259781302   -1.0046480746
 H   -0.6845814544    1.9398414850    0.6903434008
 H    0.8916175469    0.0128469516    0.9025102707
 H   -0.6876311040   -0.5447599076    0.3626676030
 H    1.6971480691   -0.0460657422   -1.5305194240
 H    1.8154615597   -2.4523037673   -1.8563965669
 H    0.3455387249   -3.9328401564   -0.7458732349
 H    0.5342002337   -2.8644692189    0.4858875687
 H   -1.4333907805   -2.1411285435   -1.3529318307