21

 C   -0.0378508458    1.4899329963    0.0810339218
 C    0.0279459223   -0.0199744234   -0.0207076800
 C    0.7330663396   -0.5419637451   -1.2868732527
 C    0.8144146812   -2.0788221517   -1.2537911096
 C   -0.5095782385   -2.7027352190   -0.7712077576
 C   -1.0645023486   -1.9141673449    0.4216518434
 C   -0.0401690296   -1.7115073661    1.5521647436
 O    0.6818680624   -0.5510081269    1.1442280401
 O   -1.2852400301   -0.5592237668    0.0181393059
 H    0.9715542358    1.9023344794    0.1540658366
 H   -0.5278981384    1.9113508128   -0.8005611952
 H   -0.6023613832    1.7717606130    0.9723912990
 H    0.1563845414   -0.1988408845   -2.1536317812
 H    1.7351186474   -0.1075477403   -1.3631286864
 H    1.0834165669   -2.4696786112   -2.2402210203
 H    1.6220690364   -2.3697967880   -0.5735792174
 H   -1.2615232795   -2.6703001258   -1.5679901597
 H   -0.3670499977   -3.7557603620   -0.5017418129
 H   -2.0158157448   -2.3198224725    0.7738064042
 H   -0.5358558439   -1.5226408486    2.5127901865
 H    0.6457288966   -2.5583808445    1.6692488821