16

 O    0.0815314532    1.5969286569   -0.1938461642
 C   -0.0059380003    0.2046672480    0.0197459404
 C    0.1794641804   -0.3263777442    1.4868797649
 C   -1.1079410496   -1.1721654683    1.3093313152
 C   -1.4805710378   -0.2942706233    0.0867270545
 C    0.8083858940   -0.5286416921   -0.9429457980
 C    1.5153790167   -1.1118956196   -1.7323825006
 C    2.3053761460   -1.7763549988   -2.6253332266
 N    2.9795500265   -2.3420701058   -3.3839329667
 H    1.0114369359    1.8443090380   -0.2555779163
 H    1.1124820342   -0.8395492834    1.7253638919
 H    0.0326787453    0.5122753031    2.1718647617
 H   -0.8861254019   -2.2027498364    1.0231125361
 H   -1.8113798508   -1.1848102288    2.1425551144
 H   -2.1098545567    0.5556061631    0.3609582150
 H   -1.8853383353   -0.7764495584   -0.8035653116