16

 C   -0.0616943810    1.5725574647    0.0069288503
 C    0.0586576695    0.0769720545   -0.0113756577
 C    0.6365899509   -0.9336269528   -1.0346781371
 C    1.2072150647   -1.8277345756    0.0756064448
 C    0.6737566719   -0.7722380199    1.0795676839
 O    0.8732581154   -0.5650486783    2.2398925859
 C   -0.8518557115   -0.8053411977   -0.8766680563
 C   -1.6740673579   -1.8649796824   -0.3479342392
 N   -2.3303245874   -2.7212453886    0.0691170658
 H    0.8732651679    2.0298174223    0.3443746330
 H   -0.2991245336    1.9669318626   -0.9857048290
 H   -0.8530761629    1.8869140531    0.6946478551
 H    1.1181542719   -0.7069019328   -1.9767862234
 H    0.8147057839   -2.8447824164    0.1460504461
 H    2.2997254053   -1.8536512016    0.1046722334
 H   -1.3455370173   -0.2329896410   -1.6574361554