17

 C   -0.0334017809    1.5002907771   -0.1473591289
 C    0.0262331456    0.0100068466    0.2038262971
 C   -1.3347413519   -0.6560538181    0.1208365133
 O   -1.9421463070   -0.5964084830   -1.2107195539
 C   -2.2023711792   -2.0007780874   -1.1652106882
 C   -0.9287442898   -2.7809393969   -1.1330177334
 C   -1.4794087273   -2.1796588666    0.1474873375
 H    0.9585165580    1.9587153160   -0.0956543092
 H   -0.4227075368    1.6380632008   -1.1599971953
 H   -0.6900548017    2.0444458924    0.5406012587
 H    0.7255877363   -0.5040771677   -0.4644910072
 H    0.4058876914   -0.1259683139    1.2253683674
 H   -2.0277171387   -0.1889072694    0.8347811455
 H   -3.1586291149   -2.3530176752   -1.5340036105
 H   -1.0387548769   -3.8594444435   -1.1949418796
 H   -0.0413164636   -2.3814518283   -1.6145631051
 H   -1.7294269025   -2.7734606029    1.0159879019