17

 O    0.0214997053   -0.0605756482   -0.0345669907
 C    0.0084194043    1.1501078539    0.0157554486
 C    1.2400643960    1.9555979368    0.0391898580
 C    1.3346235630    3.3071955999    0.0508679347
 C    2.7752261880    3.7608133392    0.0283408940
 C    3.5621717901    2.4695217009    0.3605247084
 C    2.6035045166    1.3062781145    0.0071342105
 C    0.2271523965    4.2766045850    0.0427692537
 O    0.4087291059    5.4743594278    0.0132516997
 H   -0.9507893453    1.7043833087    0.0490806859
 H    3.0177543931    4.1513815366   -0.9692031169
 H    2.9575551352    4.5835759562    0.7248232330
 H    4.5146460721    2.4074669114   -0.1697232745
 H    3.7857242591    2.4446277795    1.4315948321
 H    2.6686656266    0.4542911547    0.6891475762
 H    2.7904916012    0.9029566585   -0.9972686454
 H   -0.7999247978    3.8607882347    0.0677179525