22

 C   -0.1184179151    1.5150507133   -0.1790023302
 O   -0.0762652663    0.1432669335    0.1378663006
 C   -1.3160175112   -0.5425840425   -0.0116603783
 C   -1.6118648701   -0.8346044600   -1.4887231139
 C   -1.2715081249   -1.8363956489    0.7883547699
 C    0.0328179885   -2.4898722655    1.1798761585
 C   -0.8859935054   -1.9428221548    2.2475747354
 C   -0.4940371007   -0.7556401535    3.1011995788
 H    0.8662271167    1.9283368025    0.0541409379
 H   -0.3274419296    1.6985083818   -1.2426734568
 H   -0.8760922625    2.0471729672    0.4173137427
 H   -2.1201352166    0.0996674666    0.3891539532
 H   -2.5819218308   -1.3306900882   -1.5939552066
 H   -1.6448202312    0.0827082431   -2.0833013549
 H   -0.8398427676   -1.4899550539   -1.9030462000
 H   -2.0639157981   -2.5146614369    0.4818029184
 H    0.1361481372   -3.5637389855    1.0667192905
 H    0.9323378925   -1.9217047983    0.9734784695
 H   -1.4525536470   -2.6963385002    2.7910887037
 H    0.0992350380   -0.0398582158    2.5308240428
 H   -1.3781874075   -0.2338870118    3.4868489657
 H    0.0962966717   -1.0812990422    3.9652818029