16

 N    0.0218903427    1.2276389554    0.4862573116
 C    0.0411508095   -0.0164919293   -0.0825734705
 O    1.0299559503   -0.5003096449   -0.5996897035
 C   -1.2380426670   -0.7045140636   -0.0374701014
 C   -2.2665830029   -1.3371215789   -0.0229884801
 C   -3.5065498750   -2.0621841254   -0.0210058159
 O   -4.6157393232   -1.3777945327    0.4983038888
 C   -3.7593858386   -3.0793913819   -1.1273006516
 C   -3.4988871819   -3.5422354003    0.2796117533
 H    0.9030710499    1.7058527976    0.5850103222
 H   -0.7589724546    1.5275384564    1.0443708989
 H   -4.8014540634   -0.6341748306   -0.0864874527
 H   -4.7805538676   -3.1218850469   -1.4886015073
 H   -2.9881953158   -3.2202661287   -1.8750030285
 H   -2.5480265505   -4.0063086686    0.5098726162
 H   -4.3442869319   -3.8897520776    0.8618378906