18

 O   -0.8390343793    0.9517922949    1.0226267823
 C   -0.1243929314    0.0783648637    0.1556097053
 C    0.8728423531   -0.8276625363    0.9141058888
 C    0.0496090545   -2.0134948522    1.4392324389
 N   -0.8114776544   -1.7667870698    2.6029113819
 C   -1.9945449434   -1.7110118884    1.8989696742
 O   -3.1287533897   -1.4918217808    2.2232832191
 C   -1.2569602372   -2.0490606982    0.5745527238
 C   -1.1498039568   -0.9022941202   -0.4401635117
 H   -0.2024326790    1.5022959524    1.4892125821
 H    0.3815548953    0.6576616347   -0.6300980755
 H    1.6287925847   -1.2029839136    0.2136469213
 H    1.4074108998   -0.2894349155    1.7050684063
 H    0.6290053730   -2.9369158077    1.5232549681
 H   -0.5920606774   -1.4356837026    3.5315528966
 H   -1.5459925507   -3.0068736608    0.1408380857
 H   -2.1056110015   -0.4040557471   -0.6182541857
 H   -0.7810684596   -1.2841668125   -1.3979876515