13

 N   -0.0601759860    1.3460119554    0.0106437602
 C   -0.0256109932    0.0730664253    0.0036696647
 N    1.1463910978   -0.7215502612   -0.0076652214
 C    1.1467150667   -2.0766076814   -0.0148942249
 N    0.0825613180   -2.8151542678   -0.0123755597
 C   -1.1070042322   -2.1312368054   -0.0015078896
 C   -1.2226564565   -0.7700352739    0.0064466399
 C   -2.5050248104   -0.1503986639    0.0175336123
 N   -3.5667475207    0.3108316936    0.0264385556
 H    0.8688097788    1.7675492393    0.0072464900
 H    2.0317152678   -0.2337992017   -0.0104383727
 H    2.1281611030   -2.5446800544   -0.0233468475
 H   -2.0014994631   -2.7456490641    0.0006504532