20

 C   -0.1130992058    1.4633756723    0.0154993745
 C    0.0526068773   -0.0370825595    0.0099156440
 C    0.7717538470   -0.6692778334   -1.2040176655
 C    1.0286208340   -2.1299228853   -0.7218836467
 C    0.3809931845   -2.1381876735    0.6945004483
 C    0.7416659509   -0.7271721086    1.2011051280
 C   -1.1028525568   -1.9532248519    0.4723251027
 N   -2.0178815962   -2.8105585058    0.6130588733
 O   -1.2761410873   -0.6567246817    0.0519715419
 H    0.8660651589    1.9515195293    0.0274425465
 H   -0.6525486936    1.7988865784   -0.8753187013
 H   -0.6741293518    1.7865588777    0.8967030171
 H    0.1351861710   -0.6164747540   -2.0901737155
 H    1.7020208491   -0.1378974834   -1.4248508951
 H    0.5845905821   -2.8826371781   -1.3763453752
 H    2.0981366151   -2.3442090707   -0.6433306312
 H    0.6231454597   -2.9979814124    1.3142458286
 H    1.8176135993   -0.5375847156    1.2422941142
 H    0.2820654028   -0.4678075540    2.1582993298
 H   -2.9242413901   -2.4082604198    0.3646084517