25

 C   -1.7498744920    1.5323999568    1.6181596081
 C   -1.7433113894    0.0034248004    1.5326448000
 C   -1.4592236914   -0.5096516996    0.1144002565
 C   -1.4249921519   -2.0430938570   -0.0191097956
 C   -2.8289570129   -2.6504157067   -0.0125896180
 O   -2.7082944688   -4.0674325032    0.0272013153
 C   -0.5929722087   -2.5184419970   -1.2366119616
 C   -1.0607665969   -1.9822519907   -2.5857336163
 O    0.7691737586   -2.1051925670   -1.1007563759
 H   -1.9393039185    1.8759211988    2.6400410461
 H   -0.7886005927    1.9493805375    1.2979932614
 H   -2.5250985772    1.9618529803    0.9735960827
 H   -0.9841236219   -0.3976885513    2.2172197676
 H   -2.7062236043   -0.3814484970    1.8916558879
 H   -2.2051996921   -0.0917403144   -0.5756494955
 H   -0.4864593725   -0.1252074047   -0.2121361698
 H   -0.9138601435   -2.4517428028    0.8670039164
 H   -3.3859209427   -2.2829423918    0.8621750695
 H   -3.3820439772   -2.3239826987   -0.9078919931
 H   -3.5916489875   -4.4460989009    0.0064394818
 H   -0.6483246178   -3.6147281442   -1.2603825286
 H   -1.0201251453   -0.8897714356   -2.6143047313
 H   -0.4064638017   -2.3632801090   -3.3741809860
 H   -2.0829249363   -2.3014604562   -2.8071535527
 H    1.1198239448   -2.5110821962   -0.3013112587