16

 C    0.0953290001    1.2635025322    0.3243546795
 N   -0.0729100106   -0.0185841040   -0.3501999853
 C   -1.2333678824   -0.7435268937   -0.1200487747
 N   -1.2977186967   -2.0507086779    0.0113275019
 C   -2.6415944806   -2.3427013383    0.0963976669
 O   -3.1036346830   -3.6149432203    0.2539779622
 C   -3.3910547512   -1.2108723548    0.0423121602
 O   -4.7210735661   -0.9225312060    0.1067258303
 N   -2.4729507661   -0.1700575452   -0.0864633204
 H    1.0928511800    1.6481375084    0.1007689792
 H   -0.6212292872    1.9953359496   -0.0646096528
 H   -0.0278018817    1.2111840043    1.4168267815
 H    0.7223923346   -0.6337528137   -0.2429246784
 H   -2.3234631262   -4.1774985443    0.3119374991
 H   -5.1696127035   -1.7037987771    0.4468691703
 H   -2.7121986792    0.7894936109   -0.2662148596