17

 C    0.0184072454    1.4542043474    0.0395477612
 C    0.7844539155    0.2601680154   -0.4958544875
 O   -0.1429739522   -0.8166399138   -0.6677694910
 C    0.3754423965   -1.9595565452   -1.1390781445
 C    1.6488364474   -2.3521016877   -1.5115816264
 C    1.4603917364   -3.6965654677   -1.9124856313
 O    2.4397544969   -4.5078041513   -2.3645443172
 N    0.2118088610   -4.1128126266   -1.8077230652
 N   -0.4491169277   -3.0129295796   -1.3230502280
 H   -0.7659025973    1.7558700427   -0.6600091042
 H   -0.4469599040    1.2162131087    0.9999206279
 H    0.6983984835    2.2986926304    0.1834443448
 H    1.2549087709    0.4867729189   -1.4615952586
 H    1.5740846689   -0.0533264234    0.1995142699
 H    2.5605666214   -1.7827006356   -1.5017580055
 H    2.0265528515   -5.3582071538   -2.5615062920
 H   -1.4365760442   -3.0508844289   -1.1453549125