18

 O    0.0885988220    1.3702066348    0.2876522081
 C    0.0586162564    0.0378583137   -0.2114222361
 C   -1.3147799127   -0.5766919539   -0.0972551194
 C   -1.5965102089   -2.0585689068   -0.0923215161
 C   -0.4703986228   -3.0500443335    0.2202647442
 C   -0.0721621598   -2.7073296619    1.6413205165
 C   -0.8414799670   -1.7445835061    2.1570572027
 C   -1.8440047369   -1.2445100549    1.1736970426
 H   -0.1947512910    1.3308850244    1.2071237426
 H    0.3406143932    0.1146219472   -1.2674877169
 H    0.8133736135   -0.5864349970    0.2846464080
 H   -2.0696525470    0.0107867280   -0.6152512737
 H   -2.4269565779   -2.4065719729   -0.6954739937
 H   -0.8266194689   -4.0859483667    0.1448969961
 H    0.3746239616   -2.9690010112   -0.4759113100
 H    0.7580048512   -3.1882192423    2.1466440384
 H   -0.7510105280   -1.3429675403    3.1605560372
 H   -2.8414399970   -0.9794634906    1.5081205697