18

 N    0.7970882219   -0.0071656775   -0.3758552937
 C   -0.3718855941    0.5925431877   -0.0511117423
 O   -0.5121946223    1.7772127756    0.1973796921
 C   -1.5632714159   -0.3556946364    0.0114210002
 O   -1.2382548542   -1.7485072590   -0.2218235839
 C   -1.7204255352   -2.1383835866    1.0916194813
 C   -2.0705828344   -0.6909180021    1.4168461614
 C   -1.8647646180    0.0790275884    2.6831482695
 C   -3.2581696130   -0.1344724581    2.1343169954
 H    1.6365496368    0.5426054195   -0.4466111138
 H    0.8044940230   -0.9960226672   -0.5651319949
 H   -2.3279022335    0.0072586150   -0.6864258837
 H   -2.5664389856   -2.8322885403    1.0157720069
 H   -0.9277134339   -2.5965104806    1.6962220499
 H   -1.5730358995   -0.4732278549    3.5710253904
 H   -1.4297876238    1.0680809215    2.5919907407
 H   -3.7639316495    0.7158064989    1.6885679866
 H   -3.9140007587   -0.8311153439    2.6474557479