12

 N   -0.3540382846   -1.1651062329   -0.2649560963
 C   -0.1374807291   -0.0387591221   -0.1305999087
 C    0.0849585216    1.3965173800    0.0537660566
 C   -0.4898345852    1.9587183611    1.3994327466
 N    0.6851914691    2.4317716264    2.1337276109
 C    1.6820058928    2.2237438743    1.3804770935
 O    1.5058785822    1.6607884799    0.1511863827
 C    3.0403258419    2.5489135616    1.7075315025
 N    4.1342484373    2.8135506242    1.9654392246
 H   -0.2913845360    1.9318209538   -0.8213871599
 H   -1.1805786820    2.7888164849    1.2290250818
 H   -1.0133538279    1.1945313887    1.9787302258