19

 C   -0.1630131212    1.6308422648   -0.1511139972
 C   -0.1201098863    0.1189601138   -0.1514472017
 C   -1.3561592883   -0.5361314257    0.4463425584
 O   -1.4372282305   -0.2983469278    1.8388516139
 C    0.6745643317   -0.6673324291   -1.1283476465
 C    1.7959716468    0.0084729591   -1.9183987744
 N    2.7651730686    0.4750031391   -0.9061488513
 C    2.3129746798    0.1184224267    0.2275336477
 N    1.1090302083   -0.6383395745    0.3022865858
 H    0.7945799671    2.0898935345   -0.4013057252
 H   -0.9045188109    1.9727746770   -0.8817121154
 H   -0.4774219605    1.9853736012    0.8347373449
 H   -2.2621566107   -0.1072374112    0.0043853410
 H   -1.3453117062   -1.6130092877    0.2241348814
 H   -0.6213091378   -0.6541977969    2.2120277527
 H    0.2850348057   -1.6174275783   -1.4827756536
 H    2.2867365067   -0.6975981840   -2.5969796861
 H    1.4641013797    0.8588994635   -2.5252841304
 H    2.8263737281    0.3393775955    1.1591700361