19

 O   -0.2481120277    1.4058401338   -0.1369635208
 C    0.0058507388    0.0303869611   -0.0179332073
 C    0.2706772533   -0.6024481962    1.4087201784
 C   -0.6710099644   -1.7986463749    1.0128593251
 C   -1.9205744592   -2.2808801866    1.7310416725
 C   -2.8661914113   -1.2953513957    2.3650270713
 C   -3.1162785194   -1.7297626341    0.9327144959
 C   -2.5362552793   -0.7800197540   -0.0726449027
 C   -1.2046973777   -0.8607131140   -0.0478324341
 H    0.5939693302    1.8647727577   -0.2136696967
 H    0.7874287719   -0.2973131014   -0.7203227394
 H    1.3064699000   -0.8450354925    1.6599063885
 H   -0.1691458324    0.0335556272    2.1796371905
 H   -0.0795362820   -2.6373748034    0.6292075374
 H   -1.9473868566   -3.2988939083    2.1009763764
 H   -3.5280317029   -1.6909966205    3.1288291561
 H   -2.5440897447   -0.2731273099    2.5360707422
 H   -3.9941820494   -2.3292753747    0.7152513148
 H   -3.1260218173   -0.0226476035   -0.5754839783