23

 C   -0.0840550855    1.4804193157    0.0349265064
 C    0.0303701736   -0.0151533856   -0.0145450073
 C    0.0298756867   -0.8709203510   -1.2822383365
 C   -0.2409420590   -2.0887054261   -0.3552239618
 C   -0.9579863786   -3.3135740865   -0.8577869970
 C    1.0807268232   -2.1990503704    0.4551556932
 C    0.7004798444   -0.8620827622    1.0933656108
 C    1.3074147460   -0.2782302995    2.3355516663
 C   -0.7611638690   -1.0630897866    0.7434480857
 H    0.8209051374    1.9640017631   -0.3532777556
 H   -0.9285747298    1.8270490736   -0.5720012640
 H   -0.2421847202    1.8476068985    1.0536215292
 H   -0.8392232532   -0.6380582363   -1.9078699731
 H    0.9317126307   -0.9023843807   -1.9079725302
 H   -0.3577963737   -3.8315822561   -1.6160680709
 H   -1.1529988220   -4.0244123739   -0.0470082741
 H   -1.9193996547   -3.0552713811   -1.3156580180
 H    1.0361871973   -3.0083104555    1.1927784461
 H    2.0174225141   -2.2745891285   -0.1129446224
 H    2.3427966256    0.0407873821    2.1631585066
 H    0.7505130924    0.5922328360    2.6957298018
 H    1.3209877097   -1.0157296514    3.1464995262
 H   -1.6626618854   -0.9983972778    1.3381753386