19

 C   -0.1665160348    1.6356088180   -0.0770418171
 C    0.0006592460    0.1250383197   -0.0578592662
 C    0.7949836827   -0.4841778235   -1.2415237556
 C    1.8520453346   -0.8265764038   -0.1766133450
 O    1.0258199887   -0.2895633853    0.8846410829
 C   -1.3229022228   -0.6180714973    0.2533034106
 N   -1.0610782753   -2.0475171652    0.4013544761
 C   -2.0021760157   -0.0400805681    1.4344762934
 N   -2.5490315216    0.3630166551    2.3703096757
 H    0.7841376801    2.1120549079   -0.3298766846
 H   -0.9108184026    1.9344502439   -0.8238462469
 H   -0.4885335051    2.0058993442    0.8997043480
 H    0.3218664394   -1.3497105979   -1.7030093319
 H    1.0981470872    0.2348551561   -2.0038498362
 H    2.0548706454   -1.8927223467   -0.0321486456
 H    2.8017500278   -0.2855189932   -0.2556989747
 H   -1.9869541433   -0.4711051967   -0.6079339364
 H   -0.4335358241   -2.1709413677    1.1912431049
 H   -1.9200010767   -2.5450249095    0.6118102986