21

 C   -0.0393842333    1.5712529254    0.0154867097
 C    0.0734840123    0.0647381737    0.0666948629
 O   -1.0882968302   -0.5931867695   -0.3911657284
 C    1.3336331119   -0.7204948870   -0.2140600284
 C    2.5936372354   -0.0477916624    0.3512701902
 C    1.9257391402   -0.0526039842    1.7451621401
 C    2.6047234377   -0.4189401937    3.0296943233
 C    2.0250240949    0.9668146469    2.8456441192
 C    0.6863110467   -0.7228303425    1.1893384345
 H    0.8345182313    2.0666883953    0.4421129778
 H   -0.1474270178    1.9138212646   -1.0216720528
 H   -0.9244814678    1.8974491012    0.5707550693
 H   -1.1667555247   -0.4214637877   -1.3362294021
 H    1.3212377467   -1.5139883072   -0.9518372808
 H    3.4695130955   -0.7014680793    0.3113535000
 H    2.8644980385    0.9247528916   -0.0745468326
 H    2.0927954956   -1.1004332407    3.7020481110
 H    3.6849977928   -0.5273777767    3.0240821645
 H    2.7172148327    1.7930587183    2.7162160125
 H    1.1237757880    1.2217385563    3.3938268245
 H    0.1165297138   -1.5085396423    1.6718402256