19

 C   -0.5493228810    1.7555829766   -0.1173342906
 O   -0.2453478618    0.4090780640   -0.4232236267
 C   -1.2865530608   -0.4898846903   -0.1783947887
 C   -1.0703907896   -1.9221555709   -0.7142441954
 C    0.3479791119   -2.5377682986   -0.6068400159
 C   -0.1332992020   -3.2446064141    0.6950429953
 N   -1.4297269410   -2.4820815460    0.6466321215
 C   -1.3427749686   -1.1787609395    1.2136971184
 N   -1.1968612263   -0.8852730506    2.4319400463
 H    0.3120498741    2.3542123786   -0.4216224974
 H   -1.4386389049    2.1001389415   -0.6662713236
 H   -0.7228786694    1.9106465674    0.9563259405
 H   -2.2554305340   -0.0715058287   -0.4921236285
 H   -1.6854442341   -2.2355331826   -1.5599858575
 H    0.6358578109   -3.1938290444   -1.4298409928
 H    1.1297551440   -1.7913427845   -0.4542571774
 H   -0.3069024897   -4.3179333094    0.5870428678
 H    0.4316959815   -3.0579632834    1.6107518792
 H   -1.1244335491    0.1232048548    2.5628312954