17

 C    0.0054775912    1.5550689995   -0.1128607304
 C    0.0587902053    0.0532320090    0.0599767218
 O    0.9594916161   -0.5960999681   -0.8705846754
 C    1.4360922767   -1.4893791698    0.1545063141
 C    0.7797458640   -0.6183245348    1.2593142475
 C    1.7609414405    0.2461049137    2.0373557520
 O   -0.1452476975   -1.2578130768    2.1131327697
 H    0.9963420623    2.0082903307   -0.0253507812
 H   -0.3919570872    1.7998627380   -1.1029083708
 H   -0.6569218434    2.0016093564    0.6362762127
 H   -0.9513323514   -0.3743324859   -0.0233039089
 H    0.9811129157   -2.4864769653    0.0849028554
 H    2.5289802563   -1.5761656845    0.1491562592
 H    2.4611476592    0.7542491361    1.3689803920
 H    1.2336762051    0.9989629091    2.6310959844
 H    2.3540949077   -0.3764040436    2.7196588063
 H    0.3243634295   -1.5721035735    2.8927781716