16

 O    0.0174395802   -0.0385890264   -0.2413290486
 C   -0.0239706591    1.1231098461    0.0467644129
 O   -1.2067042213    1.6999374692    0.3944204565
 C   -1.3215191991    3.0758349627    0.8265985404
 C   -0.1014636610    3.5952170814    1.5490349561
 C    1.0535640438    3.1267712564    1.1143291859
 C    2.5029751917    2.8983908324    1.4754148558
 N    2.4281929293    1.6209591434    0.6914185366
 C    1.1629266691    2.0706322616    0.0529164191
 H   -1.5683802096    3.6881582987   -0.0518112625
 H   -2.1957433579    3.0825002097    1.4827536561
 H   -0.2297437838    4.2573774776    2.3979999634
 H    3.1813990639    3.6518460651    1.0496700178
 H    2.7442172005    2.7649576165    2.5348712233
 H    3.1948716134    1.4708421128    0.0455482044
 H    1.2813972899    2.4750843428   -0.9655326971