16

 C    0.2316193754    0.9873376397   -0.7446820121
 C    0.0571572397   -0.0043198894    0.3829562025
 O    0.8462989581   -0.1136114166    1.2903328495
 C   -1.2152300390   -0.8592688342    0.3968872050
 C   -1.8640982829   -1.3108606680   -0.9444404231
 N   -0.6151440913   -2.1735764283   -1.1297342697
 C   -0.9795257618   -2.3953041714    0.3414129376
 C   -2.4377122745   -2.5192526016   -0.1618064629
 O   -3.3836553945   -3.2400103983   -0.1222423743
 H    1.1041143868    1.6143248892   -0.5570358936
 H    0.3608369570    0.4382223617   -1.6831792599
 H   -0.6626927911    1.6116431692   -0.8535697625
 H   -1.8967000310   -0.5054134495    1.1760159643
 H   -2.2775790793   -0.7084165618   -1.7506026853
 H   -0.8170419984   -3.0050954087   -1.6920872545
 H   -0.3717696631   -3.0049841421    1.0048483890