19

 N   -0.0855370033    1.0294364933    0.6014492874
 C   -0.0032242092   -0.0790294156   -0.1810915304
 O    0.9325004576   -0.3139110743   -0.9267760191
 C   -1.1833366742   -1.0210878732   -0.0579168914
 C   -1.4053962438   -1.9313240282   -1.2513505540
 C   -0.8046284130   -2.4841421613    0.0088881327
 N   -2.2495819902   -0.5077148759    0.7777722717
 C   -3.4270839915    0.0760176704    0.1304036278
 C   -3.5213918211   -1.2092897660    0.8736415522
 H    0.7252241891    1.6225007849    0.6616013673
 H   -0.7994043321    1.0658710529    1.3112228778
 H   -2.4234751463   -2.2101413742   -1.5007233869
 H   -0.7452457107   -1.7679223962   -2.0941530708
 H    0.2541990566   -2.7127597675    0.0083410398
 H   -1.4217967407   -3.1185794094    0.6359029667
 H   -3.7997495504    0.9973035109    0.5681170979
 H   -3.4787758717    0.0261572734   -0.9545633492
 H   -3.6675442892   -2.1140180058    0.2881766053
 H   -3.9577706559   -1.2438360083    1.8678480449