19

 O    0.2282515116    1.1106202271    0.6359335041
 C    0.0416152703    0.0145922619   -0.2458798736
 C   -1.3730265983   -0.5130337689   -0.2364179373
 C   -2.4884020909   -0.2735076478   -1.2650983848
 C   -2.9906370653   -1.7475849176   -1.0705937377
 C   -1.9209866882   -1.9273885452   -0.0011294222
 O   -1.1736128951   -3.0764997802    0.2437594250
 C   -2.0228579836   -0.8908706013    1.0825616734
 O   -1.1429708020   -1.0695973571    2.1613275486
 H    0.0220673121    0.7693542284    1.5150895033
 H    0.2959837328    0.3764765405   -1.2477949890
 H    0.7405164832   -0.8031192470   -0.0144770158
 H   -3.2049725278    0.5135024007   -1.0093406497
 H   -2.1109540263   -0.0906903374   -2.2735860622
 H   -4.0302798519   -1.8884521730   -0.7559371031
 H   -2.7963671579   -2.3626030594   -1.9524776300
 H   -1.7624707043   -3.7474390317    0.6122751932
 H   -2.9715533651   -0.4518698216    1.3926987026
 H   -0.7414913535   -1.9431074905    2.0477228652