16

 N    0.0731658716   -3.7182532844   -0.4601760191
 C    0.0409577739   -2.5639638832   -0.3322511047
 C    0.0000840527   -1.2081724396   -0.1785343276
 C   -0.0381441263   -0.0083564878   -0.0377661108
 C   -0.0771022835    1.4458515022    0.1281913847
 C   -0.6589437296    1.8729513099    1.5148527857
 C    0.4048021237    2.8486333846    2.0515572259
 C    1.6685280081    2.3543330768    1.3483681295
 O    1.2338707475    2.0033753280    0.0356102438
 H   -0.6627423149    1.8688656321   -0.6967464655
 H   -1.6463662449    2.3245855229    1.4083248867
 H   -0.7569865418    1.0023019370    2.1670221128
 H    0.1830395111    3.8738417949    1.7408285064
 H    0.4822423502    2.8281277255    3.1409615129
 H    2.4492402866    3.1106500285    1.2400421542
 H    2.0956066256    1.4807469326    1.8642458053