18

 C    0.0390726923    1.4929453296   -0.2476667082
 C    0.0206500443    0.0286691140    0.2020731908
 C   -1.3618464423   -0.6108738768    0.0927938971
 O   -1.9101672964   -0.5859536718   -1.2617969685
 C   -2.1866045616   -1.9940166398   -1.1977356401
 C   -0.9167444601   -2.7679303015   -1.0942181326
 C   -1.5210014667   -2.1425137590    0.1478688269
 C   -2.3175977577    0.0413266587    1.0073768791
 N   -3.0513074494    0.5428113374    1.7459512035
 H    1.0522807840    1.8986243974   -0.1837546719
 H   -0.3017605608    1.5803155127   -1.2827654965
 H   -0.6121973503    2.1098451338    0.3787094100
 H    0.7102061323   -0.5628473112   -0.4071497115
 H    0.3520138840   -0.0606971167    1.2435700862
 H   -3.1319181144   -2.3407861159   -1.5949924673
 H   -1.0227387722   -3.8480318582   -1.1261167012
 H   -0.0098946814   -2.3818306499   -1.5482888129
 H   -1.8090268034   -2.7021584625    1.0259047770