20

 C    0.8364361064    0.0900042265    1.0264343628
 O   -0.0474602113    0.1002939218   -0.0822947077
 C   -1.2334946396   -0.6325590899    0.1041429601
 C   -2.2512496301    0.0662376973    0.9810354628
 N   -2.5707037138    1.3793181370    0.4434127799
 C   -3.8436872304    1.7958957565    0.2218263652
 O   -4.8455522073    1.1822323735    0.5274936677
 C   -1.6920702414   -1.3821597609   -1.1075688711
 C   -1.1473190280   -2.1361603399    0.0911957158
 H    1.7316702684    0.6355108427    0.7194374606
 H    0.4082682970    0.5866921487    1.9079958618
 H    1.1184270367   -0.9331420153    1.3083213969
 H   -3.1840950212   -0.4990372065    1.0266963912
 H   -1.8758887482    0.1577148655    2.0093699877
 H   -1.8050229788    1.9165692793    0.0666843548
 H   -3.8705212678    2.7877837046   -0.2715097823
 H   -2.7559613106   -1.4243255909   -1.3122114152
 H   -1.0560987207   -1.3209504603   -1.9827955166
 H   -0.1605901682   -2.5742311296   -0.0091002615
 H   -1.8346193110   -2.7036748801    0.7092951370