16

 C   -0.1928990983    1.4599433186    0.0148791781
 C    0.0902108242   -0.0227834152    0.0571465805
 O    0.3537254992   -0.5989378894    1.0998896867
 C    0.0605934103   -0.7522991022   -1.2410326027
 C    0.8876504484   -2.0340884711   -1.3512267687
 O    1.6697014920   -2.4715992024   -0.3185450108
 C   -0.6225395856   -2.1428567204   -1.3291420833
 C   -1.2999295901   -2.7040785260   -0.1969301801
 N   -1.8631517996   -3.1878738726    0.6896264590
 H    0.5177906004    1.9617334495   -0.6518330661
 H   -1.1942560384    1.6393284206   -0.3929335204
 H   -0.1202879041    1.8810652001    1.0176762320
 H   -0.0520892174   -0.1421501125   -2.1300823215
 H    1.3546374505   -2.2203158622   -2.3131627297
 H    1.3240171821   -2.0754745051    0.5039398405
 H   -1.1158703737   -2.3350394997   -2.2764172135