23

 C    0.0678160983    1.5211670808    0.0995833050
 C   -0.0016412808    0.0225373852    0.0019710203
 C    0.8749080548   -0.6981657637   -1.0526106720
 C    0.6363353683   -2.1624126538   -0.5682278906
 C   -0.3030391278   -1.8206607782    0.6043671852
 O    0.4023337996   -0.6986565054    1.2177261589
 C   -1.3372058719   -0.8082294867    0.0271819603
 C   -2.3159625528   -0.3178872434    1.0972795741
 C   -2.0879829852   -1.1096274207   -1.2677305845
 H    1.0947628116    1.8397474854    0.3072277297
 H   -0.2423002408    1.9794616813   -0.8456003786
 H   -0.5758520568    1.9021468574    0.8965974731
 H    0.5599399065   -0.5127888070   -2.0826843660
 H    1.9176643861   -0.3882724111   -0.9518881519
 H    0.1817202523   -2.8127001300   -1.3198932211
 H    1.5499658560   -2.6386791615   -0.2069143122
 H   -0.5813218352   -2.6066893576    1.3084126813
 H   -1.8040443769   -0.1071037380    2.0373537292
 H   -2.8315628219    0.5922247738    0.7698192574
 H   -3.0854056528   -1.0752018976    1.2858795756
 H   -2.8621188208   -1.8654407073   -1.0922745861
 H   -2.5960322648   -0.2090352707   -1.6315580034
 H   -1.4479009649   -1.4750802612   -2.0726660538