17

 O    0.0111335791    1.4035297429    0.1532944064
 C   -0.0264230174   -0.0012692799    0.0298615419
 C   -1.4389539087   -0.4739723694   -0.0287389634
 C   -2.5417828754    0.2951227545    0.0069236230
 C   -3.7309617011   -0.5575866997   -0.1120607511
 O   -4.8793866396   -0.2615300352   -0.3668111614
 C   -3.2709515429   -2.0141986304    0.0723335186
 O   -3.9614434003   -2.8853402517   -0.7853304623
 C   -1.7544792608   -1.9501842993   -0.1713883813
 H    0.9305904947    1.6837227717    0.1690203932
 H    0.4974805304   -0.3506674149   -0.8777082359
 H    0.4710060890   -0.5039528639    0.8790827251
 H   -2.5620024056    1.3745343961    0.0510645303
 H   -3.4523810951   -2.2756263638    1.1299795580
 H   -4.8171538586   -2.4588272904   -0.9432745256
 H   -1.5360087126   -2.2994747144   -1.1878046241
 H   -1.1699075749   -2.5704879522    0.5163700985