19

 O   -0.0182816310    0.2202918896   -0.9588391118
 C   -0.0418557890    1.2550643277   -0.3374782871
 C   -1.2713488876    2.0568052853   -0.0161294478
 C   -1.5236108687    2.3128398250    1.4640284643
 C   -0.8302483607    3.3550555260    0.6449013368
 C    0.7026518710    3.4003576449    0.6805374736
 C    1.4180719219    3.1510866578    2.0441923917
 C    1.7404309185    1.6912426147    1.6078555195
 C    1.1855238112    2.0125447644    0.1783179481
 H   -2.1226121825    1.9669628932   -0.6793687040
 H   -2.5575460526    2.4930105819    1.7369060386
 H   -0.9717871422    1.7406024327    2.2008660738
 H   -1.3651077802    4.2758335030    0.4417765754
 H    1.0608678027    4.2669183018    0.1210559047
 H    2.3143519568    3.7628366872    2.1702406184
 H    0.7971402886    3.2675052974    2.9358570649
 H    2.7964832670    1.4164876260    1.6296440378
 H    1.1835512297    0.9162454362    2.1406080788
 H    1.9560976970    2.0088155851   -0.5944361856