17

 C    0.0035287618    1.5442062321    0.0576574957
 C    0.0415941599    0.0457477731    0.0017786992
 C   -0.8420573932   -0.8287551208    0.8344190449
 C    0.6578465279   -0.9587174071    1.0179677280
 C    1.2485121749   -1.7865363582   -0.1350043080
 C    0.6297708262   -0.7787256642   -1.1550827896
 C    1.2958587775   -0.6943622550    2.2633993066
 N    1.8294233874   -0.4702034632    3.2670776279
 H    0.9635549198    1.9775842805   -0.2415218574
 H   -0.7661393951    1.9371190565   -0.6173717010
 H   -0.2260662045    1.8975073740    1.0675478106
 H   -1.3611337572   -0.3315629941    1.6471059038
 H   -1.3848462011   -1.6632898175    0.3956196788
 H    2.3390684754   -1.7767698205   -0.1457937719
 H    0.9023173923   -2.8228474167   -0.1856660455
 H   -0.0986585401   -1.1794313828   -1.8665903210
 H    1.3969809182   -0.2342775162   -1.7098213411