19

 C   -0.0551284744    1.4984050047   -0.0133051692
 C    0.0378874140   -0.0043557206    0.0035714839
 O   -0.7340995344   -0.6883423655    0.9883987478
 C    0.6967587403   -0.7671215879    1.0793927960
 C    1.3467490409   -2.0963835531    0.7042513714
 C    1.2303443452   -2.3167475921   -0.8084675337
 C    1.6129948076   -1.0579810476   -1.6244842165
 C    0.1298537455   -0.7147104777   -1.3554757587
 O   -0.1598897541   -2.1205470131   -1.1941735798
 H    0.7625060439    1.9362956036   -0.5968557102
 H   -0.9989076347    1.8185137582   -0.4690407832
 H   -0.0120910478    1.9008997765    1.0017737575
 H    1.1103154806   -0.2403942302    1.9391449966
 H    2.4022578294   -2.0848221718    1.0029121306
 H    0.8603377795   -2.9184649332    1.2408788975
 H    1.6164114901   -3.2879828790   -1.1289130327
 H    2.3840830644   -0.3897425951   -1.2325504934
 H    1.8039026117   -1.2948619427   -2.6719324861
 H   -0.4810257777   -0.2472190134   -2.1329563977