16

 N    0.0964290512   -1.1226108750   -0.0647499198
 C    0.0411081828    0.0328073855   -0.0165776200
 C   -0.0388713050    1.4554294360    0.0530424093
 C   -1.2250743659    2.2659453436    0.5976034176
 C   -0.7420425051    3.4564976863   -0.2937701510
 O    0.0908256812    4.3485544124    0.4225090572
 C    1.2234045704    3.5910356066    0.8656211356
 C    1.2220625640    2.3315325837    0.0068027880
 C    0.1941973980    2.4850048539   -1.0616253380
 H   -2.1736873224    1.8520831585    0.2486794329
 H   -1.2751865335    2.4502134544    1.6741965454
 H   -1.4951982533    4.0291788974   -0.8304082217
 H    2.1283397989    4.1863666785    0.7032928919
 H    1.1434424870    3.3697604944    1.9376847828
 H    2.1505817707    1.8175705779   -0.2072570156
 H    0.3311794408    2.3393619559   -2.1234785946