19

 C   -0.1228661491    1.5847346653    0.0539727770
 C   -0.0015481669    0.0743599361    0.1902728140
 C    0.8641170149   -0.6649486910   -0.8387309989
 O    2.2292608595   -0.2424308236   -0.6546688762
 C    1.7116373664   -1.2592590493    0.1984581636
 C    0.9105032979   -0.5419715524    1.3309289032
 C    1.7390748544    0.3860711819    2.2151495198
 C    0.1813196422   -1.5763876887    2.1660547681
 O   -0.9341406964   -1.9865770697    1.9682901156
 H    0.8546448997    2.0506967608   -0.0950530611
 H   -0.7521467009    1.8390266937   -0.8057969440
 H   -0.5855225968    2.0288216971    0.9412610015
 H   -0.9849146098   -0.3985343915    0.2611651344
 H    0.5967393490   -1.0335689883   -1.8222152079
 H    2.2454891487   -2.2022972249    0.2416047772
 H    2.4212338817    0.9776991835    1.6016319024
 H    1.1023656741    1.0711941153    2.7842774362
 H    2.3370551520   -0.1875274203    2.9329373594
 H    0.7894750793   -1.9764128339    3.0108782658