16

 C   -0.0524067656    1.5670906340   -0.0010388396
 C    1.4521290123    1.9034661407   -0.0404720528
 N    2.1939292006    1.4688211911    1.1574735467
 C    2.2712473137    0.6485647143   -0.0860560300
 C    1.2786071015   -0.4488480398   -0.0604427185
 N    1.3310658967   -1.7708486348   -0.0770324307
 N    0.0241561563   -2.1199166829    0.0079598630
 C   -0.8317234410   -1.0562389767    0.0788689342
 C   -0.0344972753    0.0611839108    0.0272664813
 H   -0.5273629276    2.0160746504    0.8778778498
 H   -0.5585170945    1.9650771467   -0.8888383726
 H    1.7743910645    2.8054778994   -0.5502749253
 H    3.0452146274    2.0228253233    1.2339241308
 H    3.2112019409    0.5745514831   -0.6199263759
 H   -0.2166058653   -3.0961239262   -0.0015535414
 H   -1.8981052947   -1.2042463433    0.1460078711