17

 C    0.0532757977   -1.2155896641   -0.0827513574
 C   -0.0304708880   -0.0141945167   -0.0349256956
 C   -0.0661609247    1.3996142102    0.0259968077
 C   -1.1615300442    2.1730181517   -0.0719844982
 C   -0.8527928173    3.6332853407    0.0572892870
 C   -0.9840077586    4.2190349911    1.4867058427
 O    0.4220139400    4.0174505754    1.7348871737
 C    0.6714441886    3.6555955427    0.3570061498
 C    1.2024401163    2.2263326111    0.1997482081
 H    0.1109358369   -2.2749056063   -0.1255727182
 H   -2.1662124908    1.7895910317   -0.2069563473
 H   -1.2521516841    4.2503708151   -0.7510735639
 H   -1.2543707256    5.2831466342    1.5138510419
 H   -1.6132775844    3.6649069741    2.1920796123
 H    1.2827156139    4.4116634535   -0.1471663694
 H    1.7707271247    1.9320339964    1.0884286732
 H    1.8676222898    2.1151837591   -0.6652387964