21

 C    0.0083322675    1.4821567136    0.0144188871
 C   -0.1436322408   -0.0246321220   -0.0864261898
 O    0.7912037105   -0.5000859959   -1.0509990125
 C    0.7957063440   -1.8941421606   -1.2322501344
 C   -0.4686954255   -2.3508986529   -1.8556498342
 N   -1.4856222165   -2.6389261794   -2.3224796450
 C    2.0113156675   -2.2827095657   -2.1041751382
 C    3.3075504741   -1.7123738786   -1.5191484105
 N    1.9917339763   -3.7380636469   -2.2572319636
 H    1.0234512035    1.7497809766    0.3212073698
 H   -0.1960543692    1.9532614094   -0.9508687261
 H   -0.6943449705    1.8822647721    0.7510583848
 H    0.0536494337   -0.5060549141    0.8850029719
 H   -1.1649056162   -0.2953449966   -0.3892407199
 H    0.8854129697   -2.4113764216   -0.2602736003
 H    1.8405659864   -1.8465367940   -3.0945890713
 H    4.1532601944   -1.9726417561   -2.1631444633
 H    3.2595141344   -0.6257721122   -1.4231313472
 H    3.4996938600   -2.1341164702   -0.5244328005
 H    2.5507941672   -4.0157237255   -3.0561291180
 H    2.4090072795   -4.1826313394   -1.4438469389