15

 C   -0.1752027647    1.5866994569    0.0231925162
 C    0.0640814793    0.1078909864    0.0914983446
 C   -1.0758142130   -0.9192037857    0.1950754245
 O   -0.3562372644   -1.6737544374    1.2024276612
 C    0.7390909579   -0.7345819407    1.2028890255
 C    1.7658664217   -1.0550874473    0.1328234343
 N    2.8361052814   -1.7023978248    0.0889891148
 O    1.0896648382   -0.3497772547   -0.8555452783
 H    0.7609193486    2.1374991501    0.1487374650
 H   -0.6022685572    1.8584262067   -0.9481175564
 H   -0.8747857610    1.8988060240    0.8039461903
 H   -2.0159716770   -0.5235534200    0.5975897675
 H   -1.2672827811   -1.4953975570   -0.7156859787
 H    1.0567025187   -0.4255633566    2.1985305797
 H    3.2352738526   -1.7067519700   -0.8518182902