21

 C    0.3279841994    1.5084610239   -0.1669157490
 C   -0.0543054803    0.0469269881    0.0242480021
 C   -1.4950852919   -0.2636080890    0.5391363501
 C   -0.9022982963   -1.2475317763    1.5863050878
 C    0.5303950242   -0.7318459797    1.2599355148
 C    1.5943130002   -1.7293558106    0.7544201946
 C    1.3498768672   -1.8266437555   -0.7400377309
 O    0.0015206674   -2.1810454542   -1.0783030338
 C    0.3819269614   -0.7994957564   -1.1617676256
 H    1.3970579834    1.6202421227   -0.3843952392
 H   -0.2279638494    1.9590123652   -0.9980218706
 H    0.1087416999    2.0912639463    0.7334398048
 H   -1.9635980579    0.6145041776    0.9928589313
 H   -2.1859753594   -0.6895694467   -0.1914571366
 H   -1.2327436352   -1.1064183567    2.6184790621
 H   -1.0439477456   -2.2922482292    1.3071159270
 H    0.9240198359   -0.0778832868    2.0418962065
 H    2.6105134786   -1.3549481688    0.9284607189
 H    1.5194223504   -2.7060673842    1.2457147509
 H    2.1114340735   -2.2300329774   -1.4044024735
 H    0.3654586246   -0.3810809923   -2.1670688018