19

 C   -0.2227581715    1.5793232043   -0.0189853650
 C    0.0473227472    0.0807492764   -0.0047513760
 C    1.1692357225   -0.4979293964   -0.9370425937
 C    1.7966292761   -1.2342673909    0.2868069657
 O    1.8937376894   -2.6266986226    0.2846903975
 C    2.9220250450   -0.4735224228    1.0587374141
 O    2.6578176673    0.9247428496    0.9449165415
 C    1.9190260192    0.1730979960    1.9241279539
 C    0.7513473316   -0.5708091640    1.2286231035
 H    0.6978495296    2.1474275907    0.1288318057
 H   -0.6629816322    1.8834310708   -0.9753029447
 H   -0.9297951145    1.8572586726    0.7711203952
 H   -0.8892313598   -0.4563658405   -0.1865976333
 H    0.8045666463   -1.1907133230   -1.6995630193
 H    1.8129401576    0.2535549740   -1.3982575092
 H    2.5617128343   -2.8802753413   -0.3629924836
 H    3.9463326036   -0.7825884657    1.2444079800
 H    1.9842215062    0.5254322380    2.9474689761
 H    0.1611276922   -1.1921184152    1.9028902616