14

 O    0.1447974484    1.3448827060    0.2608273932
 C    0.0436482766   -0.0414433301    0.0738751679
 C   -1.3867508561   -0.4791956752   -0.0197989216
 N   -2.3715316675    0.3178256773    0.0620039500
 C   -3.5856399246   -0.5000740286   -0.0771299277
 C   -3.0547107277   -1.9482248092   -0.2567527826
 O   -1.6129735225   -1.7999925930   -0.2013948824
 H   -0.7640773709    1.6783105318    0.2825935077
 H    0.5635068294   -0.3556371629   -0.8445716169
 H    0.5202860952   -0.5879866982    0.9024869559
 H   -4.2155154211   -0.3920370695    0.8116907354
 H   -4.1719982482   -0.1592426046   -0.9364569974
 H   -3.3566188755   -2.6292962997    0.5430830983
 H   -3.3130250058   -2.3945853340   -1.2204816498