16

 N    0.2860912339    1.4220310951    0.5327132159
 C    0.1193210382    0.0606260007    0.2277811581
 C   -1.0267607201   -0.5696258164   -0.2056298868
 C   -2.3972767019   -0.0376262137   -0.4464846891
 C   -3.3355068979   -0.8806870804   -1.2768440210
 O   -3.1434722393   -2.0197819409   -1.6306879585
 N   -0.6448307495   -1.8883141478   -0.4031746401
 C    0.6753307312   -1.9744780017   -0.1209116145
 N    1.1699626287   -0.8177819288    0.2777390742
 H    1.2370495450    1.5791891150    0.8458268262
 H   -0.3493453611    1.7465922940    1.2523749469
 H   -2.9592644101    0.1432798455    0.4898865857
 H   -2.3428833420    0.9566953363   -0.9142236254
 H   -4.2883269022   -0.3675733247   -1.5310625045
 H   -1.2564494759   -2.5832790954   -0.8026649700
 H    1.2300209929   -2.8953337368   -0.2177882270