19

 C   -0.1707519394    1.6329005583    0.0122735826
 C    0.0611157376    0.1168411436   -0.0842209139
 C    1.1848128772   -0.3267972642    0.8624614806
 C   -1.2540281710   -0.6220044647    0.1455342491
 C   -1.2924673590   -2.1639709574    0.2415650455
 C   -1.7807116010   -1.9105717634    1.6513243662
 N   -2.1362225641   -2.6365949872    2.6095103011
 O   -1.7204765132   -0.5359771937    1.5428204351
 H    0.7535262977    2.1831415195   -0.1876433513
 H   -0.9253979024    1.9692736250   -0.7064436997
 H   -0.5165989649    1.9050006378    1.0148372053
 H    0.3570173932   -0.1219569369   -1.1166184584
 H    0.9106817453   -0.1351811710    1.9038795364
 H    1.4197679779   -1.3906867824    0.7642716717
 H    2.1008348431    0.2311319839    0.6469427187
 H   -2.0316010784   -0.2114443646   -0.5073576108
 H   -2.0138654926   -2.6625222354   -0.4076323831
 H   -0.3325240795   -2.6774777621    0.1760334858
 H   -2.4151664663   -2.0734865050    3.4149885992