18

 C    0.1122243258    1.5027519690   -0.2014289805
 C   -0.0373323321    0.0320109259    0.1208445400
 O    1.1562085741   -0.7583773621    0.1687809492
 C    0.4114022492   -0.6060979075    1.3841417888
 C    1.0625667294    0.1255380603    2.5284301439
 C    2.1333575900   -0.7313006828    3.2025005563
 O    2.6500611687    0.0218003225    4.2856119982
 C   -1.1452331134   -0.6148353816   -0.5729166737
 N   -2.0385569153   -1.1018449946   -1.1211045255
 H    0.9631316142    1.9295000357    0.3292782479
 H    0.2739557123    1.6324173255   -1.2752110988
 H   -0.7946567349    2.0484561631    0.0749966974
 H   -0.1242529582   -1.5137591828    1.6694573736
 H    1.5230271745    1.0582784916    2.1951773170
 H    0.2974003720    0.3820446448    3.2708124305
 H    1.6897667099   -1.6800437188    3.5463689406
 H    2.9149337151   -0.9795365471    2.4688594886
 H    3.3554141889   -0.4854201811    4.6978098067