23

 C    0.1921812617    1.5227980326   -0.4379176537
 C    0.0613269665    0.0579589129   -0.0904734015
 O   -1.2195319893   -0.4684519982   -0.3530716303
 C    1.2294183676   -0.8852575268   -0.2472953573
 C    0.6945915336   -0.5433744150    1.1362238460
 C    1.4774241180    0.2336554257    2.1741952902
 C    2.9024210632    0.6332968098    1.8341233944
 C    0.6861937615    1.1621194031    3.0749162667
 C    1.2191738852   -0.1385482472    3.6192943650
 H    1.1802948604    1.9170869922   -0.1913912199
 H    0.0328389151    1.6773315518   -1.5127112223
 H   -0.5566227937    2.1122638820    0.1002028613
 H   -1.3420133892   -0.4766241486   -1.3093176415
 H    1.0262656811   -1.8797038089   -0.6294645999
 H    2.1855412617   -0.4692437936   -0.5472220564
 H    0.0692784434   -1.3260255149    1.5566210633
 H    2.9583391836    1.2954174064    0.9627765972
 H    3.3603324997    1.1665226124    2.6730487081
 H    3.5189851789   -0.2466898987    1.6202658229
 H    1.1545788916    2.0859445456    3.3989251903
 H   -0.3820588479    1.2396663156    2.9038464671
 H    0.5106098496   -0.9349293673    3.8220959800
 H    2.0539221776   -0.1019568410    4.3116296703