19

 C    0.5219879376    1.1751986948    0.2611677036
 C    0.1978484593   -0.2935073863    0.1461634631
 C    0.3734235985   -1.2437633578   -1.0680841706
 N   -0.2134506620   -2.1951029892   -0.0124773011
 C    0.7689115669   -1.4941452136    0.9421103994
 C   -1.1751865347   -1.0169350628    0.2858706820
 C   -1.9938871684   -1.1574010959    1.5569916316
 O   -2.7926279762   -2.3269579071    1.4758347801
 H    1.5863617402    1.3572348610    0.0770882384
 H   -0.0497920973    1.7616369343   -0.4661700718
 H    0.2852448304    1.5562455998    1.2604338089
 H   -0.2756239908   -1.0990868238   -1.9365947719
 H    1.3912230432   -1.5081567264   -1.3689349679
 H    1.8111218692   -1.7712475012    0.7590390612
 H    0.5286692073   -1.5980402396    2.0006036060
 H   -1.8662235489   -0.8688288506   -0.5525302693
 H   -1.3732540193   -1.1619019802    2.4643121739
 H   -2.6815469602   -0.3083750964    1.6451888316
 H   -2.2162744849   -3.0206637292    1.1306380127