18

 O    0.3584487218    0.9864844281    0.5780111914
 C   -0.2211109513    0.3068425204   -0.5226574957
 C   -1.4261077958   -0.5209459292   -0.1163759851
 C   -1.9787676562   -1.5425027872   -1.0727317704
 C   -1.3004478080   -1.9852172324    0.2070168517
 O   -0.0227207308   -2.5416994478    0.1674733494
 O   -2.4004244887    0.2209002459    0.5842580381
 C   -2.1810469220    0.4091108876    1.9108591677
 N   -2.8736045436    1.2604455416    2.5344803716
 H   -0.1759644149    1.7667416324    0.7576013022
 H   -0.5194012572    1.0104066365   -1.3124019645
 H    0.5439986409   -0.3611255539   -0.9251383581
 H   -3.0570554456   -1.6308042154   -1.1368445510
 H   -1.4375186377   -1.6858563248   -2.0024173500
 H   -1.9513405946   -2.3624594084    0.9955807406
 H   -0.0869563737   -3.4113021920   -0.2415124189
 H   -1.3981562971   -0.2377453904    2.3187520869
 H   -2.6161052155    1.2555654490    3.5196229840