21

 C   -0.0995800296    1.4038395218    0.0538255837
 C    0.0842270091   -0.0961364581    0.0495048279
 O    0.2820769117   -0.7267577544    1.0675115543
 C    0.0185210122   -0.8476315767   -1.2834487853
 O    0.2721665251   -2.2090171895   -1.0673031442
 C   -1.3385351193   -0.6466046559   -1.9866127994
 C   -1.4037387720   -1.3886836113   -3.3238426348
 C   -2.7635146223   -1.2644695308   -3.9979613265
 O   -2.7015524298   -1.9591885326   -5.2338179231
 H    0.4108626592    1.8730977597   -0.7923938357
 H   -1.1655363666    1.6422042926   -0.0379242141
 H    0.2690804867    1.8155302688    0.9942350550
 H    0.8056532590   -0.4185737632   -1.9302850236
 H    0.3859743472   -2.2932947185   -0.1058345027
 H   -2.1283002972   -1.0108065789   -1.3162345925
 H   -1.5137667122    0.4251731684   -2.1442799163
 H   -0.6389292072   -0.9984656999   -4.0070108132
 H   -1.1774783200   -2.4466363971   -3.1640755128
 H   -3.5429027498   -1.6853670899   -3.3412257391
 H   -3.0107359536   -0.2000894768   -4.1517375871
 H   -3.5660478805   -1.9088047576   -5.6516197504