21

 C   -0.1159281084    1.4585393082    0.0237194510
 C   -0.0026453010   -0.0360822565   -0.0399963490
 C    0.0299332500   -0.8982024267   -1.3037256385
 C   -0.2189312688   -2.1224454284   -0.3848225615
 C    1.0851048458   -2.2190210361    0.4497622002
 C    0.6720234898   -0.8927136853    1.0925896434
 C    1.2442849681   -0.2880298179    2.3407127130
 C   -0.7683393430   -1.1029454658    0.7179617001
 O   -1.8686079965   -1.0723863698    1.5375942019
 H    0.8125067347    1.9490241995   -0.2929859276
 H   -0.9158354867    1.8183070903   -0.6348594027
 H   -0.3450235406    1.8076652422    1.0349616093
 H   -0.8259609403   -0.6792625618   -1.9514059751
 H    0.9462856907   -0.9137477157   -1.9066053381
 H   -0.7156398347   -3.0157427679   -0.7582611607
 H    1.0497319443   -3.0319084044    1.1819632452
 H    2.0289425344   -2.2680994595   -0.1074607137
 H    2.2572675880    0.0975026744    2.1740838789
 H    0.6306284438    0.5370081436    2.7136532082
 H    1.3017363830   -1.0356639588    3.1400251516
 H   -2.6345752926   -0.8008466037    1.0187144341