21

 C   -0.3838852918    1.4118108557    0.2073388388
 C    0.2479813426    0.0532343336   -0.1184923460
 C    0.9019349204   -0.5806495600    1.0903823625
 C    0.0832718280   -1.3013962287    2.1348243016
 O   -1.2885620734   -1.4325248817    1.8822998341
 C   -1.7260207522   -2.7504903108    1.5707322746
 C   -0.8806273851   -3.4189953494    0.5161442602
 C    0.3982730264   -3.0806266236    0.3588379242
 C    1.0286866251   -2.0951793877    1.2722108677
 H    0.3566821047    2.1111817664    0.6116654003
 H   -0.8185741160    1.8693034366   -0.6872681263
 H   -1.1775403665    1.2945705377    0.9509032712
 H   -0.5170341644   -0.6198992736   -0.5141180587
 H    0.9996159950    0.1711676999   -0.9096215310
 H    1.7439009810   -0.0177407284    1.4886936354
 H    0.3162561763   -1.1533005487    3.1882224092
 H   -1.7587912113   -3.3725535353    2.4823086211
 H   -2.7588020622   -2.6391437471    1.2245038595
 H   -1.3541117660   -4.1760466891   -0.1019712874
 H    1.0119134572   -3.5394131252   -0.4117147696
 H    1.9541036022   -2.4307783306    1.7336242287