15

 C    0.0064623955   -1.2066391085   -0.0058339916
 C    0.0292795671   -0.0065302595    0.0012949803
 C    0.0136390571    1.4481176630    0.0103918781
 O    1.3503236198    1.9353549231   -0.0009150962
 C    1.4623650228    3.2891563879    0.0047077181
 C    2.6677968105    3.9650588833   -0.0066406385
 N    2.3417897367    5.2837747625    0.0045410489
 N    1.0236962414    5.5139875516    0.0220478692
 C    0.4711872004    4.2986502681    0.0223861913
 H   -0.0073302172   -2.2685742209   -0.0122278163
 H   -0.5327298609    1.8251201371   -0.8675810202
 H   -0.5137817637    1.8141554662    0.9044526964
 H    3.6841524614    3.6096399432   -0.0211293413
 H    2.9724699063    6.0668350877    0.0008843502
 H   -0.6029709072    4.2011494851    0.0351519316