21

 C   -0.0311430431    1.2847053904   -0.2079662640
 O    0.2348498247   -0.0958745553   -0.1223157087
 C    0.5391544524   -0.5269159973    1.1952599353
 C    0.6409983015   -2.0266985997    1.1408454368
 O   -0.5537907736   -2.6240612147    0.7003876380
 C    1.9388129620   -2.7205083969    0.7513844494
 C    1.3659710553   -2.8780475147    2.1512262669
 C    2.0834147385   -2.3055793540    3.3485908519
 O    0.7518553109   -4.0911171649    2.4793940278
 H    0.8386547402    1.8862683033    0.0985789154
 H   -0.2642331205    1.5093570678   -1.2515605195
 H   -0.8877630734    1.5750246843    0.4201410497
 H    1.4762420033   -0.0699256498    1.5461648120
 H   -0.2667016934   -0.2258440624    1.8846620314
 H   -0.7405584638   -2.2536168709   -0.1704787024
 H    1.8500426880   -3.5760060857    0.0909494010
 H    2.8262597661   -2.1118416047    0.6097000003
 H    2.6266332302   -1.3906563204    3.1002784391
 H    1.3778653740   -2.0904169266    4.1572422602
 H    2.8072549911   -3.0382414199    3.7197195284
 H   -0.0295851905   -4.1668047880    1.9154112409