15

 O    0.2372880223   -0.1848305612    0.2312159077
 C    0.1124878833    0.9512203214   -0.1384585210
 C    1.2158948236    2.0012741583   -0.0619841336
 N    1.1937788629    2.9123576985   -1.1729077140
 C    1.5831023899    2.7783991476   -2.5839876384
 C    1.3025069866    4.3013874894   -2.7333116686
 C    0.9635951886    4.2716011777   -1.2254010922
 O    0.6393101952    5.0572526818   -0.3761481834
 H   -0.8415876378    1.3351143094   -0.5670725380
 H    1.0401392331    2.6055870028    0.8390282429
 H    2.1826034916    1.4958048047    0.0477535790
 H    2.6281958384    2.4824448309   -2.7249413884
 H    0.9359239548    2.1166691337   -3.1680344156
 H    2.1675990132    4.9171305270   -2.9840626778
 H    0.4636548544    4.5666431180   -3.3786319586