16

 O   -0.0061351600    1.3600091659    0.0874179078
 C    0.0315759499   -0.0060675889    0.0158987733
 C   -0.2838310413   -0.8388855163    1.2081610571
 C   -1.1794761391   -1.0275840136   -0.0173580255
 C   -2.5703364150   -0.7446927076   -0.0114121396
 C   -3.7509964721   -0.5079519312   -0.0149613563
 C   -0.4240927732   -1.7824943276   -1.0879829695
 N   -0.2079983242   -0.8566441229   -2.2280529040
 C    0.7104654833   -0.8182646424   -1.0562395660
 H   -0.2793844986    1.6852705396   -0.7798925974
 H    0.3747774562   -1.6425733649    1.5273730401
 H   -0.7585877727   -0.2922719552    2.0162008245
 H   -4.7914927485   -0.2983060685   -0.0208228895
 H   -0.3749513247   -2.8564500789   -1.2223284412
 H    0.2641285330   -1.3863117922   -2.9631185006
 H    1.7706696870   -1.0130279153   -1.1675350330