17

 C   -0.1085696978    1.5054027656    0.0279743886
 C    0.0257705277   -0.0228149758    0.0149447934
 C   -1.2863920650   -0.6483994805    0.1957076547
 N   -2.3235447304   -1.1376809571    0.3443761936
 C    0.9017804163   -0.5209312390   -1.1503463286
 C    2.1307061134   -0.4335029472   -0.3292571040
 C    1.1886087634   -0.5444432387    0.9306673373
 C    1.2092871113   -2.0534988011    0.6474602773
 N    1.6397059558   -1.7682485037   -0.7650154458
 H    0.8779172419    1.9670307575   -0.0693979260
 H   -0.7343776691    1.8505312501   -0.7999312052
 H   -0.5652654428    1.8458633870    0.9614394176
 H    0.7492483938   -0.3455525691   -2.2069742237
 H    3.1237020271   -0.0479871720   -0.5130720614
 H    1.3213202663   -0.1115642409    1.9201789095
 H    2.0277638096   -2.5715682568    1.1518203194
 H    0.2793318485   -2.6203708682    0.7552219334