16

 C    0.4228201467    1.4606055494    0.1463166900
 N    0.5171627457    0.0139237702    0.0964220872
 C    0.5539975586   -0.5756428601   -1.0181518543
 O    0.5347647662    0.0857856145   -2.2189570621
 C    0.3833242359   -0.7101083066   -3.3900015578
 O    1.2928944345   -1.7568760664   -3.4228069034
 C    0.9867434862   -2.7153866496   -2.4230490017
 C    0.6863468801   -2.0927297291   -1.0595216130
 O    0.5535303915   -2.7804459924   -0.0815144491
 H   -0.1828914315    1.7405433629    1.0128625405
 H    1.4250251816    1.8775545431    0.3080521520
 H    0.0061256293    1.9148259218   -0.7590904349
 H   -0.6544540384   -1.0809747681   -3.4437023029
 H    0.5946944587   -0.0488262251   -4.2307021622
 H    0.1153673139   -3.3247701670   -2.7134131897
 H    1.8458060610   -3.3832753274   -2.3260783387