22

 C    0.4129252850    1.4848564170   -0.0097910765
 C    0.1317175795   -0.0282400275    0.0031635363
 C    0.5980860236   -0.6870113767   -1.3015291885
 C    0.6881952782   -0.6437464399    1.2827548915
 C    1.0540430241   -2.1018886411    1.4383477827
 N    2.0560681205   -1.0658888092    1.4615569589
 C    3.2031955917   -0.8868432310    0.7172128594
 C    4.0946717918   -2.1147704696    0.6502963061
 O    3.5066368524    0.1785464984    0.2166917740
 H    1.4901039823    1.6656242052   -0.0506657360
 H   -0.0587978053    1.9578352334   -0.8770925147
 H    0.0171539340    1.9684425008    0.8898614995
 H   -0.9570564746   -0.1686095618    0.0778237842
 H    1.6695989539   -0.5420540492   -1.4602940293
 H    0.3768908633   -1.7587317948   -1.3298992145
 H    0.0762202125   -0.2293912072   -2.1477398394
 H    0.2807151077   -0.1693863391    2.1768231656
 H    0.8571429608   -2.6122329812    2.3789874051
 H    1.0011155958   -2.7370693604    0.5574995978
 H    3.7022007985   -2.8174084969   -0.0936238386
 H    5.0957059931   -1.8095742683    0.3457352628
 H    4.1323595613   -2.6358728109    1.6102694437