17

 C   -0.0480654485    1.4279768480   -0.1911952421
 C   -0.1011437007   -0.0586235166   -0.0749006965
 O    0.6381096509   -0.8161904955   -1.1563185692
 C    0.0518007835   -1.9013520641   -0.4972466965
 N    0.7246470028   -2.7089879077    0.2111723500
 C    0.3166475615   -2.2593804795    1.5930143662
 C   -0.3401313385   -0.8783838701    1.3282194712
 C   -1.1545426457   -1.0544685748    0.0966016472
 N   -2.5540629928   -1.0187813709   -0.0918430062
 H    0.9641066650    1.8023014339   -0.0145638096
 H   -0.3637893327    1.7396691241   -1.1913250699
 H   -0.7205634735    1.8777431154    0.5440363203
 H   -0.3607865212   -2.9352238020    2.1387990064
 H    1.2539775961   -2.1964673658    2.1536272659
 H   -0.6870104935   -0.2485628071    2.1456515217
 H   -2.7989492825   -1.0083720202   -1.0770373785
 H   -3.0059473101   -1.8232375771    0.3311373796