21

 C   -0.0412859593    1.4209262387    0.0409589975
 C    1.4225501939    1.9546425106   -0.0052552780
 C    2.2117058311    0.7203675767    0.4397877387
 C    3.6721299743    0.4944224588    0.0730730606
 C    4.1238526810   -0.8708930940    0.6536262437
 C    3.0464146560   -1.9355945232    0.6660568079
 C    1.7729576850   -1.7322298529    0.3233538202
 C    1.3508770877   -0.3833894776   -0.1687937326
 O    0.0223156680   -0.0093314438    0.1656058108
 H   -0.5968979339    1.8033050258    0.9037416250
 H   -0.5957239414    1.6943855832   -0.8667247495
 H    1.6978691539    2.2461570536   -1.0249208816
 H    1.5669527946    2.8248960028    0.6398035520
 H    2.1068098275    0.6211135874    1.5290475094
 H    3.7793663782    0.4909218678   -1.0194587372
 H    4.3203465219    1.2925049862    0.4501564901
 H    4.9978158158   -1.2421204421    0.1030635473
 H    4.4770608717   -0.7330100380    1.6863710628
 H    3.3625903886   -2.9229819981    0.9959251303
 H    1.0378784212   -2.5310374235    0.3486466530
 H    1.4625479042   -0.3537970985   -1.2717769605