12

 N   -0.0017688380    1.3646590032    0.1270180296
 C   -0.0419967226   -0.0029204222    0.0323083254
 N   -1.1262052233   -0.7380150202    0.0639507938
 C   -0.6230756947   -2.0167050919    0.0061799334
 N    0.6772308078   -2.1308277980   -0.0674213974
 N    1.0804715802   -0.8078988095   -0.0378786506
 C    2.4256269030   -0.4278898364   -0.0052763803
 O    3.3531826571   -1.1798487736   -0.0755049578
 H    0.6764517474    1.8446929369   -0.4455974242
 H   -0.9247572347    1.7711823642    0.0612094931
 H   -1.2641156578   -2.8863518353    0.0115994626
 H    2.5236014157    0.6676130528    0.1046145124