19

 C    0.2685715746    1.3553443411   -1.0423065248
 C   -0.1085995103    0.2510866388   -0.0860009800
 C    0.8762525063   -0.7873598575    0.2917473848
 O    0.5453442843    0.2585157043    1.1949238171
 C   -1.5734786840   -0.1401992748   -0.0718011525
 O   -2.2723654916    0.1182023691   -1.0326315378
 C   -2.0949100150   -0.8431781965    1.1307799058
 C   -3.5647632762   -0.6274182707    1.4636645999
 C   -3.1356918541   -1.9336947708    0.8958281725
 H    1.3470857077    1.5266460150   -1.0186750511
 H   -0.0393061335    1.0934229992   -2.0567655213
 H   -0.2395056572    2.2857809166   -0.7721180851
 H    0.5412974123   -1.7826363525    0.5801802831
 H    1.8720182004   -0.7370684891   -0.1465267911
 H   -1.4069009597   -0.9599023974    1.9566890361
 H   -3.8239010046   -0.5679704451    2.5142267102
 H   -4.0962866361    0.0506614838    0.8060158772
 H   -3.3811079028   -2.1312144326   -0.1414041308
 H   -3.0904893905   -2.8025341013    1.5423696378