14

 C    0.0250926776    1.4975215293    0.0255056597
 C    0.0212962762   -0.0076688459    0.0227467234
 N   -0.0538404516   -0.6389682681   -1.1531430725
 C   -0.0560089156   -1.9708510767   -1.1363395858
 N    0.0095003615   -2.7549252023   -0.0597397260
 C    0.0844794915   -2.1298273199    1.1137874976
 C    0.0941424916   -0.7410690464    1.2147040999
 O    0.1727578268   -0.1784616184    2.4492859616
 H    0.9415732932    1.9005640707    0.4761450106
 H   -0.0381183633    1.8589425437   -1.0012201387
 H   -0.8263046122    1.9048014462    0.5864850750
 H   -0.1175652610   -2.4684520857   -2.1004405411
 H    0.1394563754   -2.7356642977    2.0152748067
 H    0.1701807898    0.7808302713    2.3687820597