15

 O    0.1219457080    1.3747757074    0.1671506821
 C    0.0391622199    0.0120726908    0.0483292087
 C    0.8640488257   -0.9968230148   -0.7457002282
 C    0.8900251568   -0.9948690310    0.7903441785
 C   -0.2987418463   -2.0188834393    0.8049993440
 O   -0.5863498658   -3.0852685632    1.6146351497
 C   -0.3226571702   -1.9977980565   -0.7182267906
 C   -1.1824409437   -1.0049247754    0.0612177936
 O   -2.5379434323   -0.8554415030   -0.0612858407
 H   -0.1345042186    1.7683798392   -0.6751147932
 H    1.6843837456   -0.8590212918   -1.4394050968
 H    1.7184654285   -0.8055561219    1.4605765392
 H   -0.9302263519   -2.7546505844    2.4528240030
 H   -0.6601180088   -2.7579056123   -1.4098278569
 H   -2.8935814370   -0.5519373338    0.7820563077