21

 C   -0.0658973188    1.5734118176    0.1112494125
 C   -0.0309025900    0.0443368109    0.1660105700
 C   -1.3855800945   -0.5990269924   -0.1689769537
 C   -1.3565362695   -2.0992499156   -0.1235977595
 C   -0.5878885345   -3.0721646691   -1.0271927993
 C   -1.4404055698   -4.1744097642   -0.3523170565
 O   -0.9579176865   -4.1873109880    1.0230009524
 C   -1.5976416111   -2.9194573924    1.1620610849
 C   -2.5215662713   -3.0860540737    0.0041492357
 H    0.9123347944    2.0034386526    0.3474556785
 H   -0.3537348125    1.9281306705   -0.8848306680
 H   -0.7895204895    1.9798267243    0.8269174399
 H    0.7276103523   -0.3312100949   -0.5323265693
 H    0.2857565093   -0.2861194262    1.1629910449
 H   -2.1473410639   -0.2303883465    0.5326239074
 H   -1.7094609849   -0.2650921688   -1.1650866210
 H   -0.8607975804   -2.9330895947   -2.0773561544
 H    0.4977469495   -3.1664219674   -0.9194445438
 H   -1.5845304712   -5.1672490040   -0.7728633879
 H   -1.7285882484   -2.4978384638    2.1504683561
 H   -3.5910890989   -2.9949792943   -0.1281594988