20

 C   -0.8823789117    1.3864836115    0.6098875200
 C   -0.7659635195   -0.1076023360    0.8130782596
 C    0.3752900298   -0.8766090644    0.2336844522
 N    0.2454252805   -0.7098467601    1.6825079976
 C    1.1844681297    0.0840413320    2.4339671588
 C    2.2981448312   -0.6840656707    3.2198799606
 C    3.3272335010    0.4310639314    2.8829325967
 C    2.3373957207    0.9318876131    1.8201633901
 O    2.4566846382    1.5854190781    0.8209724316
 H    0.0948088088    1.8487608467    0.4513504394
 H   -1.5061468208    1.5933654433   -0.2664128165
 H   -1.3635013903    1.8656065163    1.4708598657
 H   -1.7241286014   -0.6214349106    0.8884707680
 H    0.2351100812   -1.8910047771   -0.1316773494
 H    1.1366952407   -0.3007334991   -0.2857837838
 H    0.6279992098    0.7278907922    3.1284580620
 H    2.0960025794   -0.8733056465    4.2740250251
 H    2.5363285143   -1.6267249948    2.7229402098
 H    3.4589755604    1.1638624021    3.6854320344
 H    4.3118923778    0.1361068726    2.5142879181