20

 C   -0.1861177353    1.4880090455   -0.0179015888
 C    0.0684892267   -0.0167998596   -0.0049863615
 N    0.7832890053   -0.4336593598   -1.2062710752
 C    0.8093431053   -1.8845975224   -1.3154578327
 C    1.2467152760   -2.5810866016   -0.0321562833
 O    1.5898120310   -3.7321947983   -0.0245372152
 O    1.1661533640   -1.8993090216    1.1302857100
 C    0.9133054379   -0.4713458296    1.1925982768
 C    2.2510078398    0.2440577928    1.3502930196
 H    0.7414653715    2.0425399603   -0.1805403456
 H   -0.8818704481    1.7471959850   -0.8229304855
 H   -0.6330605754    1.8191075062    0.9242098948
 H   -0.9082462690   -0.5320429370    0.0836144909
 H    0.3621448335   -0.0276590728   -2.0346734023
 H   -0.1764679935   -2.3257340977   -1.5564805501
 H    1.5006017587   -2.2012575716   -2.1001841591
 H    0.3206068713   -0.3527281951    2.1058222242
 H    2.8078971928    0.2238007645    0.4104493123
 H    2.1028812191    1.2854464866    1.6496859714
 H    2.8396190282   -0.2531582838    2.1247809292