21

 C    0.0123245939    1.6143032321   -0.0697595920
 C    0.0316358305    0.0842943576    0.0244305921
 C   -1.3576792874   -0.5464729836    0.0161814723
 O   -2.1399159506   -0.1211767921    1.1254447862
 C   -2.1864652397   -0.5241491088   -1.3145762219
 C   -2.6096415100   -2.0027416194   -1.0622818816
 C   -1.4722224228   -2.0827648673   -0.0465474251
 C   -0.3997679288   -3.0751196477    0.0514237515
 O   -1.4075648125   -2.9456733963    1.0642656178
 H    1.0284897271    2.0184218934   -0.0852966005
 H   -0.4931602479    1.9548973157   -0.9804822634
 H   -0.4980415235    2.0604391028    0.7905450355
 H    0.6112761839   -0.3282284687   -0.8099803890
 H    0.5375679217   -0.2200917926    0.9489337891
 H   -2.3500455640    0.8097403550    0.9966770364
 H   -2.9902152742    0.2140984779   -1.3539230797
 H   -1.5524056178   -0.4131761635   -2.1982435551
 H   -3.5828373051   -2.0725002066   -0.5711736114
 H   -2.5809223787   -2.6904929555   -1.9099013751
 H   -0.4533780894   -3.9822692872   -0.5500081594
 H    0.6028689354   -2.7757355553    0.3529696734