18

 C    0.0113864162    1.5115704268    0.2998830206
 C    0.0249927536    0.0255093572   -0.0892684674
 C   -1.3563303665   -0.5390344562   -0.2265371323
 N   -2.2134468969   -0.9021763590    0.9657669306
 C   -1.9289458423   -1.9225880212   -0.0556783833
 C   -3.0274540510   -1.6917302758   -1.1094672736
 O   -4.3555579280   -1.8191734627   -0.7062783674
 C   -2.3853814812   -0.2609958106   -1.3048039114
 O   -2.5307078701    0.6172567662   -2.1039842277
 H    1.0297192762    1.9052110308    0.3631939451
 H   -0.5379244584    2.0944727093   -0.4442803410
 H   -0.4729502705    1.6618983123    1.2697336456
 H    0.5478249166   -0.0977173522   -1.0454734462
 H    0.5873634593   -0.5601127807    0.6499691006
 H   -1.5693405931   -1.0395950168    1.7449365044
 H   -1.3998902754   -2.8376200442    0.1782022111
 H   -2.8911626560   -2.2827422353   -2.0209145100
 H   -4.4205449825   -1.3546686881    0.1392117623