16

 C    0.0557344372    1.4576374961   -0.1235269274
 N    0.0130078975    0.0133809841   -0.0518877471
 C   -0.0053911618   -0.8690747840   -1.1474853738
 C   -0.0204449751   -2.1487831851   -0.7640865542
 C   -0.0084667751   -2.1818692053    0.7365598736
 C    1.1348503991   -2.9409593256    1.4046463688
 O    1.8425661179   -3.7330179872    0.8441308771
 C    0.0223706206   -0.6904250485    1.1358946821
 O    0.0636969677   -0.2237813915    2.2534572316
 H    0.9540020300    1.8028668341   -0.6471129273
 H   -0.8268891117    1.8556572262   -0.6357940771
 H    0.0737936157    1.8312931013    0.9015762940
 H   -0.0044143639   -0.4541617506   -2.1457919179
 H   -0.0085816939   -3.0145036068   -1.4055763275
 H   -0.9287681951   -2.6047473220    1.1695834294
 H    1.2475794010   -2.6980000652    2.4822018257