20

 C    0.0446145902    1.3352732275   -0.3336281939
 O   -0.0645897372    0.0792833925    0.2936868419
 C   -1.3390504349   -0.4994976289    0.1588101164
 C   -1.5280823363   -1.2546816082   -1.1939723414
 C   -1.0094251314   -2.5475970632   -0.5036442435
 C   -1.3673935941   -1.8814897520    0.8557002950
 O   -0.5311828962   -2.0213570423    1.9617362839
 C   -0.5979750183   -3.3013040880    2.5474011642
 H    1.0564449888    1.7027148719   -0.1461590224
 H   -0.1129272212    1.2780037594   -1.4215333446
 H   -0.6786447892    2.0570361346    0.0783578930
 H   -2.1179263680    0.2204795868    0.4501903705
 H   -2.5796836812   -1.3227033193   -1.4853887627
 H   -0.9507577912   -0.8750129205   -2.0387806418
 H   -1.4863114979   -3.4960401490   -0.7593124767
 H    0.0745232794   -2.6400252434   -0.6038921104
 H   -2.4100006381   -2.1251915404    1.1226486459
 H   -1.6185026416   -3.5410863685    2.8879111077
 H   -0.2743497778   -4.0910638314    1.8528001467
 H    0.0707724163   -3.2984462976    3.4113805022