20

 C    0.0218779874    1.5579849346   -0.0709150832
 C   -0.0266207532    0.0314222032   -0.1662500855
 C   -1.4053246831   -0.5426744996    0.1925244317
 C   -1.4695462164   -2.0406290508    0.1080324525
 C   -1.6691022510   -2.8222815171   -1.1611379573
 C   -2.6792910672   -2.9531696555   -0.0345358568
 N   -2.4669274192   -4.0532318292    0.8803658201
 C   -1.3341899261   -3.8327980640    1.4154864822
 O   -0.6556584507   -2.7043290270    1.0843345638
 H    1.0144870781    1.9408134023   -0.3269259689
 H   -0.6999644748    2.0226583334   -0.7521754712
 H   -0.2149274583    1.8995843361    0.9429308758
 H    0.2405925659   -0.2882309399   -1.1812731263
 H    0.7236010416   -0.4077090207    0.5011964110
 H   -1.6853432101   -0.2301484983    1.2068486246
 H   -2.1663158703   -0.1316639437   -0.4827129102
 H   -1.9819396314   -2.2494203703   -2.0275873791
 H   -1.0267534794   -3.6708140465   -1.3718028791
 H   -3.7007334295   -2.6182534853   -0.1708006645
 H   -0.8361954522   -4.4668162516    2.1388505704