21

 C   -0.0108188157    1.5107421041   -0.0406885039
 C    0.0172023172   -0.0083856444   -0.0167377157
 O    0.6756255845   -0.4665150172   -1.1779459914
 C    0.7582188786   -1.8729068146   -1.2606355243
 C    1.4489375348   -2.2630564428   -2.5671810945
 C    1.6708653558   -3.7794305485   -2.6177285293
 C    0.6586779229   -1.7645153861   -3.7831213900
 H    1.0061554243    1.9124852946   -0.0660574475
 H   -0.5425164991    1.8704834584   -0.9262666120
 H   -0.5157632477    1.8980617938    0.8493539206
 H    0.5394821527   -0.3708503355    0.8856171234
 H   -1.0085666210   -0.4136962592    0.0246582900
 H    1.3203039911   -2.2726241335   -0.3985234009
 H   -0.2524202144   -2.3194036150   -1.2204860387
 H    2.4287005327   -1.7667052277   -2.5662754561
 H    0.7158296298   -4.3184001601   -2.6016393891
 H    2.1945188149   -4.0666232744   -3.5348519632
 H    2.2668192250   -4.1300728271   -1.7681791333
 H    1.1941935471   -1.9763097267   -4.7142541936
 H   -0.3186300804   -2.2596778324   -3.8414300204
 H    0.4876647169   -0.6876999355   -3.7179420600