20

 C    0.0061110853    1.5240665772   -0.0066393469
 C    1.5175731572    1.8462747706   -0.0221228117
 C    2.0640915171    1.4564603312    1.3691521704
 C    1.7749310054   -0.0296184027    1.6757547187
 O    0.4795335667   -0.4786564822    1.2779486064
 C    0.0583531306   -0.0139288601   -0.0085208457
 C    1.1335198640   -0.3155775222   -1.0488996404
 N    1.1346983224    0.6200191019   -2.1987049937
 C    2.0477050902    0.8560210888   -1.0587269166
 H   -0.4986232461    1.8991983707    0.8861966727
 H   -0.4968081960    1.9016292350   -0.8965799629
 H    1.7388751545    2.8909818324   -0.2591144942
 H    3.1468318725    1.6186004253    1.4403692682
 H    1.5936114408    2.0988979183    2.1217445982
 H    2.5466305867   -0.6526646084    1.2021315952
 H    1.8283132487   -0.2153772111    2.7527081630
 H   -0.9041503315   -0.4961815112   -0.1937540923
 H    1.4850856502   -1.3329615505   -1.1824598000
 H    1.6653254399    0.1940125114   -2.9550610161
 H    3.1173076115    0.7439784656   -1.2083950123