17

 C   -0.1040936879    1.3993893501    0.0634712659
 N   -0.0363559033   -0.0507408715    0.0182760339
 C    0.5669360034   -0.5989892126   -0.9776192738
 C    1.2245391601    0.0335665567   -2.1180594709
 N    1.7983031758   -0.6312104160   -3.0780998526
 N    1.7732361848   -1.9622058432   -3.0195340502
 C    2.4898632744   -2.6963463374   -4.0498478539
 N    1.2341905813   -2.6942679707   -2.0261198288
 C    0.6594345204   -2.0482241817   -1.0612707978
 H    0.8908225150    1.8682415443    0.1189467959
 H   -0.6173937067    1.8292753044   -0.8109339242
 H   -0.6601588378    1.7040363165    0.9537333260
 H    1.2661655409    1.1118711316   -2.2192309051
 H    3.4670585666   -3.0300112646   -3.6838281378
 H    1.9027693399   -3.5693594989   -4.3389478135
 H    2.6270112193   -2.0309872997   -4.9006870571
 H    0.2206663339   -2.6462873072   -0.2683332363