18

 C   -0.0535398473    1.5319774315   -0.0063573351
 C    0.0405509840   -0.0043311426   -0.0365256533
 C    0.7736620666   -0.4913991083   -1.2995846472
 C    0.6943273481   -0.5325168943    1.2080530291
 C    0.1941531465   -1.3629806004    2.1876161391
 O   -0.9847151735   -1.9811714817    2.4009812950
 N    1.2041993590   -1.5140876084    3.0700293236
 N    2.2991308104   -0.8134234694    2.6739887209
 N    1.9822947180   -0.2305165039    1.5592252064
 H    0.9477517380    1.9672277836    0.0589321682
 H   -0.5371031816    1.9094644742   -0.9131201341
 H   -0.6258727678    1.8782274072    0.8595305291
 H   -0.9860219985   -0.4038323659   -0.0681051361
 H    1.8100487868   -0.1419950489   -1.2891591186
 H    0.7896153382   -1.5841312216   -1.3534139254
 H    0.2878310503   -0.1083594302   -2.2027996381
 H   -1.5818127715   -1.7626504747    1.6769889499
 H    1.2182285443   -2.0522767260    3.9211213268