18

 C    0.5139522678    1.8896378204   -0.6341023418
 C    0.0326416353    0.4565231777   -0.6998849202
 C    0.9226455082   -0.6230039915   -1.2667796353
 N    0.5309788522   -0.6127443979    0.1436277938
 C    1.5777866990   -0.3628917330    1.1259643011
 C    0.4111186609   -1.7105057841   -2.1538803218
 O    1.0191889566   -2.0647067445   -3.1433198073
 C   -0.8656194706   -2.3076536797   -1.7928087360
 C   -1.9275048947   -2.8150813240   -1.5414585910
 H    1.5987855165    1.9680541156   -0.5374407372
 H    0.2220236053    2.4189933570   -1.5463786972
 H    0.0561573557    2.4119374978    0.2132657407
 H   -1.0337870537    0.3560344446   -0.8987227921
 H    1.9361537570   -0.3194901434   -1.5270919087
 H    2.3621647199    0.3336235627    0.7961531533
 H    1.1211772016    0.0365050548    2.0368693689
 H    2.0539674841   -1.3158043362    1.3743358390
 H   -2.8619778612   -3.2690075865   -1.3168300180