17

 C    0.0589902981    1.4500730250    0.0052801288
 C    1.3361334781    0.6245571629   -0.0458508691
 C   -0.0015813984   -0.0432578516   -0.0181666000
 C   -0.6634665880   -0.9077360989    1.0281214211
 C   -1.7025727957   -1.3532918357    0.0698912593
 C   -0.6936396245   -0.9230575529   -1.0714239507
 C   -0.0351958392   -2.2900327907   -0.8117241324
 N   -0.6913485587   -2.3389463855    0.5406609174
 H   -0.1793924454    1.9631178830    0.9318702999
 H   -0.2293401991    1.9945068109   -0.8884409805
 H    1.8965092937    0.6184506504   -0.9758398258
 H    1.9536878533    0.5865800440    0.8458233152
 H   -0.7225325702   -0.7646503554    2.0993839254
 H   -2.7743915990   -1.4831857608    0.1388639831
 H   -0.9184027998   -0.5424792304   -2.0664439574
 H   -0.4487188326   -3.1003743781   -1.4174343650
 H    1.0596413274   -2.3414457963   -0.8072966494