18

 C    0.0829242483    1.5169482698    0.1093896242
 C   -0.0130493844    0.0174339284   -0.0386608106
 C    0.6695696853   -0.6425349112   -1.1698347116
 N    1.2709226306   -0.6830545028    0.2147386462
 C    1.0889160089   -2.1771870365    0.1949862360
 C   -0.2472482433   -2.7531484433   -0.0807902307
 C    0.5203044486   -2.1713662268   -1.2512335770
 C    1.0065081827   -3.0110960839   -2.3483531425
 O    0.9905077393   -4.2229333901   -2.3480015561
 H    1.0288041788    1.8878613267   -0.2939215296
 H   -0.7401728720    2.0078233787   -0.4200054261
 H    0.0309854197    1.8009676869    1.1648434226
 H   -0.9273966655   -0.4096239669    0.3598608197
 H    1.1668922606   -0.0835348310   -1.9581689744
 H    1.9212470401   -2.7707231881    0.5511833567
 H   -0.2457343773   -3.8382244638   -0.1122140288
 H   -1.1794992671   -2.3147898414    0.2533229235
 H    1.4268688967   -2.4445994947   -3.2102609217