18

 C    0.0690931528    1.4251736529   -0.0269018076
 C   -0.0219230803   -0.0600168697    0.0994475526
 O    0.6280629050   -0.9091266813   -0.9620347479
 C    0.0340600906   -1.8912344212   -0.0057930640
 C    0.6340845921   -1.0298131630    1.1437032640
 O    2.0146908633   -0.9837007490    1.2717039408
 C   -1.2165154044   -1.0197238453    0.0443413032
 C   -2.5452715243   -1.0524122882    0.6726116546
 N   -2.3736645699   -1.0624673683   -0.8082503275
 H    1.1120792267    1.7475690136    0.0469979405
 H   -0.3319637973    1.7637987106   -0.9873557934
 H   -0.4943283259    1.9072801048    0.7784769339
 H    0.1507236451   -2.9487434708   -0.2372479259
 H    0.1821187337   -1.0996108040    2.1352259298
 H    2.3440899279   -0.9472553429    0.3607324580
 H   -2.9453240574   -1.9738826096    1.0863086460
 H   -2.9108907305   -0.1455614663    1.1491487802
 H   -2.5765860773   -0.1458115724   -1.2004814371