16

 C   -0.0415046678    1.5349622202    0.0187543057
 C   -0.0438952673    0.0018124066    0.0130349438
 O    0.6674853902   -0.5307673485    1.1235633453
 C   -1.4363862904   -0.5540753146   -0.0468138076
 N   -2.0215381969   -1.1900292265   -1.0166209125
 C   -3.2859310005   -1.4666141600   -0.5336763896
 O   -4.1929613012   -2.1268658391   -1.2745688023
 C   -3.4158717221   -0.9847358003    0.7269023559
 O   -2.2128770055   -0.3850261839    1.0433422821
 H    0.9881791591    1.8967312537    0.0754590506
 H   -0.5082123716    1.9311645955   -0.8882772525
 H   -0.5965231118    1.9176951473    0.8818118053
 H    0.4751099951   -0.3667402181   -0.8754913636
 H    0.1819145120   -0.2924326044    1.9215757976
 H   -3.7651663741   -2.3362306750   -2.1137465512
 H   -4.1880528075   -0.9755312029    1.4727033829