18

 C   -0.1357326055    1.7024895053    0.2414353902
 C    0.0099983186    0.2062340958    0.0507051942
 C   -1.2691493392   -0.5050731338   -0.4070664720
 C   -1.6974587932   -0.0971120141   -1.7419299803
 C   -2.0318396589    0.2448693591   -2.8444053489
 N    1.2835275669   -0.2538113374   -0.4828482358
 C    0.9337462748   -0.6239462426    0.9071218484
 C    1.7859434675   -0.0351315099    1.9777647666
 O    1.8661726305   -0.4948478037    3.0897153144
 H    0.8288385273    2.1697100673    0.4438414799
 H   -0.5457490810    2.1516574219   -0.6682888676
 H   -0.8173040893    1.9268384030    1.0687592980
 H   -1.1098737355   -1.5905467477   -0.3899791709
 H   -2.0712541222   -0.3020568079    0.3144093111
 H   -2.3351266936    0.5418648835   -3.8179121109
 H    1.1664905469   -1.0524154629   -1.1020193174
 H    0.6073689340   -1.6386247138    1.1250176191
 H    2.3577059419    0.8663420180    1.6700095818