17

 C   -0.1955339642    1.4406131002    0.0694584884
 C    0.1059323931   -0.0223841230   -0.0831925649
 N    1.2739808602   -0.4483749337   -0.3284583094
 O   -1.0402836132   -0.7487014528    0.0826402362
 C   -0.9584353161   -2.1627832097   -0.0319597372
 C   -2.3637757019   -2.7198670906    0.1853202113
 C   -2.3612580335   -4.2287209416    0.3092930625
 O   -3.0378218400   -4.9718239632   -0.3510931300
 H    0.7194200186    2.0165835724   -0.0595609153
 H   -0.9377293083    1.7527696140   -0.6717511159
 H   -0.6218801842    1.6381351822    1.0578488955
 H    1.3241870943   -1.4628251530   -0.4064757471
 H   -0.5793383232   -2.4413371577   -1.0242697543
 H   -0.2622446172   -2.5620750552    0.7199416876
 H   -2.7473454568   -2.3081281651    1.1290840539
 H   -3.0383799469   -2.4240087698   -0.6209467646
 H   -1.6710116708   -4.6248597833    1.0911777133