19

 C   -0.1480451144    1.5347594173    0.0793334971
 C   -0.1591601329    0.0131169357   -0.0431323004
 O   -1.4356117951   -0.4476707240   -0.5144586738
 C    0.8798687329   -0.5001454811   -1.0491776694
 C    1.0049897727   -1.9884042484   -1.0959375961
 C    2.0846094492   -2.8363969270   -1.0643012009
 N    1.6861469583   -4.1501405502   -1.1641825778
 C    0.3760315022   -4.1025423237   -1.2532333908
 N   -0.0867376573   -2.8223124182   -1.2252404337
 H    0.8143951342    1.8895214191    0.4615370673
 H   -0.3313730146    1.9995529845   -0.8945006567
 H   -0.9255960404    1.8762792276    0.7721141796
 H    0.0530098992   -0.4368989554    0.9387794604
 H   -2.1046216827   -0.1803113502    0.1234769838
 H    0.6065187313   -0.0962996506   -2.0346500608
 H    1.8571037645   -0.0788459914   -0.7952082104
 H    3.1281457483   -2.5702753445   -0.9792531819
 H   -0.2841392398   -4.9530502484   -1.3379201845
 H   -1.0381497955   -2.4885438911   -1.2053296209