21

 C   -0.0195921680    1.5736332480   -0.0686851569
 C    0.0609740587    0.0453322999   -0.0620025001
 C    0.6416301293   -0.5210794122    1.2473814380
 C    0.7364598546   -2.0189936842    1.2662977042
 C   -0.0237360692   -2.8773286035    2.0252568885
 N    0.3668570577   -4.1674790708    1.7364848847
 C    1.3729728262   -4.1491390212    0.8049224055
 N    1.8921015141   -5.3728484095    0.3279790294
 C    1.6281617012   -2.8320383926    0.4947388136
 H    0.9711096359    2.0241170425    0.0616382998
 H   -0.4343192888    1.9492775055   -1.0096067321
 H   -0.6557856974    1.9407355264    0.7449087210
 H   -0.9359232509   -0.3836461902   -0.2212484054
 H    0.6745865128   -0.2977291318   -0.9041997979
 H    1.6342479190   -0.0778050444    1.4103100960
 H    0.0200353402   -0.1857017469    2.0875044029
 H   -0.7975221088   -2.6775031955    2.7493620631
 H   -0.0704171146   -5.0095776406    2.0675726664
 H    2.3600801056   -5.2345605035   -0.5594514456
 H    2.5704193805   -5.7773653791    0.9680991185
 H    2.3866409820   -2.4837032563   -0.1913074234