15

 C    0.8122368579    1.3452679753    0.1974067251
 C   -0.0163979662    0.0982088627    0.0233198337
 N   -0.2910991495   -0.5875894197    1.1533694305
 N   -0.4935903887   -0.3893451610   -1.0825522177
 C   -0.2870270480    0.2057617190   -2.2773308773
 N    0.3605768497    1.2963912393   -2.6409755524
 C    0.1658273938    1.3032195016   -3.9915839089
 N   -0.5403647098    0.3151617614   -4.4706935961
 O   -0.8498599297   -0.4285544997   -3.3266035516
 H    1.7209654084    1.2747640536   -0.4039381341
 H    0.2682152420    2.2099315941   -0.1883296871
 H    1.0742182088    1.5107059887    1.2452456549
 H    0.0367129612   -0.2844473846    2.0514613210
 H   -0.8423194352   -1.4276361897    1.0837275423
 H    0.5619702254    2.0689579590   -4.6439868622