17

 C   -0.1125979750    1.5492778445    0.1970569054
 C   -0.3046515299    0.1665217268   -0.3948502984
 O   -1.0524704779   -0.6207701842    0.5510816561
 C   -1.3416034973   -1.8778176633    0.1549955024
 C   -2.3752081347   -2.4292158112   -0.5396785985
 N   -2.2126422900   -3.8084276426   -0.6369127874
 C   -1.1013736791   -4.0591428209   -0.0058124119
 O   -0.5314285047   -5.2637707284    0.1806130639
 N   -0.5036958788   -2.9472591206    0.4944092602
 H    0.4506797349    2.1801967218   -0.4967867202
 H   -1.0795202687    2.0216108979    0.3907981029
 H    0.4377075031    1.4936209983    1.1405523514
 H   -0.8570444379    0.2075394671   -1.3420434579
 H    0.6615777460   -0.3186704315   -0.5921173639
 H   -3.2259250954   -1.9272285305   -0.9717826347
 H   -1.1207694983   -5.9029297671   -0.2399952739
 H    0.3204716236   -2.9058720760    1.0693935446