19

 C   -0.2456097288    1.6393034325   -0.0545109571
 C    0.0048243331    0.1374931023   -0.0754317165
 C    0.5879639296   -0.5596255391   -1.3102679922
 C    2.0477149464   -0.2459128480   -1.5992653778
 C    2.7614532331    1.0593892753   -1.4693451095
 O    3.4445375141    1.5021832541   -2.3635792830
 C    1.6952533765   -1.2007220034   -0.4759519664
 C    1.1738446392   -0.5025596958    0.7751450741
 O    2.1117677196    0.3399831593    1.4114468108
 H    0.6479566231    2.2205389964   -0.2892736680
 H   -1.0181802205    1.9079556737   -0.7828228157
 H   -0.6007638849    1.9594845670    0.9320764958
 H   -0.9244026849   -0.3742280886    0.1991771310
 H   -0.0060614767   -1.0175040009   -2.0925288038
 H    2.3862515918   -0.7667969050   -2.4923574037
 H    2.6632283681    1.5845352355   -0.5035094392
 H    2.0714043749   -2.2162491717   -0.4987545144
 H    0.7732475343   -1.2353060229    1.4871130874
 H    1.7108714621    0.6919241292    2.2130236781