13

 O   -0.0861497132   -0.2735156945    0.1505231651
 C    0.5760086556    0.4424544326   -0.5561160101
 C    1.1001068291    1.7638573016   -0.0707986974
 O    2.2392933003    2.2791772314   -0.7427836164
 C    1.0340401351    3.0049167983   -0.9056490045
 C    0.4226249070    3.0053460988   -2.2780470136
 O    0.6274266683    2.1711050000   -3.1270934315
 C   -0.5258014461    4.1692907842   -2.5928262839
 O   -0.7783369450    5.0449469602   -1.8083281512
 H    0.8595947820    0.1836865631   -1.5928870428
 H    1.0725546474    1.8982935512    1.0101301476
 H    0.9689250356    3.9499429160   -0.3715807890
 H   -0.9514755261    4.1119328671   -3.6153197125