16

 C    0.1223962890    1.3973647159    0.1468929519
 O   -0.1194301436    0.0116189153   -0.0559713146
 C    0.5605562815   -0.5471640473   -1.1450037310
 C    2.0165910975   -0.6444756511   -0.8926739292
 N    3.1490253513   -0.7402089781   -0.6839028510
 C   -0.0227847342   -1.9811170823   -1.3531877540
 N    0.0517176531   -2.8485261271   -0.1909112170
 C   -1.4212752445   -1.8434215317   -1.7958928622
 N   -2.5078638996   -1.7175089525   -2.1649013445
 H    1.1790650492    1.5907211342    0.3723638778
 H   -0.1721123090    1.9823440485   -0.7348267067
 H   -0.4896984301    1.6964517645    0.9987370970
 H    0.4112144638    0.0465976116   -2.0605879985
 H    0.5364354632   -2.4484739349   -2.1718055776
 H    1.0230460833   -3.0608832593    0.0156801706
 H   -0.3386471410   -2.3688094856    0.6147290090