18

 C    0.0505451553    1.4613854723   -0.3128611876
 N    0.0321131705    0.0254945900   -0.0292823421
 C   -1.0663802682   -0.4911437870    0.8969461515
 C   -0.1084867390   -1.7010089540    1.0599338894
 O   -0.0931262450   -2.8856712657    1.1007022133
 C    0.8088380351   -0.4566174832    1.1937376196
 C   -0.3102515799    0.0679311487    2.1289573631
 C   -0.4633027772    1.3040402321    2.9521925475
 C   -0.5407464282   -0.0671130668    3.6010254874
 H    1.0129795945    1.7054079985   -0.7736136110
 H   -0.7309331271    1.6733301581   -1.0494011647
 H   -0.0983379931    2.1192729399    0.5520525140
 H   -2.1236941333   -0.4405763507    0.6427578511
 H    1.8904465700   -0.3666701351    1.2780782229
 H    0.4176496767    1.9082408921    3.1436481863
 H   -1.3814325937    1.8751152541    2.8589085301
 H   -1.5109248257   -0.4158270539    3.9392476048
 H    0.2895041284   -0.3826790793    4.2241978844