19

 C   -0.3014061160    1.5669956696    0.0971502891
 C    0.0263036156    0.0789183869    0.0479033007
 C    1.1384909555   -0.4438414046   -0.9200316064
 C    1.7995017197   -1.1944133745    0.2371636987
 C    2.2752623096   -2.5776700807    0.2039550204
 O    2.3330037620   -3.2633729956   -0.7916003861
 C    2.1830023456   -0.2332882857    1.3466276177
 O    2.6469290184    1.0523569710    1.0678053875
 C    0.7489973897   -0.5673300328    1.2439641065
 H    0.5975765445    2.1621894712    0.2658153974
 H   -0.7624654082    1.8875075085   -0.8437313463
 H   -1.0111145163    1.7833775734    0.9035009060
 H   -0.8896300764   -0.4902303442   -0.1386502026
 H    0.7718116066   -1.1171575392   -1.6950122157
 H    1.7628941466    0.3278440406   -1.3775483363
 H    2.5870406777   -2.9789331531    1.1977290521
 H    2.6844723008   -0.7216649873    2.1847151948
 H    3.5424482167    0.9799048734    0.7192653530
 H    0.2491079580   -1.0819910470    2.0576194895