13

 C   -0.0544617693    1.5421354343   -0.0445116499
 C   -0.0372729961    0.0329248256    0.0502561548
 O    1.2394670372   -0.5966847976   -0.1617718301
 C    0.6915455514   -0.6684199343    1.1496171974
 C    1.3682695022    0.0753488234    2.1902332099
 N    1.8906486871    0.6590166794    3.0401844227
 C   -1.1657173696   -0.6537300250   -0.5335687402
 C   -2.1187481309   -1.1954017427   -1.0249830628
 H    0.8220508098    1.9687554668    0.4462682924
 H   -0.0551200886    1.8423013290   -1.0957668916
 H   -0.9580404488    1.9395921815    0.4257759715
 H    0.3425806710   -1.6525427506    1.4553370797
 H   -2.9572405554   -1.6812898198   -1.4610180739