17

 C   -0.0983368694    1.5614774097    0.0122857216
 C    0.0207514815    0.0548502093    0.0649983264
 C    1.3340741302   -0.6679577637   -0.2367108178
 C    2.5345118985    0.0860219648   -0.4138428576
 N    3.5040591822    0.7136742896   -0.5051674808
 C    0.6998909726   -0.6593567764    1.2045684299
 N    1.2710394489    0.1024410065    2.2800997889
 C    0.1565549166   -1.9254097275    1.6235870572
 C   -0.2791260655   -2.9921131618    1.9657609624
 H    0.8395937906    2.0674799497    0.2528805076
 H   -0.3846250013    1.8784842516   -0.9950933084
 H   -0.8649804240    1.9090970694    0.7108871078
 H   -0.8434296968   -0.4716344086   -0.3274792907
 H    1.2819852160   -1.5947066918   -0.7958823453
 H    1.9732771260   -0.4513895410    2.7611193665
 H    1.7333555621    0.9382220768    1.9388926710
 H   -0.6737420085   -3.9286307867    2.2746342712