19

 C   -0.0234083581    1.5532406751    0.1015004985
 C   -0.0586947895    0.0392585307    0.0438567310
 C   -1.3810398085   -0.5221016841   -0.4584158930
 O   -1.6792499139   -0.0832129530   -1.7765494864
 C    1.1992977448   -0.7119439597   -0.3166724356
 C    0.7226833553   -0.7398265365    1.1240228462
 N    1.5166796113   -0.0988294144    2.1426481340
 C    0.1394722056   -1.9816626003    1.5957701992
 N   -0.3460726565   -2.9593481217    1.9788847971
 H    0.9646246373    1.9411545120    0.3588993529
 H   -0.3090536501    1.9567674227   -0.8735617366
 H   -0.7394638501    1.9334183331    0.8394635224
 H   -1.3873917511   -1.6175239271   -0.3890164688
 H   -2.2019110485   -0.1515334081    0.1652167047
 H   -1.0321799918   -0.4772289163   -2.3710980669
 H    1.1210377413   -1.6329027078   -0.8848509131
 H    2.1067324665   -0.1474524403   -0.5089070454
 H    2.2534635222    0.4676378098    1.7444300604
 H    0.9515149239    0.4864835960    2.7482763393