23

 C    0.3781408940    1.8422988167   -0.2053688856
 C    0.3794974871    0.3287609929    0.0434617678
 C    0.7493500751   -0.4757415574   -1.1993314893
 C    0.8000260058   -2.0398214126   -1.1670405737
 C    0.0090879464   -2.7333174439   -0.0603884718
 C    0.1137509438   -2.0567375682   -2.5642762744
 C   -0.2365219904   -0.5464420275   -2.4357816304
 C   -1.6785165202   -0.2580557191   -2.1068164152
 O   -2.2320254871    0.7903321513   -2.3299315659
 H    1.3629778259    2.1842599726   -0.5432783950
 H   -0.3539746039    2.1169728743   -0.9702681797
 H    0.1309449124    2.3906559322    0.7087388287
 H    1.0991852697    0.0879524579    0.8372879245
 H   -0.6012152779    0.0195118404    0.4244088020
 H    1.7068326688   -0.1002888634   -1.5775316611
 H    1.8207378601   -2.4346154723   -1.1654257484
 H   -1.0365357125   -2.4079820708   -0.0293245639
 H    0.0070810943   -3.8172495729   -0.2189948954
 H    0.4442890182   -2.5412869309    0.9257333411
 H    0.8027457969   -2.2533314829   -3.3883146404
 H   -0.7405810105   -2.7345474950   -2.6647156195
 H    0.0445892688    0.1009069723   -3.2690783442
 H   -2.2355949750   -1.0949756637   -1.6224799303