25

 C   -0.3502615881    1.4606762019    0.4683770658
 C   -0.1288443357   -0.0192727445    0.1377987395
 C    0.8413414866   -0.6739810127    1.1077065992
 O    0.3412508883   -0.6733113613    2.4668842886
 C    0.6046166656   -2.0884959110    2.6261067270
 C   -0.6009906680   -2.8404721621    3.1661705880
 C   -0.9895415559   -2.3585027899    4.5680589694
 C    1.0275643281   -2.2185482598    1.1343697635
 C    0.1859874829   -3.0805814998    0.2001416880
 H    0.5837173496    2.0282570072    0.3903298961
 H   -1.0766181084    1.9148824506   -0.2121166732
 H   -0.7232411353    1.5689845897    1.4906443065
 H   -1.0873254408   -0.5489090414    0.1660911714
 H    0.2670074535   -0.1253527506   -0.8809861325
 H    1.8047375462   -0.1420021573    1.0622548048
 H    1.4540967555   -2.2371600214    3.3112934922
 H   -1.4488405221   -2.7093597869    2.4850237684
 H   -0.3668661900   -3.9131795354    3.1851174091
 H   -1.2011451930   -1.2856916933    4.5548844930
 H   -1.8791045268   -2.8795158948    4.9343809035
 H   -0.1795877109   -2.5317177415    5.2853646218
 H    2.0769704207   -2.5072947351    1.0289776151
 H   -0.8799837887   -2.8457836766    0.2524043058
 H    0.5038566481   -2.9466472757   -0.8392173938
 H    0.3035339387   -4.1417048881    0.4439605725