17

 C   -0.3545576500    1.4130515913    0.0132938983
 N   -0.0182765742   -0.0038093753   -0.0234908382
 C    0.0071674591   -0.6993983187   -1.2302513955
 C    0.3035733416   -1.9946612022   -1.3562100696
 C    0.6464947583   -2.8439683355   -0.1731903131
 C    0.6247727211   -2.1039666568    1.1527686487
 O    0.8800526288   -2.6541879160    2.1981346520
 C    0.2702384907   -0.6154327672    1.1805414103
 N    0.2397971925    0.0455578897    2.2741853079
 H    0.4691464581    1.9906023218    0.4432022860
 H   -0.5560845086    1.7579352280   -1.0015774304
 H   -1.2338307525    1.5813833729    0.6421623728
 H   -0.2405009005   -0.0885803775   -2.0899463054
 H    0.2962193998   -2.4450650766   -2.3405808086
 H   -0.0360336048   -3.7001551349   -0.0709817107
 H    1.6439790997   -3.2970307018   -0.2684980942
 H    0.4833844308   -0.5977290213    3.0305875096