20

 C   -0.0071508130    1.5167924861   -0.1456365209
 C    0.0229872546    0.0213584975    0.0648804169
 N    1.3382543711   -0.6499848213   -0.0259632869
 C    0.6053430355   -0.6388874113    1.2566097075
 C    1.2924866142    0.0826797183    2.4175552695
 C    1.9015409321   -1.0613842787    3.2468467916
 C    0.9840942705   -2.2661194026    3.0085235033
 O    0.9880638195   -3.2959716453    3.6300018033
 C    0.0496485244   -1.9307041637    1.8356878729
 H    0.8609049398    1.9979078312    0.3101915506
 H    0.0025615708    1.7535497871   -1.2147976978
 H   -0.9139223318    1.9534142238    0.2872748992
 H   -0.8169400281   -0.5066986232   -0.3879646964
 H    1.2402074446   -1.5530741327   -0.4844715709
 H    2.0363034443    0.7967362786    2.0633259131
 H    0.5494275999    0.6294673570    3.0110994491
 H    2.8930471013   -1.3337655782    2.8625169674
 H    2.0144297054   -0.8591299921    4.3142300893
 H   -0.9566595138   -1.7814283946    2.2513234531
 H   -0.0176058313   -2.7619852459    1.1279508861