17

 C   -0.0343664324    1.4785779275   -0.0547796060
 C   -0.0045879779   -0.0121746444    0.0259823601
 N   -0.0003062300   -0.7643300930   -1.0650386904
 N    0.0288777479   -2.0386032035   -0.6044623195
 C    0.0433218674   -2.1329583662    0.7441546297
 C    0.0765240006   -3.4259363524    1.4857137969
 C    0.0224556653   -0.8202112186    1.2053791680
 C    0.0262930691   -0.3910559833    2.5496440874
 C    0.0290878580   -0.0121696928    3.6942223579
 H    0.8462428064    1.9184888316    0.4255138903
 H   -0.0582877455    1.7941771220   -1.0995690141
 H   -0.9138380556    1.8848097740    0.4561396648
 H    0.0364629298   -2.7936454446   -1.2692687076
 H    0.9824108230   -4.0004933708    1.2608859637
 H    0.0593853382   -3.2275407930    2.5590631412
 H   -0.7859811059   -4.0565583830    1.2419694809
 H    0.0317677017    0.3228260704    4.7013261169