19

 O   -0.1746715370    0.2133158612   -0.7911449881
 C   -0.0428432431    1.2579568930   -0.2010832735
 C    1.2375368644    1.9766196146   -0.0340207444
 C    1.2032190994    3.5005892183    0.0535496304
 C    1.5447191361    2.7091401813    1.2696895835
 C    0.5991745774    2.6875972063    2.4855817407
 C    1.5189896045    3.0621694146    3.6229699538
 C    2.7994365908    3.0743516516    3.2589628107
 C    2.9867437195    2.7118726410    1.8061720355
 H   -0.9203106571    1.7673491778    0.2636547088
 H    2.0748346399    1.5156703709   -0.5484804348
 H    1.9889310715    4.0373019255   -0.4675437613
 H    0.2253147732    3.9719478123    0.0054903518
 H   -0.2408163352    3.3835435948    2.3719861917
 H    0.1576480094    1.6958202102    2.6571157753
 H    1.1485012832    3.2624147933    4.6218922879
 H    3.6362114694    3.2872555653    3.9144419899
 H    3.4638516512    1.7265889427    1.7054073504
 H    3.6261106126    3.4216937453    1.2669537416