18

 C    0.2891722475    1.5975925208   -0.0418193229
 C    0.0340561266    0.1164391630    0.1007271357
 O    0.8030711979   -0.6910819078   -0.8457288596
 C    1.2497798811   -1.5941637866    0.1906243149
 C    2.6385676015   -1.2057937483    0.7627002635
 N    1.9981407474   -0.1930590046    1.6510096396
 C    0.6423135676   -0.6611545626    1.2879759659
 C    0.9395209742   -2.9791946258   -0.0489586607
 C    0.6931649557   -4.1426262521   -0.2284301044
 H    1.3294389061    1.8260326977    0.1984677568
 H    0.0745406955    1.9171261363   -1.0662423004
 H   -0.3623023509    2.1624572474    0.6341564360
 H   -1.0338969134   -0.1160386168   -0.0176562547
 H    3.1164552632   -2.0356672944    1.2950253666
 H    3.3325658067   -0.7864235843    0.0283110791
 H    2.2171572649   -0.3233037840    2.6302783562
 H   -0.0100445161   -0.9831837047    2.1000104148
 H    0.4715489647   -5.1676456831   -0.3969274664