20

 C   -0.1656810794    1.5724784169   -0.0032402413
 C    0.0278325557    0.0577917480    0.0058127681
 C    0.8878903123   -0.5102989848   -1.1486106437
 N    1.5891992999   -1.7049871876   -0.6154431222
 C    2.5553531644   -1.4570143827    0.4693462634
 C    2.2961559980   -0.1329537045    1.1986591017
 C    0.7715539772   -0.5173950201    1.2249333172
 O    0.1019330829   -0.4512301184    2.4511448015
 C    1.1756870760   -1.9434472746    0.7607605002
 H    0.7909391243    2.1049865045    0.0306333937
 H   -0.6934224976    1.8973837521   -0.9055809700
 H   -0.7671353116    1.9016048200    0.8527613299
 H   -0.9596409268   -0.4226452456   -0.0125326337
 H    0.2787686328   -0.8187155609   -2.0029670148
 H    1.6197175197    0.2189171754   -1.5142352716
 H    3.4943141272   -1.9981261266    0.4306833052
 H    2.6985862062   -0.1650698113    2.2141973076
 H    2.6019575794    0.7996024429    0.7127796824
 H   -0.0301604020    0.4758735975    2.6769420313
 H    0.7785474415   -2.8956278402    1.0908827653