19

 C    0.1374402820    1.4278438410    0.4264118917
 C   -0.0884277601   -0.0815305153    0.3356941904
 O   -0.2976458938   -0.6582190818    1.6148820779
 C   -1.2424605314   -0.4194161838   -0.6378944361
 C   -1.4615801012   -1.8506602089   -0.7998581577
 C   -1.6221979159   -3.0350039554   -0.9449409174
 C   -1.8332827295   -4.4722726833   -1.0331240318
 C   -2.1026833675   -5.0975358875    0.3382342481
 O   -2.8872775552   -5.9880665675    0.5212314585
 H    0.9441208759    1.6434356722    1.1314701325
 H    0.4025712034    1.8525357695   -0.5472006486
 H   -0.7690490099    1.9369807714    0.7777911405
 H    0.8221074395   -0.5645311886   -0.0359883977
 H   -1.0814512723   -0.2504123746    2.0003854246
 H   -2.1613048524    0.0627277056   -0.2723385121
 H   -1.0295306753    0.0381215767   -1.6128953320
 H   -2.6616988373   -4.7375010915   -1.6982700014
 H   -0.9337916984   -4.9659591498   -1.4329437419
 H   -1.4969949707   -4.6629697284    1.1623380624