20

 C    1.3381898276   -0.4472594166    1.4437308329
 C    0.4158135745    0.0820029537    0.3384557077
 C    0.8722685671   -0.3037632067   -1.0371046260
 N    2.2092744187    0.0442877091   -1.6263348885
 C    2.4216675057    1.4621592139   -1.9054186068
 C    1.5614906040   -0.7263109504   -2.7248000269
 C    0.9025462671   -1.7093701930   -1.7215153455
 O   -0.4339312591   -1.6017567150   -2.2860128231
 C    0.0959633142   -0.2519070058   -2.4162500301
 H    1.3606135747   -1.5416888007    1.4456457462
 H    2.3639220109   -0.0966384204    1.2984477858
 H    0.9969983240   -0.1161247577    2.4287944795
 H   -0.6028501710   -0.3031670677    0.4692701417
 H    0.3443043599    1.1757666888    0.3995227382
 H    2.6599320302    1.9858154599   -0.9740603750
 H    3.2807081968    1.5722018479   -2.5752281899
 H    1.5585629743    1.9686532743   -2.3716337814
 H    2.0374319893   -0.9336037608   -3.6840077201
 H    1.2512149519   -2.6705121094   -1.3472783814
 H   -0.5458700110    0.5022463365   -2.8717049373