19

 C    0.0467998598    1.4378484303   -0.2137458702
 C    0.0230624997   -0.0065105406   -0.0598801005
 C   -0.0160559189   -1.2062964342    0.0676904010
 C   -0.0617650172   -2.6468845239    0.2260259002
 O   -1.1113743778   -3.2271016452    0.4484429470
 C    1.2473447723   -3.3417487482    0.0896807408
 C    1.3986575697   -4.7276144399    0.6948117717
 C    1.3689073107   -4.6000950973   -0.7903027413
 C    0.2188205305   -5.1271577698   -1.6169419485
 H    1.0666130100    1.8325685874   -0.1582373385
 H   -0.3740176266    1.7284802009   -1.1827714811
 H   -0.5506702585    1.9245273098    0.5646021082
 H    2.1109246765   -2.6868830717    0.0945001866
 H    2.3332789920   -4.9525582318    1.1961291666
 H    0.5047721037   -5.1104561644    1.1760731589
 H    2.3365993723   -4.6598234354   -1.2823518435
 H   -0.7329676530   -4.9989575603   -1.0987629427
 H    0.1565024734   -4.6115308815   -2.5812742026
 H    0.3616325611   -6.1946137241   -1.8182418322