17

 C   -0.0511899442    1.4919320283   -0.0297080634
 C    1.2301413247    2.3144144875    0.1667228585
 C    2.1576166230    1.7807320954    1.2629229001
 O    2.7102377458    0.5251867827    0.8728256549
 C    2.0074136559   -0.6035340882    1.3150226241
 O    0.6180654987   -0.5186435299    1.1536441455
 C    0.1787736115   -0.0205508597   -0.1084496933
 H   -0.7396471942    1.6701224479    0.8056320239
 H   -0.5661427884    1.8239422640   -0.9398286231
 H    1.8086913490    2.3305158880   -0.7652314769
 H    0.9684727180    3.3553445764    0.3941452546
 H    3.0062766249    2.4596535279    1.3979059990
 H    1.6338928079    1.6961690833    2.2248730224
 H    2.4362826070   -1.4388537277    0.7410470511
 H    2.1505626695   -0.7794353312    2.3919183144
 H   -0.7649865961   -0.5313391480   -0.3270594860
 H    0.8949926270   -0.2762577568   -0.9011847858