20

 C   -0.0145855385    1.5430646873   -0.0965814163
 C   -0.0086940628    0.0883884100   -0.0402575831
 C   -0.0132314809   -1.1149506987    0.0133626756
 C   -0.0112504130   -2.5641001424    0.0737949149
 C    0.3080750266   -3.2834982775    1.4475682078
 C   -1.0316886079   -4.0279458527    1.3295333604
 C   -1.3314785804   -5.4177688668    1.7968893281
 N   -2.0595982678   -2.9564113499    1.3236402975
 C   -1.3600206890   -3.3117168496    0.0656213666
 H    1.0038565494    1.9478024691   -0.1071580396
 H   -0.5217032620    1.9057470877   -0.9979549174
 H   -0.5322792909    1.9728978891    0.7683046534
 H    0.6400044939   -2.9741059877   -0.7052924108
 H    1.1833635713   -3.9328403433    1.3754170640
 H    0.3970397012   -2.6265307597    2.3143179545
 H   -1.4022014699   -5.4611581844    2.8903743822
 H   -2.2822381244   -5.7756456241    1.3861654052
 H   -0.5473049484   -6.1170355789    1.4869319138
 H   -2.9702393953   -3.4159384113    1.2885660895
 H   -1.9172099312   -3.6320669660   -0.8072597364