23

 C    0.0179909000    1.5178022271   -0.0931308875
 C    0.0032006418   -0.0196614498   -0.0015182231
 C   -1.4464182245   -0.5151520301   -0.0576278590
 C    0.8734182004   -0.5881266665   -1.1641958428
 C    2.2453993254   -0.7142266154   -0.5538492601
 C    2.1987564710   -0.6426798657    0.7739950885
 C    0.7730227440   -0.5151774397    1.2792570856
 C    0.6305083289    0.3541183325    2.5297850465
 O    0.2560247279   -1.8295718242    1.5801098424
 H    1.0372509304    1.9159509882   -0.0665287359
 H   -0.4405042123    1.8357128921   -1.0353067252
 H   -0.5507667977    1.9808349611    0.7185401621
 H   -1.9219051432   -0.1789888528   -0.9858651022
 H   -1.4960830297   -1.6037895298   -0.0146709008
 H   -2.0361055751   -0.1183809108    0.7761321623
 H    0.5099977152   -1.5713640300   -1.4917816755
 H    0.8536038242    0.0623623936   -2.0465068178
 H    3.1417613604   -0.8729521301   -1.1443143342
 H    3.0446492496   -0.7283541384    1.4496500862
 H    1.0547517142    1.3520635287    2.3919870833
 H   -0.4203142914    0.4535208690    2.8175979712
 H    1.1596966890   -0.1171879938    3.3664835989
 H    0.8746324415   -2.2517604851    2.1851712870