19

 O   -0.4197370376    0.2162125344    0.2812335560
 C   -0.0145989468    1.3435662762    0.1637842356
 C    1.4059818793    1.7126675290   -0.2253290862
 C    1.4372393429    2.7205265480   -1.3512873890
 C    0.9888762935    2.3396663106   -2.7554434949
 C    1.3899081201    3.5558911790   -3.6243707525
 C    2.6066851054    4.1929677805   -2.9078239551
 C    2.3949363019    3.8315163724   -1.4527116368
 O    1.0520310230    4.0640554410   -0.9938906943
 H   -0.6761898908    2.2192668633    0.3466321166
 H    1.8791218207    2.1601663802    0.6584717549
 H    1.9464311771    0.7985592171   -0.4887167769
 H    1.5251336288    1.4321143206   -3.0596497438
 H   -0.0816351199    2.1173475866   -2.8121702575
 H    1.6110393284    3.2769041771   -4.6569035581
 H    0.5667040786    4.2725681787   -3.6453912555
 H    3.5526778705    3.7515411249   -3.2456114707
 H    2.6719438848    5.2729340554   -3.0711090397
 H    3.1733614001    3.9999755649   -0.7116777021