16

 C   -0.6900805324    0.7184040598   -0.1283890114
 N    0.6749767623    0.1663694492   -0.1291799744
 C    1.0789040353   -0.5103168179    1.0253381351
 C    1.8843185915   -0.1513359527    2.0757483443
 C    1.9178851177   -1.2990158735    2.9140089250
 N    1.1931704604   -2.2941794954    2.4475525012
 N    0.6857656326   -1.8202954185    1.2694254831
 C   -0.0279066429   -2.6476720760    0.3895415835
 O   -0.3659838381   -3.7709310136    0.6317070435
 H   -0.8628919124    1.4419014441    0.6809149300
 H   -0.8690236196    1.2078838997   -1.0887081981
 H   -1.4174040395   -0.0899094857   -0.0224354747
 H    1.3458848654    0.8918966477   -0.3483394539
 H    2.3630473508    0.8025054485    2.2297504581
 H    2.4435805150   -1.4193294188    3.8511851947
 H   -0.2192312461   -2.1229302070   -0.5604806661