19

 O   -0.0016988930    1.3875854189   -0.3339862024
 C    0.0270183545    0.0251259999   -0.0392218892
 C    0.6288884173   -0.9335839093   -1.0998490096
 C   -0.6862280213   -1.7676381382   -1.1042693013
 C   -1.3291538329   -0.8039614311   -0.0549013865
 C   -1.0443088767   -1.2292469227    1.4220747425
 C    0.2690370667   -0.3927007052    1.4349868969
 C   -2.6136426504   -0.2375695519   -0.3576094460
 C   -3.6917627568    0.2339519062   -0.6108210708
 H    0.8991309581    1.7279882873   -0.2836718329
 H    0.8012302015   -0.4171053465   -2.0468323911
 H    1.5426996816   -1.4593727361   -0.8090500601
 H   -1.2054927424   -1.7569925530   -2.0632131830
 H   -0.5990993826   -2.8027473952   -0.7651645851
 H   -1.7990231042   -0.8661875581    2.1205980155
 H   -0.9282155502   -2.3067600585    1.5616598821
 H    1.1961964546   -0.9374366928    1.6342874371
 H    0.2111635794    0.4686816131    2.1042126536
 H   -4.6385264833    0.6581377530   -0.8354102999