18

 C    0.0213792888    1.4421967351   -0.1777077048
 C    0.0367368893   -0.0115517744   -0.0952301751
 C    0.0629884736   -1.2136421539   -0.0271794559
 C    0.0517586034   -2.6707517412    0.0549913728
 C   -1.3645996694   -3.2449705239    0.1816728129
 C   -2.2469153449   -3.1684996977   -1.0833755390
 O   -2.2574212963   -4.6061416274   -1.2185066775
 C   -1.4947131041   -4.7726755681   -0.0073746343
 H    0.6358843933    1.8926445973    0.6096841597
 H    0.4098213788    1.7914164890   -1.1408374377
 H   -0.9950407453    1.8366878072   -0.0691166085
 H    0.5314503430   -3.0977598209   -0.8366443586
 H    0.6539548425   -3.0024373941    0.9117838568
 H   -1.8417588467   -2.8572462904    1.0838521818
 H   -3.2559178069   -2.7642142859   -0.9358430046
 H   -1.7892662247   -2.6734029872   -1.9490265830
 H   -0.5536328031   -5.3117596800   -0.1823677620
 H   -2.0643752312   -5.3000345135    0.7684478071