17

 C   -0.2331947801    1.5857043358   -0.0630231779
 C   -0.0337156165    0.0969636301   -0.0275750339
 C   -0.0228841953   -0.6240992059    1.3006402674
 C    1.3252451009   -0.4808581635    2.0481019464
 O    1.6650248055    0.8542874372    2.3767961323
 C    1.3261929442   -1.3330649837    3.2555232191
 N    1.2966522544   -1.9748564929    4.2160370470
 N    0.1409079841   -0.6641287134   -1.0410426101
 O    0.1557235519    0.0324875735   -2.2537239151
 H    0.6198169975    2.0859147874    0.4059624848
 H   -0.3479940658    1.9448137422   -1.0841912745
 H   -1.1226761905    1.8580651564    0.5167431452
 H   -0.8244185552   -0.2487895784    1.9492202555
 H   -0.2021056927   -1.6883263213    1.1268243719
 H    2.1250029463   -0.8290699678    1.3862029070
 H    1.0423583146    1.1719552981    3.0413982875
 H    0.2527458867   -0.6800669139   -2.8941727725