20

 C   -0.3926272094    1.4293822722   -0.1736990552
 C    0.1154193556   -0.0121288375    0.0030284370
 C    0.9309695274   -0.4997083956   -1.1450308136
 C    2.2258012651   -0.8944827099   -1.2719203048
 C    2.4291107595   -1.2538960767   -2.6504325686
 C    3.6830122407   -1.7550940933   -3.2932048262
 C    1.2331316412   -1.0461494574   -3.2657881146
 N    0.8445017982   -1.2255759675   -4.5969887261
 O    0.3047013113   -0.5834365540   -2.3549394740
 H    0.4434969674    2.1294219107   -0.2651167038
 H   -1.0031800144    1.5153340427   -1.0767710720
 H   -1.0031920837    1.7339985947    0.6818016413
 H    0.7301705151   -0.0866487144    0.9059499229
 H   -0.7437645682   -0.6795149462    0.1535952952
 H    2.9572987109   -0.9321620833   -0.4782228996
 H    4.0339801652   -2.6812870687   -2.8231550906
 H    3.5093783080   -1.9540365848   -4.3533313826
 H    4.4982024940   -1.0265392978   -3.2103732675
 H    0.0705344614   -1.8776139093   -4.6838888135
 H    0.5583003149   -0.3541425841   -5.0337175433