18

 O   -0.0308950516   -0.0093999855   -0.2118716918
 C   -0.0054122745    1.1776030749    0.0026737285
 N   -1.0869535310    1.9589127425    0.2782633487
 C   -1.0902614587    3.4123371880    0.1443050638
 C   -0.9264688794    3.9400305781   -1.2949179441
 O    0.3900167995    3.9361400008   -1.8126332021
 C    0.9031783823    2.6999958536   -2.2741189763
 C    1.8052785402    2.0272036293   -1.2361875166
 O    1.1402571822    1.9362450863    0.0227091122
 H   -1.9685297634    1.4705956355    0.2512926979
 H   -2.0536744982    3.7667969510    0.5256324788
 H   -0.3053773549    3.8385275625    0.7729767965
 H   -1.6056596693    3.3867571943   -1.9636087953
 H   -1.2325598307    4.9924031818   -1.3033865590
 H    0.0861706744    2.0222989186   -2.5623918223
 H    1.4970891166    2.9007614566   -3.1745730529
 H    2.1168108586    1.0358689363   -1.5879329033
 H    2.6906553780    2.6377467054   -1.0464560727