19

 C    0.2507585961    1.4601268941    0.0086836031
 C    0.0223056980   -0.0197595508    0.0039927367
 C   -0.2522682043   -0.8228954373   -1.0821009495
 N   -0.4066965828   -2.1069932235   -0.6473619072
 C   -0.2114419077   -2.1690075767    0.7236728470
 C   -0.2806459099   -3.4665192610    1.4459895615
 O    0.6382035069   -4.4418519670    0.9404286131
 C    0.0511353231   -0.8780931492    1.1480833391
 N    0.3684087280   -0.4463252442    2.4523657674
 H    1.2277684712    1.7196557051    0.4347981490
 H    0.2134802650    1.8673155854   -1.0057786519
 H   -0.5054612835    1.9971034156    0.5983081101
 H   -0.3487344057   -0.5672259024   -2.1259239244
 H   -0.4954623425   -2.9197409494   -1.2313748432
 H   -0.1262487734   -3.2938433295    2.5223292005
 H   -1.2636975230   -3.9431327203    1.3398494139
 H    1.5038554405   -4.0186201897    0.9186038294
 H    0.0224818514   -1.0726662423    3.1680470475
 H    0.0084602629    0.4814623830    2.6408317778