14

 C   -0.0607723711    1.3350204080   -0.0736407665
 C   -0.0708274631   -0.1780106912   -0.0224516951
 O    0.8456542212   -0.8825725319   -0.3629299482
 N   -1.2382369875   -0.7177479253    0.5497961287
 C   -2.5974259127   -0.5529291875    0.1016087776
 C   -1.9165650838   -1.9065525488    0.0890791555
 C   -1.5920822870   -2.4994866592   -1.1895645688
 N   -1.3831308846   -3.0001371670   -2.2099083143
 H    0.9555449883    1.6759230444   -0.2687109723
 H   -0.7121655105    1.6868946672   -0.8814977568
 H   -0.4326118707    1.7628562517    0.8611395379
 H   -3.3414347322   -0.3436688976    0.8654158602
 H   -2.7738406443   -0.0905166927   -0.8666592561
 H   -2.1664619321   -2.6298522299    0.8605223581