17

 C   -0.0727380199    1.6767438355    0.1847786891
 C   -0.0569852892    0.1669707336    0.0622532459
 C   -1.3740185649   -0.4538415834   -0.4048966487
 C   -1.7302444777   -0.0414299286   -1.7641252824
 N   -1.9959533312    0.2932564804   -2.8374646031
 C    1.2126216709   -0.5236561676   -0.3370167868
 C    0.7077385987   -0.6616002169    1.0949089960
 C    1.4066598744   -0.0173785178    2.1706466467
 N    1.9647584175    0.5055112761    3.0388300316
 H    0.8834065354    2.0557848706    0.5518547396
 H   -0.2727919412    2.1340164096   -0.7891296858
 H   -0.8512298051    2.0053394448    0.8817312445
 H   -1.3155009868   -1.5476111002   -0.3832686975
 H   -2.1879830822   -0.1654436813    0.2709800491
 H    1.1610047804   -1.4117550280   -0.9569899203
 H    2.0936053722    0.0872723198   -0.4939383036
 H    0.2785737087   -1.6202341165    1.3687343656