17

 O    1.7036339828   -0.4724900069   -0.4113776800
 C    1.0107756461    0.5052916811   -0.5267484339
 C    1.3808805360    1.8809414586   -0.0074587445
 C    1.4389958723    2.8921958756   -1.1419111396
 C    2.4116485744    3.9997719276   -1.2553915012
 C    3.7928454855    3.6371079395   -0.7149737466
 C    3.7430655113    2.4173567807   -1.6688245955
 N    2.4154348761    2.8440021087   -2.2523404106
 H    0.0304493652    0.4546569045   -1.0538747177
 H    0.5987541458    2.2058947140    0.6924861002
 H    2.3165808789    1.7992074945    0.5473116011
 H    0.4557911072    3.1286568170   -1.5459441152
 H    2.1008902488    4.9992587816   -1.5457733221
 H    4.5573574582    4.3607563400   -1.0020442058
 H    3.8734183768    3.4576049865    0.3616133824
 H    4.5005284641    2.4473817228   -2.4535781079
 H    3.7365019004    1.4178438642   -1.2257920430