16

 C    0.0505095408    1.5096609545    0.0010785711
 C   -0.0853943552    0.0280572184    0.0556798563
 C   -1.1546398114   -0.7197892476   -0.2614227605
 N   -1.1804640797   -2.1003185105   -0.1832418932
 C   -0.0943673965   -2.6834660364    0.2178168882
 N    0.0121575420   -4.0306665619    0.2946834140
 C    1.1303286642   -1.9452659279    0.6119381316
 N    2.1603642420   -2.5591582406    1.0362253482
 O    1.0681325119   -0.5914374684    0.4968424570
 H    0.8568424315    1.8096591139   -0.6786081674
 H   -0.8816354502    1.9584608339   -0.3482259521
 H    0.2878098289    1.9237554380    0.9881362321
 H   -2.0646243107   -0.2411323443   -0.6034753088
 H   -0.8201369894   -4.5844078206    0.1880055438
 H    0.8263252436   -4.4063708176    0.7526645510
 H    2.9097224503   -1.9085887132    1.2720500331