19

 C    0.0722233549   -1.1543989258   -0.0057050398
 C    0.0601052507    0.0461510948    0.0016355757
 C    0.0080394474    1.5012485683    0.0109492934
 O    1.3276112717    2.0294565702   -0.0002992618
 C    1.3731719793    3.4083805721    0.0072478305
 C    0.8542831457    4.3987370679    1.1031324942
 C    1.5596582726    5.2587940602    0.0159594833
 C    2.6994819881    4.1969105082   -0.0032201684
 C    0.8296310841    4.4114274033   -1.0648915596
 H    0.0903459290   -2.2161536493   -0.0122038741
 H   -0.5540761668    1.8589381720   -0.8657784890
 H   -0.5347490011    1.8483065415    0.9039814291
 H   -0.2277668625    4.5254136424    1.1957315951
 H    1.3426619794    4.3437175427    2.0794281606
 H    1.6750056845    6.3394903374    0.0209696255
 H    3.3171446570    4.1216097231    0.8951330535
 H    3.2965484414    4.1322113934   -0.9162052368
 H    1.2956821400    4.3679175297   -2.0526160849
 H   -0.2542269853    4.5390384579   -1.1313732466