16

 O   -0.0060317425   -0.0554903745   -0.0286136097
 C   -0.0346128225    1.1585524939    0.0090468114
 N   -1.1855727941    1.8910557460    0.0499953912
 C   -1.2562647180    3.3452459898    0.1143670653
 C    0.1492472280    3.9289274605   -0.0653953072
 O    0.5930183074    3.7764844125   -1.4065908504
 C    1.4255085607    2.6126308938   -1.4440063724
 C    1.2317876300    2.0200020269   -0.0378374480
 O    1.0529605881    3.2086771362    0.7400836898
 H   -2.0388661823    1.3535257221    0.0975658177
 H   -1.9056001993    3.7365096451   -0.6768947420
 H   -1.6577739468    3.6714899670    1.0832223222
 H    0.1801410684    4.9857982962    0.2122910275
 H    1.0969901566    1.9428367610   -2.2436458981
 H    2.4685128032    2.9034037709   -1.6136067202
 H    2.0777456429    1.4533807527    0.3461240729