11

 N   -0.0324645589    1.1864714715    0.5517305930
 C   -0.0296870427    0.0435136898    0.0156117651
 O    1.1352272580   -0.5590490321   -0.4419590720
 N    1.1221863790   -1.8097637825   -1.0262895558
 C   -0.0311649636   -2.3842651079   -1.1225221673
 N   -1.2746146862   -1.9012268419   -0.7087205780
 C   -1.2506618762   -0.7396562820   -0.1678519162
 C   -0.0229757797   -3.6859941422   -1.7323300037
 N   -0.0399098710   -4.7335870969   -2.2195584078
 H    0.9045629048    1.5905023743    0.6001904738
 H   -2.1754492035   -0.2876382401    0.1831081688