16

 O   -0.3930264571    0.2771096157    0.5242213071
 C   -0.1523642105    1.3597882765    0.0977808531
 O   -1.0058281283    2.2109462895   -0.5625056560
 C    0.0386092983    3.2507242470   -0.6726676793
 C   -0.1256346490    4.4368194847    0.2540588026
 C   -0.6520515006    4.1657334853    1.6182284271
 N    0.7893777344    4.3109866178    1.4174422242
 C    1.5324061882    3.0377483565    1.2916409399
 C    1.0480229320    2.3095509789    0.0189804568
 H    0.1810935607    3.5161890209   -1.7192765604
 H   -0.2152157216    5.4236375774   -0.1883686940
 H   -1.1166052898    4.9703347806    2.1807503887
 H   -1.0664495852    3.1811480709    1.8189714949
 H    2.5939792138    3.2828782819    1.1966500176
 H    1.4110134600    2.4308026290    2.1939070056
 H    1.8603251649    1.9073758873   -0.5875477479