16

 N    0.0233535012    1.3305847568    0.0721686242
 C   -0.0604100512   -0.0325622921    0.0268552112
 N   -1.1852990226   -0.6451745399    0.0060481782
 C   -1.2140315278   -2.0993841120    0.0120233874
 C    0.0474599577   -2.7803369016   -0.5286130425
 C    1.2840759596   -2.2093463126    0.1740110331
 C    1.3051282977   -0.7050907267    0.0425702979
 O    2.3171793885   -0.0437590859   -0.0424502022
 H    0.9228439229    1.7277604155   -0.1467753532
 H   -0.8050126346    1.8533970055   -0.1584898088
 H   -1.4024413209   -2.4388875064    1.0436288577
 H   -2.0891865986   -2.4175044429   -0.5660078712
 H   -0.0113616133   -3.8651150847   -0.3908767109
 H    0.1235153509   -2.5968749533   -1.6078901692
 H    1.2354601868   -2.4384567191    1.2495478453
 H    2.2293143738   -2.6109273305   -0.2002649970