21

 C   -0.0352752371    1.5847471567   -0.1548059752
 C    0.0886058855    0.0788657037   -0.0066677616
 C    1.0732630143   -0.7024899212   -0.9152863090
 C    1.4092475277   -1.6237838760    0.2826745565
 C    2.8346194432   -2.0963706225    0.4729510635
 O    3.1228956267   -2.9990267006   -0.5879556399
 C    0.8206269542   -0.5346840757    1.2522447572
 C    1.8024970666    0.3345879465    1.8749612938
 C    2.6090495420    1.0616268406    2.3946011911
 H    0.9385977339    2.0726049634   -0.0542879872
 H   -0.4451687791    1.8394146187   -1.1385117317
 H   -0.7008769059    2.0091898928    0.6048388097
 H   -0.9029411608   -0.3834389963   -0.0606785116
 H    0.6750688366   -1.1681031971   -1.8187085763
 H    1.9348414732   -0.0841197800   -1.1895801407
 H    0.7462902260   -2.4946161484    0.2894441503
 H    3.5162620642   -1.2336421291    0.4636406300
 H    2.9387954347   -2.5853555807    1.4557179842
 H    4.0502385756   -3.2453604307   -0.5267702305
 H    0.1503807602   -0.9250875382    2.0243982659
 H    3.3184060185    1.7000524842    2.8600105216