17

 O    0.8346911195    0.5798698166   -1.3451226964
 C    0.3846546042    1.2538600061   -0.4351027106
 N    1.0680498114    1.5900935736    0.6842952209
 C    2.4533550261    1.1835303897    0.8808603733
 C    3.4454078785    2.0939517605    0.1847847462
 C    4.6455948803    1.4938914981   -0.4849150283
 N    3.5814262302    2.0612967977   -1.2925895194
 C    3.5505482065    3.4720241363    0.7405157119
 O    2.9523421382    3.8457294469    1.7219405566
 H   -0.6502899901    1.6435113235   -0.4339298571
 H    0.6764476496    2.2655182255    1.3211597394
 H    2.6528941599    1.1783754540    1.9551927635
 H    2.5556271083    0.1640664798    0.5011210882
 H    5.5858344519    2.0392750733   -0.5019005756
 H    4.7483489867    0.4140211891   -0.4063338752
 H    2.9496075135    1.3444067569   -1.6500015759
 H    4.2180930354    4.1467093924    0.1632275284