19

 C    0.3803250302    1.5274842923    0.0001361599
 C    0.1278854007    0.0320884329    0.0533430700
 N    0.9854200228   -0.7921653609   -0.8553834151
 C    1.3456907602   -1.7206033214    0.2527219819
 C    2.6211503365   -1.2546318932    0.9235658478
 N    3.8357734293   -1.5474119314    0.8442350011
 O    1.9666903670   -0.3306904338    1.7297215975
 C    0.6432890728   -0.7830293875    1.2708069156
 C   -0.2574987412   -1.1389975277    2.4184001228
 H    1.4315220571    1.7442342082    0.2014940649
 H    0.1305775872    1.9199412415   -0.9905957872
 H   -0.2360828900    2.0527009588    0.7381198872
 H   -0.9427006915   -0.1788322823   -0.0823692702
 H    0.4733074425   -1.2455080142   -1.6021908346
 H    1.1668822037   -2.7863589737    0.1152422146
 H    4.3994394849   -0.9733327191    1.4744373113
 H   -0.4994076834   -0.2454393626    3.0046881465
 H   -1.1943111670   -1.5707453703    2.0537898035
 H    0.2252296080   -1.8603438454    3.0838430225