17

 C   -0.1056214089    1.4298535052    0.0836183117
 C    0.0054898547   -0.0503491273   -0.0065147532
 C   -0.0321781353   -0.9040158221   -1.0479279435
 C    0.1433799921   -2.3351451724   -0.4726901364
 C   -0.6951112289   -2.2950526321    0.8452707301
 C    0.4099528253   -2.6643517515    1.8593243454
 O    0.3698265344   -1.3144478305    2.5368248417
 C    0.2030968282   -1.0581076823    1.1181203972
 C    1.2135910485   -2.1398113841    0.6490021721
 H    0.7914784879    1.8693011983    0.5369009941
 H   -0.2435867684    1.8762732199   -0.9047648563
 H   -0.9509969117    1.7275896001    0.7161218656
 H   -0.1597965403   -0.6559517477   -2.0927197484
 H    0.1410326820   -3.1780739685   -1.1622399148
 H   -1.7760121140   -2.3309368306    0.9828276697
 H    0.5473070571   -3.5176262298    2.5201751183
 H    2.2915117775   -2.0001154646    0.5645726666