13

 C    0.0744997718   -1.1793388646   -0.0432226457
 C   -0.0183049450    0.0214312511   -0.0088991937
 C   -0.0571282391    1.4322448792    0.0337619117
 C   -1.1219621218    2.2410888941    0.0293995495
 C   -0.6785983207    3.6714110094    0.0860079049
 O    0.7445178364    3.6253774310    0.1240201409
 C    1.1995017973    2.2796132892    0.0948180413
 H    0.1374948409   -2.2388664529   -0.0739346904
 H   -2.1583173026    1.9336949873   -0.0087928695
 H   -1.0136944945    4.2478591463   -0.7915218583
 H   -1.0626959897    4.1930453924    0.9776372432
 H    1.7961640613    2.0587372443    0.9923808613
 H    1.8451695858    2.1137482632   -0.7804072352