12

 C    0.0102806991    1.4765527318   -0.0740041026
 C   -0.0656133274   -0.0021191904    0.0437724391
 N   -1.0642625590   -0.7862937702   -0.2237675604
 C   -0.5435193906   -2.0315388714    0.0759283778
 N    0.7006339450   -2.0144453141    0.5022514688
 O    1.0215371052   -0.6592277381    0.4814051710
 C   -1.2757286352   -3.2377114807   -0.0591066999
 C   -1.9030337665   -4.2554885592   -0.1763129552
 H    0.8053167165    1.7663106887   -0.7674394784
 H   -0.9439802999    1.8559547973   -0.4381402131
 H    0.2349443829    1.9283111877    0.8967025686
 H   -2.4572183001   -5.1560123116   -0.2797423258