16

 O   -0.0952163215    1.3970793715    0.0290877834
 C    0.0151159198    0.0194436197    0.0462799034
 C   -0.2957658189   -0.8431157476   -1.1471707379
 C   -1.1153205167   -0.9711627604    0.1255814462
 C   -0.3691897464   -1.7014661096    1.2893536012
 O   -1.0413100091   -2.0913260252    2.4323055336
 C    1.0117976902   -2.1895568854    0.9430249247
 C    0.7638262850   -0.7140944180    1.2062588203
 H    0.6721159526    1.7539011410   -0.4334935819
 H   -0.8181369072   -0.2982590432   -1.9289368768
 H    0.3505424445   -1.6309382753   -1.5195446900
 H   -2.1805963876   -0.7836732263    0.1551215693
 H   -1.3862600905   -2.9804581727    2.2891841633
 H    1.4981179647   -2.6885502417    1.7768866281
 H    1.2981016059   -2.5791940274   -0.0281778232
 H    1.2522939851   -0.1733325496    2.0061407963