23

 C   -0.1352512931    1.6222222187    0.1576871992
 C    0.0231158221    0.1075688271    0.1077706472
 C    1.1694668871   -0.5735645760   -0.7077650763
 C    2.1531518065   -0.1197911695    0.4103739282
 C    0.8909736865   -0.6631155500    1.1668563835
 C    0.6783722197   -0.7500732996    2.6552333335
 C    0.9226597389   -1.8609756214    0.1584683505
 C   -0.2939865249   -2.7520749220   -0.0770451780
 O    2.0420431613   -2.7065530477    0.3867612067
 H    0.7975232776    2.1665942918    0.3181833480
 H   -0.5707266710    1.9865833431   -0.7796249831
 H   -0.8234338709    1.9040112860    0.9630041105
 H   -0.9667288995   -0.3245515986   -0.0549636861
 H    1.3259267199   -0.5255226286   -1.7880710451
 H    3.0669132575   -0.6983011052    0.5189443795
 H    2.3487795816    0.9486073020    0.4908182825
 H    0.7360662719    0.2390603400    3.1227399792
 H   -0.3039236225   -1.1744875261    2.8929884871
 H    1.4405990623   -1.3860255745    3.1174863744
 H   -1.2273421303   -2.2139097599   -0.2422553188
 H   -0.1253232083   -3.3799735838   -0.9619578746
 H   -0.4281794654   -3.4218590182    0.7780867589
 H    2.0757066531   -3.3522101078   -0.3261214770