19

 O   -0.2275220221    1.3596972509   -0.1015612896
 C   -0.0067942682   -0.0175822373    0.0820509521
 C    0.2064117234   -0.3620259691    1.5933977648
 C   -1.2805738789   -0.6560567994    1.6450364728
 C   -2.3345123512   -0.4215733569    2.4129453243
 C   -3.6664029390   -0.4024560073    1.6933662186
 C   -3.4839493089    0.3415637685    0.3568763554
 O   -2.4907578653   -0.2403688013   -0.4978250695
 C   -1.3665361424   -0.8012029966    0.1513489283
 H   -0.9679994431    1.4269343659   -0.7190535988
 H    0.7470541458   -0.4023173669   -0.6169923451
 H    0.8455727101   -1.2409973529    1.7257301235
 H    0.5775121243    0.4552575078    2.2149280277
 H   -2.2632566221   -0.1313313643    3.4566131519
 H   -4.0490677279   -1.4136576130    1.5036702575
 H   -4.4284757186    0.1195373226    2.2810625146
 H   -4.4071439570    0.3317355654   -0.2306634486
 H   -3.2216318442    1.3861643507    0.5747375902
 H   -1.2459438649   -1.8328549668   -0.2042135202