16

 O    0.0513274362    0.0214236963    0.0585894771
 C   -0.0357667083    1.2170083665    0.0220594764
 C   -1.1822939929    2.2658482654    0.0296352261
 C   -0.0514001343    3.3038204936   -0.0181983363
 N    0.9114077203    2.2199141157   -0.0452004556
 C    0.1430744910    4.5781050080   -0.7996108535
 C   -1.1010378827    5.4445237547   -0.6434640573
 O   -1.0702263583    5.3100151356    0.8069377895
 C    0.1504442459    4.5741598689    0.7312353740
 H   -1.8281748980    2.2255153447   -0.8493611206
 H   -1.7844220420    2.2725924943    0.9390804353
 H    1.9203162252    2.1964234084   -0.0318390637
 H    0.9413381974    4.7172033708   -1.5171487179
 H   -0.9479887879    6.4904164176   -0.9314525166
 H   -2.0375385395    5.0735404140   -1.0755533777
 H    0.9191173380    4.7644921456    1.4732559907