17

 C   -0.0381786363    1.5357444333   -0.1160869130
 C   -0.0009082571    0.0248222232    0.1640826102
 O    0.5606552327   -0.2380625037    1.4215840355
 C   -1.4131746911   -0.5761384424    0.1239443290
 O   -1.9538589794   -0.9572333536    1.1496060762
 N   -2.0075728654   -0.6509579298   -1.0998281020
 C   -3.3697863164   -1.1233594248   -1.2544443717
 C   -4.2530626209   -0.1027245681   -1.8324112468
 N   -4.9327038162    0.6982535930   -2.3125139817
 H    0.9710927945    1.9401678914   -0.0091019664
 H   -0.3960049174    1.7606954777   -1.1264105447
 H   -0.6892707746    2.0376628347    0.6054441985
 H    0.6068960263   -0.4690592311   -0.6103295096
 H   -0.1734893444   -0.5656315129    1.9663308261
 H   -1.5198876794   -0.3055551963   -1.9108236655
 H   -3.4119281466   -2.0206562739   -1.8830325805
 H   -3.7202501882   -1.3971858968   -0.2549358837