16

 C   -0.4314200559    1.5977118852    0.0285917778
 C    0.0906190322    0.1699806015   -0.0714042322
 C    0.9040928641   -0.2029079436   -1.3418998425
 C    2.0858193393   -0.4222684968   -0.3607771496
 O    1.2503422805   -0.0395896335    0.7710106285
 C    2.6181003503   -1.7682577302   -0.2595544394
 C    3.0635148736   -2.8820280032   -0.1901222682
 C   -0.9742895865   -0.7950630969    0.2550539400
 N   -1.8217501637   -1.5432459674    0.4943610405
 H    0.3669777867    2.2969563855   -0.2327329444
 H   -1.2769002546    1.7477369360   -0.6494815490
 H   -0.7619403940    1.8068108694    1.0492821146
 H    0.5710690674   -1.0949352227   -1.8685067386
 H    1.0354336202    0.6224421686   -2.0417563422
 H    2.9051024681    0.2960956441   -0.4790655310
 H    3.4526600824   -3.8682192958   -0.1212444543