18

 N    0.0958837065    1.0797647234    0.0871375993
 H    0.2068249127    0.0639748124    0.1595369132
 H    1.0266447728    1.4959021389    0.0143970435
 H   -0.4274008223    1.2968859138   -0.7638305831
 C   -0.6432196400    1.6012458400    1.3454117255
 C   -1.9471135904    0.7871970373    1.5389943973
 C   -1.3100760483    0.1293220549    2.7819977233
 C   -0.0188819313    0.9331319963    2.5669580016
 C   -0.8896730432    1.1749022250    3.7826456703
 C   -1.6471631367    2.5184399971    4.0359859511
 O   -1.8961415717    2.7519539197    5.2188955414
 O   -1.9076212008    3.1695495365    2.9872470484
 H   -0.7003337314    2.6840753626    1.2737312992
 H   -2.8259921363    1.4061106712    1.7058500603
 H   -2.1229808890    0.0713129091    0.7241105439
 H   -1.4308041247   -0.9127337644    3.0518078574
 H    1.0290432687    0.6586656891    2.6509077439
 H   -0.4652224046    0.7308671371    4.6795312036