17

 C   -0.2524591804    1.4952746367    0.0401075650
 N    0.1105565027    0.0883828570    0.0220178704
 C    1.1869804823   -0.3795234024   -0.8898871258
 C    1.8557947782   -1.1029684029    0.2871704811
 O    2.3106440786   -2.4064390246    0.2378903924
 C    2.2244727713   -0.1309671587    1.3573586025
 O    2.7800989694    1.1100042776    1.0228236311
 C    0.7603463665   -0.5093288743    1.1795892382
 H    0.6023999998    2.1803389111    0.1496808263
 H   -0.7753206717    1.7463954504   -0.8893716338
 H   -0.9494563404    1.6724317822    0.8664189854
 H    0.8105918000   -1.0649322616   -1.6562150385
 H    1.7849888108    0.4134725116   -1.3541782816
 H    3.2599205294   -2.3888923249    0.0730060501
 H    2.6766488656   -0.6257783059    2.2203720360
 H    2.5115873233    1.7476098909    1.6925136255
 H    0.1770613147   -0.9463057822    1.9848725255