19

 C   -0.1455738047    1.2787043017   -0.6664678013
 C   -0.0806599178    0.0509930190    0.2143915005
 O    0.9108264748   -0.2653504871    0.8304582912
 C   -1.3458477624   -0.8435964848    0.2836315152
 C   -1.6409394979   -1.2093806437    1.7432619609
 O   -2.4740448976   -0.1718218157   -0.2921044580
 C   -2.9605411555   -0.8751677155   -1.4341164552
 C   -2.0469210672   -2.0588058057   -1.5783432683
 C   -1.1366634451   -2.0447144894   -0.6125547884
 H    0.8154322503    1.7937041464   -0.6415883401
 H   -0.3916744030    0.9934293300   -1.6948724020
 H   -0.9481156929    1.9414728151   -0.3306830763
 H   -1.9276763762   -0.3133536869    2.3015658882
 H   -2.4629426077   -1.9280711828    1.7902705439
 H   -0.7505110660   -1.6378379282    2.2071914720
 H   -4.0098496085   -1.1680824935   -1.2750811136
 H   -2.9404328827   -0.2158992181   -2.3159486719
 H   -2.1533927248   -2.7987927537   -2.3613730896
 H   -0.3362557151   -2.7519074072   -0.4419033973