15

 O    0.0553418532    1.2808472497    0.1462706580
 C    0.1268241602   -0.1135389949    0.1333148348
 C   -0.4768034314   -0.7760224825    1.3430762116
 O   -0.9321370194    0.0195533574    2.3715171533
 C   -1.2302876059   -0.7890282699    0.0110261128
 O   -2.3606898126    0.0528791290   -0.2411728269
 C   -2.9577173328   -0.9310797515   -1.1343977812
 C   -1.7548686676   -1.8612356848   -0.8811134033
 O   -1.4061227392   -2.9474847056   -1.2360285294
 H   -0.7453120816    1.5294482222   -0.3400805374
 H    0.9931362735   -0.5317365172   -0.3728939143
 H   -0.0826478296   -1.7352204890    1.6671944986
 H   -0.7521180931    0.9334808781    2.1022543965
 H   -3.9221044223   -1.2912762057   -0.7625977643
 H   -3.0594138116   -0.5575066453   -2.1584914088