11

 O   -0.2136219501    0.0359580555    0.2720970944
 C   -0.0320400556    1.1893047451   -0.0007557107
 C    1.3608098540    1.7765970063   -0.2556004367
 C    1.3604331414    2.8279410618   -1.3072936916
 N    1.9596675070    2.7454823971   -2.4614054781
 O    1.6696333761    3.9119759135   -3.0809235030
 N    0.8693234032    4.6818806477   -2.2440459462
 N    0.6854551366    4.0324642062   -1.1838764860
 H   -0.8647269400    1.9218231282   -0.0614519239
 H    1.6880187434    2.2249710439    0.6923974004
 H    2.0498199040    0.9708138246   -0.5112657686