18

 C   -0.0085058823   -1.1859951006   -0.0877379570
 C    0.0614107016    0.0049430197    0.0476466265
 C    0.1160097070    1.4486918874    0.2297473235
 O    1.3205962242    1.9601242056   -0.3160683294
 C    1.4347906536    3.3550037082   -0.1667930655
 C    1.8787735524    3.9503469871    1.2037689448
 N    3.0765709512    4.6140031293    0.5753865819
 C    3.8873134099    3.5090528442    0.0396862776
 C    2.7108922856    3.9348114833   -0.7428001597
 H   -0.0645556240   -2.2392024628   -0.2119415492
 H   -0.7552160258    1.9190242957   -0.2575828664
 H    0.0436175928    1.6872629380    1.3038880531
 H    0.5344076630    3.8553484477   -0.5507525299
 H    1.1972537945    4.7002207553    1.6097154418
 H    2.1369822723    3.2249571288    1.9824458988
 H    4.8586060006    3.8332427583   -0.3203350930
 H    3.8800668620    2.5467348591    0.5453918833
 H    2.7929325813    4.4471165257   -1.6950781912