21

 C    0.0998663674    1.4513918049   -0.5598384025
 C    1.5250119293    1.5276260609    0.0652727029
 C    1.1497512595    0.3126248232    0.9593885399
 C   -0.0180349476   -0.0041292156   -0.0165392141
 C    0.3026363914   -1.1160175029   -1.0163801238
 C    1.5341769025   -0.9729132961   -1.8897832751
 O    1.5647827616    0.0975815850   -2.8422840258
 C    2.5831160808    0.0683498094   -1.8341687186
 C    2.6867244223    1.2506235521   -0.8899768648
 H   -0.5939321324    2.1228709978   -0.0462025558
 H    0.0123228711    1.5970946455   -1.6366692224
 H    1.7455708480    2.4524587387    0.6065660429
 H    1.9119484898   -0.4623772856    1.0939401306
 H    0.7914633001    0.6208938992    1.9453263085
 H   -0.9717096643   -0.2449370232    0.4624976138
 H    0.4056481011   -2.0599194671   -0.4633699826
 H   -0.5495180007   -1.2570183083   -1.6956653611
 H    1.8464021155   -1.9264428849   -2.3249461448
 H    3.5566321279   -0.2287285001   -2.2342700415
 H    2.8687959929    2.1362797299   -1.5144285069
 H    3.5991625437    1.1102244072   -0.2940514090