18

 C   -0.0069626162   -1.1371925672   -0.0756750903
 C    0.0130843019    0.0649321016   -0.0172673732
 C    0.0033848455    1.4966118809    0.0162216153
 C   -0.6625518112    2.4446744039    1.0795209575
 C   -0.0453478092    3.4049108192    0.0164637698
 C    1.2171989688    2.4895611286    0.0300966122
 C   -0.6112914141    2.4469770518   -1.0438665963
 C   -0.6703658122    2.3845711331   -2.5065196741
 N   -1.9099153443    2.4335433892   -1.6651366635
 H   -0.0146020906   -2.1982479062   -0.1172153897
 H   -1.7516991922    2.4116884065    1.1403131996
 H   -0.1942721173    2.4456805756    2.0667435684
 H   -0.0739510133    4.4925555803    0.0136812659
 H    1.8058269742    2.4949543721    0.9501411432
 H    1.8475240533    2.4934534231   -0.8615842960
 H   -0.5053090276    3.2694707458   -3.1150221177
 H   -0.4185295464    1.4436267143   -2.9899252310
 H   -2.3249156890    1.5049701374   -1.6117475802