18

 O    0.0204719956    0.0335082144    0.2343537784
 C   -0.0137328979    1.2194056377    0.0644289782
 C   -1.3310438608    2.0528104380   -0.1344678518
 C   -0.7990183453    3.4129458440   -0.5660420271
 N   -0.8634349796    4.8016489084    0.1537779358
 C   -0.1396555118    4.0928535076    1.3055081333
 C    0.5899542152    3.5047781560    0.0695392989
 C    0.5668259642    4.9715138133   -0.4317588917
 C    1.2488375362    2.1506261987    0.0069267696
 H   -1.9603545134    1.5616011266   -0.8798193223
 H   -1.8854559116    2.0344419943    0.8079743905
 H   -0.8584263685    3.5468515224   -1.6501636945
 H    0.4253491609    4.7753326947    1.9459297912
 H   -0.7818630696    3.4511322108    1.9107438584
 H    0.5807588067    5.1432082452   -1.5113115448
 H    1.1540802811    5.7212812382    0.1044469330
 H    1.9384564780    1.8939798937    0.8143705584
 H    1.7588361206    1.9645658359   -0.9464384534