19

 C   -0.0325686539    1.3005655553    0.0621437401
 O    0.0405180197   -0.1270047130   -0.0338925532
 C    0.6475308758   -0.5986312337   -1.1438588836
 O    1.1048249984    0.1060204096   -2.0090495212
 C    0.6690637813   -2.0939742925   -1.1444022371
 C   -0.5597438560   -3.0599074769   -1.1438191845
 C    0.7021411296   -3.9705841810   -1.1604062274
 C    1.3042128384   -3.0049948547   -2.2259465681
 C    1.3008004480   -3.0357655748   -0.0695254628
 H    0.9686319137    1.7392778540    0.0630560708
 H   -0.5946343017    1.7160363396   -0.7782934904
 H   -0.5419551058    1.5101113058    1.0028574715
 H   -1.1676773509   -3.0698590987   -0.2363417818
 H   -1.1761094351   -3.0523564569   -2.0466109351
 H    0.7244073585   -5.0598828327   -1.1748555847
 H    0.8279377744   -2.9951285167   -3.2090337324
 H    2.3933392507   -2.9749081449   -2.3064775811
 H    2.3905074725   -3.0066170952    0.0126093973
 H    0.8192358324   -3.0440980325    0.9108391536