23

 C    0.0434604525    1.5789442553    0.0674735858
 C    0.0225649944    0.0505831783    0.0388062838
 O    0.7465219933   -0.4941702240    1.1423464208
 C   -1.4028219147   -0.5139034447   -0.0326249875
 C   -1.4469955312   -2.0411605773   -0.1368198179
 C   -2.8694830221   -2.6062589718   -0.1273378638
 C   -2.8937243569   -4.1445321240   -0.2371436015
 C   -4.2421611604   -4.6985510646   -0.2273330009
 C   -5.3649372166   -5.1281636040   -0.2174464739
 H    1.0716691701    1.9437181418    0.1389274720
 H   -0.4143818312    2.0003448347   -0.8333386470
 H   -0.5155654157    1.9589073793    0.9322976258
 H    0.5805793756   -0.2958759527   -0.8408778505
 H    0.3352572377   -0.1635812109    1.9491725425
 H   -1.9541196384   -0.1864274205    0.8623102421
 H   -1.9212020993   -0.0636785786   -0.8896178372
 H   -0.9356084613   -2.3544767235   -1.0579167415
 H   -0.8674306933   -2.4662714365    0.6908441281
 H   -3.3857377215   -2.3087990333    0.7934038090
 H   -3.4509851452   -2.1828363931   -0.9552210451
 H   -2.3797997538   -4.4521214647   -1.1575440641
 H   -2.3144858020   -4.5773128479    0.5892493169
 H   -6.3515520300   -5.5198906574   -0.2099536759