15

 O   -0.0631338009    0.0565544427   -0.4976170753
 C   -0.0212532383    1.1732902506   -0.0356901790
 C    1.2173240616    1.9758377544    0.0268617317
 C    1.2477490560    3.5103356661   -0.1586259248
 N    0.0601678644    4.2783881907    0.0261521144
 C   -0.4701058592    4.1101971601    1.3051156598
 O   -1.5527982160    4.4701314420    1.6984596455
 N    0.5065551964    3.4297624804    2.0312852461
 C    1.5480089181    2.9409148526    1.1883962588
 H   -0.9365638555    1.6521923970    0.3704595970
 H    2.0849307576    1.4675316992   -0.3815306560
 H    2.0115932377    3.9238678103   -0.8062850648
 H   -0.5723514410    4.5079605908   -0.7226129705
 H    0.2349209330    2.9842870702    2.8921406646
 H    2.5483236461    2.9057762827    1.6031787526