24

 C    0.0263415662    1.4009722121   -0.0142348146
 N    0.0810271828   -0.0432190820   -0.0896382896
 C   -1.0075392295   -0.6671013563   -0.0008282068
 O   -1.0387231210   -2.0123268354   -0.0490339755
 C   -2.3363304742   -2.6129108275    0.0006887076
 C   -2.1427095916   -4.1203583474    0.0849362734
 C   -3.4482766103   -4.9320383733    0.0147384360
 C   -3.1327924274   -6.4311196267   -0.0773626894
 C   -4.3843477325   -4.6493764337    1.1996296435
 H    0.4601411455    1.8346042729   -0.9227537983
 H   -0.9917890153    1.8068669222    0.1090736737
 H    0.6377095476    1.7503297404    0.8259645580
 H   -1.9938673355   -0.1905820461    0.1247888601
 H   -2.8864237958   -2.2286296369    0.8691078128
 H   -2.9031703046   -2.3468952785   -0.9034337226
 H   -1.4831442150   -4.4162949603   -0.7390390017
 H   -1.6060461081   -4.3563346871    1.0127416736
 H   -3.9738822024   -4.6433970249   -0.9075470825
 H   -2.6032430258   -6.7749161347    0.8190901337
 H   -4.0496366639   -7.0225247590   -0.1680921623
 H   -2.5004442528   -6.6540372981   -0.9428280758
 H   -3.8925822684   -4.8876621456    2.1505012346
 H   -4.6992755208   -3.6022196715    1.2406689455
 H   -5.2904170972   -5.2604840926    1.1339166267