21

 C    0.0420663993    1.4532311861    0.1316536826
 O    0.1169313776    0.0513496468    0.0381729886
 C   -1.1487575392   -0.5609933015   -0.0208191040
 C   -0.9697080804   -2.0654190751   -0.0401487314
 O   -0.5662934308   -2.4940106981    1.2443955742
 C   -0.4096327604   -3.8902138462    1.3906715603
 C    0.8646472498   -4.4545881716    0.7617777289
 C   -0.4656973809   -4.1550512088    2.8933187191
 O   -0.0638724492   -5.1587710181    3.4194836387
 H    1.0655658904    1.8332381015    0.1727623844
 H   -0.4666881796    1.8962053442   -0.7400067240
 H   -0.4933664834    1.7742600396    1.0391727025
 H   -1.7649040738   -0.2779796966    0.8485149366
 H   -1.6921810413   -0.2519339157   -0.9308828451
 H   -1.9240229518   -2.5424727931   -0.3202417548
 H   -0.2229759806   -2.3246039677   -0.8039616752
 H   -1.2890584623   -4.4114561339    0.9638761745
 H    1.7316403365   -3.8766224583    1.0938321322
 H    0.9914296245   -5.4911367257    1.0831912526
 H    0.8225355317   -4.4274666926   -0.3295962230
 H   -0.9365108059   -3.3259523355    3.4654201322