13

 O   -0.1385613252    0.0293305344   -0.2290304225
 C   -0.1204514028    1.1983442638    0.0857866333
 C    1.1108190375    1.9791727168    0.0598991728
 C    2.1593331038    2.5775044814   -0.0038170989
 C    3.3369531168    3.2638898896   -0.0742328489
 N    4.3357283483    3.8536886972   -0.1347287200
 N   -1.2061145824    1.9027554030    0.5707709775
 C   -1.8043833505    3.0757071620   -0.0452015878
 C   -2.5424954943    1.7701131628    0.0391392057
 H   -2.0550966187    3.8863839364    0.6318397318
 H   -1.4261746599    3.3815203167   -1.0169674481
 H   -2.6532893978    1.1814750317   -0.8670887324
 H   -3.3311436148    1.6475179641    0.7750069075