22

 C   -2.1859878676    1.5070929097    2.3557028408
 O   -2.1898237456    0.2083618676    1.8157469861
 C   -0.9379400983   -0.4387719903    1.9265470473
 C   -1.0907502176   -1.8171924625    1.3070603456
 C   -1.0553814398   -2.0697488448   -0.2216503936
 C   -0.0112769106   -3.1457572077    0.0797718402
 C    1.1850679046   -2.6014146479    0.7486086247
 C    1.8554554953   -1.2785105851    0.4502271851
 N   -0.0186342813   -2.8438518252    1.5833826593
 H   -3.1883726465    1.9213449015    2.2216210500
 H   -1.9440701344    1.5027819720    3.4305773715
 H   -1.4604205528    2.1614614331    1.8460525894
 H   -0.1590655336    0.1649422954    1.4396654108
 H   -0.6468820296   -0.5564294745    2.9851942004
 H   -2.0136004917   -2.2316560243    1.7232135565
 H   -1.9950739761   -2.4604437890   -0.6135391710
 H   -0.7284896263   -1.2480155264   -0.8662798305
 H   -0.0592250320   -4.1666165860   -0.2871707383
 H    1.9105023271   -3.3713279534    1.0092090098
 H    1.2008028114   -0.5617798844   -0.0479077379
 H    2.2383596474   -0.8146657138    1.3656423308
 H    2.7107456881   -1.4546698039   -0.2114387470