18

 N    0.1083183529    1.3457308514    0.1813832451
 C    0.0192964456   -0.0094546718    0.0603628909
 C   -1.0975858132   -0.8019941868    0.0078662400
 C   -0.7246462286   -2.2718854097    0.0681511599
 C    0.8004353574   -2.2712598008   -0.0168449025
 C    1.4343744972   -1.6646483953   -1.2319498964
 C    1.2638702701   -0.8205261925    0.0232594729
 C   -2.4573028135   -0.3487843895   -0.0951177099
 O   -3.4385984978   -1.0717018106   -0.1408812123
 H    0.9494050165    1.7921735908   -0.1463137687
 H   -0.7292711913    1.8982413595    0.0911593026
 H   -1.0666247993   -2.7285029969    1.0052710138
 H   -1.1892850074   -2.8473540849   -0.7402788276
 H    1.3582128154   -3.0283540282    0.5209793526
 H    2.4461772661   -1.9726135957   -1.4734771520
 H    0.8118087972   -1.4289889666   -2.0891525918
 H    2.1400129116   -0.4837038069    0.5667090987
 H   -2.5883201388    0.7619014945   -0.1400929853