21

 C    0.0764039233    1.5813269813   -0.0208062792
 C    0.2838471686    0.0650589927   -0.0483709266
 C    0.5291163620   -0.5276040508    1.3465082862
 C    0.6853977925   -2.0329830177    1.3234246506
 O   -0.4736273803   -2.7627206305    0.9969151115
 C    2.0042581502   -2.6747053517    0.9130172400
 O    3.1225038928   -1.8809621480    0.6567184210
 C    1.5167393254   -2.7539538435    2.3499459482
 O    2.2167125734   -1.9587546383    3.2748297823
 H    0.9538002996    2.0913302236    0.3922240708
 H   -0.0975943425    1.9794043483   -1.0254097084
 H   -0.7850228023    1.8521254223    0.5997524510
 H   -0.5993791566   -0.4090614304   -0.4975688580
 H    1.1374740570   -0.1834847660   -0.6899390113
 H    1.4220156502   -0.0729193829    1.7844466326
 H   -0.3072695947   -0.2817613539    2.0130036334
 H   -0.6126213693   -2.6804126574    0.0468498185
 H    1.9631449685   -3.5668227557    0.2937171387
 H    3.3929406646   -1.5172163650    1.5116659312
 H    1.1122646549   -3.6874621708    2.7329801712
 H    2.8747618125   -2.5182897657    3.7016375861