23

 C    0.1096702532    1.4834090609   -0.0036655886
 C    0.0100582047   -0.0115663368   -0.0117045250
 C   -0.1223476775   -0.7890654462   -1.0926077114
 C   -0.0822478342   -2.2402324552   -0.7612925357
 C    1.2316889737   -2.7130603759   -0.1678525268
 C    0.1105793724   -2.2841596323    0.7430840970
 C    0.0553439580   -0.8436710372    1.2787119253
 C    1.2583823978   -0.4950512723    2.1733942487
 C   -1.2507083820   -0.6498557232    2.0780047271
 H    1.0798381928    1.8239797306    0.3799729580
 H   -0.0101959236    1.8908659878   -1.0113474144
 H   -0.6548001588    1.9401803543    0.6371279860
 H   -0.1988117901   -0.4197708193   -2.1105028984
 H   -0.7072865090   -2.9471818587   -1.2960409159
 H    1.4466088331   -3.7767108909   -0.2008727999
 H    2.0988669890   -2.0734288985   -0.2950576788
 H   -0.3659322360   -3.0553397211    1.3391297712
 H    2.2051089226   -0.6175841791    1.6394241580
 H    1.2036831098    0.5392076962    2.5300301013
 H    1.2826263428   -1.1461306754    3.0538430117
 H   -1.2494730293   -1.2797094940    2.9753079207
 H   -1.3715166635    0.3883537715    2.4040089573
 H   -2.1211910759   -0.9198830651    1.4725322427