21

 C   -0.0305712559    1.5013380389    0.0456858181
 C    0.0015293011    0.0069182909   -0.0264739327
 C   -0.0166349054   -0.7486925593   -1.1288166272
 C    0.0109352483   -2.2323020965   -0.8536956160
 C    1.3092222844   -2.5635061036   -0.0686677061
 C    1.3327706143   -1.6953315115    1.2193284040
 C    0.0486307239   -0.8390924170    1.2310726805
 O   -1.0814616481   -1.7334035656    1.2642639159
 C   -1.1731093600   -2.5378259108    0.0895121212
 H    0.8438961089    1.8970498810    0.5787258971
 H   -0.0490182637    1.9505450547   -0.9515771061
 H   -0.9141086606    1.8513634119    0.5945632525
 H   -0.0696915584   -0.3510636103   -2.1375770809
 H   -0.0669034978   -2.8347908048   -1.7617743555
 H    1.3225947049   -3.6298779671    0.1813644206
 H    2.1819341321   -2.3670643487   -0.6969114093
 H    1.3422868033   -2.3201571726    2.1173190758
 H    2.2158428572   -1.0497776610    1.2576362334
 H   -0.0306200436   -0.2418596774    2.1422927127
 H   -2.1296305793   -2.3343744831   -0.4104457531
 H   -1.1599879554   -3.5962821778    0.3875795352