14

 N   -0.0484392105   -1.1287496190   -0.1600831333
 C   -0.0244109555    0.0252661998   -0.0821557078
 C   -0.0134128748    1.4542509468    0.0771129471
 C   -1.3639027159    2.2663302564    0.2425833358
 C   -0.4311167349    3.3407425456   -0.2675527395
 N    0.1320341599    4.1436025808    0.5413061086
 C    1.5185778680    3.6253256964    0.6728951513
 C    1.3525895841    2.2149502624    0.0918300842
 N    0.4399120166    2.3665067737   -1.0266204026
 H   -2.0912910984    1.8449312362   -0.4546344533
 H   -1.7834573062    2.4402790733    1.2311834676
 H    2.2817207315    4.1730341731    0.1024676617
 H    1.7859064305    3.6697548555    1.7320944954
 H    2.2176579557    1.5744868389   -0.0653226351