15

 O    0.3261033814    1.5695897143   -0.0628516054
 C    0.0791058778    0.1702267352    0.0178384222
 C    0.5719912125   -0.5504563997   -1.2507917088
 C   -0.2674735508   -0.1826553023   -2.4696069709
 O   -1.4264677660    0.1576160191   -2.3884168357
 C    0.4040104276   -0.3087331742   -3.7510005109
 C    0.9803232503   -0.4240730188   -4.8016166230
 C    0.6676413773   -0.4214592117    1.2207912654
 C    1.1973976240   -0.8869483407    2.1944472352
 H    1.2548805776    1.7142849929    0.1499780722
 H   -1.0112419819    0.0765968235    0.0490323045
 H    1.6290465774   -0.3321380836   -1.4328478559
 H    0.4958653075   -1.6386039009   -1.1229300749
 H    1.4719621160   -0.5169306536   -5.7397134032
 H    1.6414246792   -1.2982327296    3.0674264491