20

 N    0.0062842036    1.3401801427    0.1012396828
 C    0.0797613201   -0.0303969905    0.0518409757
 O    1.1554088946   -0.6026420371    0.0043623055
 C   -1.2382358061   -0.7520034937    0.0360582048
 C   -1.2017139660   -2.0886811998    0.0930622505
 C   -2.4139889272   -2.9724788249    0.1233403046
 C   -3.7060333309   -2.1892474823    0.3945075704
 C   -3.7265811866   -0.8909675234   -0.4185671963
 C   -2.5428491128    0.0149673479   -0.0444384506
 H    0.8769678734    1.8257431752    0.2461369124
 H   -0.8403979943    1.8146754987    0.3616382713
 H   -0.2220845529   -2.5582442093    0.1183479053
 H   -2.4857508607   -3.5056756166   -0.8372661654
 H   -2.2729202988   -3.7594068581    0.8751499134
 H   -4.5801321278   -2.8062622923    0.1622428155
 H   -3.7657851831   -1.9469305885    1.4634892405
 H   -3.6669522605   -1.1339718177   -1.4872419452
 H   -4.6686196354   -0.3529023357   -0.2696727780
 H   -2.7489729455    0.5073059665    0.9191322204
 H   -2.4559790032    0.8212699289   -0.7833195376