19

 O   -0.0693021650    0.0545625598    0.3758436482
 C    0.0381420374    1.1968180001    0.0164766016
 C    1.2918829112    1.9962960406    0.0305576219
 C    1.1268302895    3.4960907070    0.2289811212
 C    1.4755626588    2.9707689228   -1.1366334047
 C    2.8831163848    3.1398421416   -1.7074990926
 C    3.8278580542    2.0196242126   -1.2422793785
 C    3.6647448820    1.7634229543    0.2513915174
 O    2.3592477400    1.2970157434    0.5719441072
 H   -0.8328731954    1.7751305219   -0.3752215905
 H    0.1297178389    3.8842569841    0.4080211474
 H    1.9093565061    3.9910532850    0.7943493256
 H    0.6708721767    2.9780465015   -1.8657849914
 H    2.8318555288    3.1524811551   -2.7998450676
 H    3.2890179651    4.1128923086   -1.4060625348
 H    3.6039549512    1.0897802924   -1.7776546370
 H    4.8683151887    2.2822887219   -1.4598391902
 H    4.3378027182    0.9749968465    0.5974754865
 H    3.9011282189    2.6748318708    0.8252979301