12

 C    0.1102493955   -1.1597721520   -0.0043379234
 C    0.0190046821    0.0395661988    0.0031401373
 C   -0.0683894018    1.4472234851    0.0116479732
 N   -1.1724487648    2.1803687542    0.0306611615
 N   -0.8055668583    3.4896338673    0.0324047658
 C    0.5187122034    3.5424865623    0.0144709648
 N    1.0238224245    2.2710938087    0.0009478527
 C    1.3247801985    4.6998302771    0.0094066199
 C    2.0258259904    5.6772384816    0.0048508056
 H    0.1766537195   -2.2201510907   -0.0107556738
 H    1.9934976137    1.9994114148   -0.0137757189
 H    2.6335113573    6.5487631828    0.0010269653