14

 C   -0.0432586495    1.3312160633    0.0626345290
 O    0.0008749077   -0.0876420608    0.0050015239
 C    0.6147023401   -0.6011374204   -1.0704577713
 C    1.2140557248    0.0019062868   -2.1359690287
 O    1.7050127011   -0.9571236887   -2.9881510642
 C    1.4183429722   -2.1566617957   -2.4656252507
 C    0.7456390257   -2.0240756839   -1.2821129321
 C    0.2767583554   -3.0604265330   -0.4413259918
 N   -0.1075988054   -3.9073672910    0.2480897811
 H    0.9696615791    1.7532136971    0.0847664000
 H   -0.5870740118    1.7406381107   -0.7983027247
 H   -0.5674998620    1.5877779046    0.9831842952
 H    1.3730358903    1.0227683637   -2.4303772189
 H    1.7400567721   -3.0220323826   -3.0205969668