19

 C   -0.0463218783    1.3973164399    0.0018616570
 O   -0.0353440789   -0.0098245478   -0.0264212244
 C    0.7008616236   -0.5310625089   -1.1128293566
 C    0.6081061877   -2.0570693520   -1.0645767288
 C   -0.8097130162   -2.5841190675   -1.2123118958
 C   -0.9249750880   -3.4656127452   -2.2087037773
 C    0.3842488099   -3.6197160377   -2.9114958165
 O    0.8525070432   -2.3895908817   -3.5196096758
 C    1.3403295154   -2.7390248573   -2.2206855610
 H    0.9695073929    1.8118777007    0.1026757870
 H   -0.4990432059    1.8211284485   -0.9082938152
 H   -0.6390316526    1.7033448582    0.8674366294
 H    0.3001204733   -0.1690607109   -2.0715230502
 H    1.7556408137   -0.2121257026   -1.0505481180
 H    1.0383320071   -2.3861729608   -0.1086787845
 H   -1.6132278310   -2.2215343405   -0.5833582087
 H   -1.8303018039   -3.9783053325   -2.5091811152
 H    0.6673242828   -4.5249334987   -3.4396367454
 H    2.4072068052   -2.9384476532   -2.1620084901