21

 C   -0.2787475033    1.5027636614   -0.2590272935
 C    0.0135605105    0.0340747981   -0.0218566191
 N    1.2185343800   -0.6123605293   -0.7507076769
 C    2.1021619396    0.0233904275    0.3311849746
 C    0.8757028826   -0.5073089915    1.1484681173
 C    1.0324493086   -1.7567427236    0.2600897170
 N    0.5423703215   -0.4793992344    2.5375600448
 C    1.6419831262   -0.5962440820    3.4942106313
 C    0.9442480150    0.7027038557    3.2995852620
 H    0.5527426393    2.1683373110   -0.0181204768
 H   -0.5444384169    1.6623261707   -1.3093085182
 H   -1.1356611240    1.8064020165    0.3513573085
 H   -0.8949256153   -0.5495630076   -0.2087470701
 H    3.0589036427   -0.4912120218    0.4529504434
 H    2.2544327448    1.0958984379    0.2110316560
 H    0.1457236072   -2.3682120109    0.0741962326
 H    1.9280999215   -2.3704394774    0.3858707073
 H    1.4384192814   -1.2071842230    4.3685929395
 H    2.6535050723   -0.6799423275    3.1018591330
 H    1.4901867609    1.4850236872    2.7763726934
 H    0.2225382752    1.0574486928    4.0293174339