16

 C   -0.0813000186    1.5472144041    0.0537468335
 C    0.1165094744    0.0644755823    0.0875913864
 O   -1.1444243548   -0.6981718205    0.1132789244
 C   -0.6031252303   -1.7010430089    1.0060160061
 C    0.2377716125   -2.7450097010    0.2356176778
 N    1.3558892510   -1.7257047439    0.1006767273
 C    0.6905712516   -0.8803123520    1.1751323877
 C    0.9863875562   -0.7427854048   -0.9068790378
 O    1.2259663399   -0.7096914710   -2.0736191143
 H    0.8830944253    2.0628593699    0.0880112930
 H   -0.5858394404    1.8286992111   -0.8757999185
 H   -0.6944824890    1.8778244057    0.8965918852
 H   -1.3262067624   -2.0058664831    1.7640751914
 H    0.5667561752   -3.5792672899    0.8624701073
 H   -0.1555136374   -3.1165719576   -0.7135655964
 H    1.2445412068   -0.6214203705    2.0729554368