21

 C    0.0224697065    1.3325206866   -0.1514377111
 O   -0.0103411899   -0.0291371223    0.2091442980
 C   -1.2916281334   -0.6118230598    0.1275269539
 C   -1.8182251698   -0.8542586973   -1.3101957472
 C   -2.7547741907   -2.0855777133   -1.2149456016
 C   -2.8527453448   -2.8977022899   -2.5075084330
 C   -2.1759374900   -2.8609236937   -0.0393879125
 O   -0.7523343793   -3.0133307318   -0.1153085918
 C   -1.2875275977   -1.9965861696    0.7426705178
 H    1.0414540026    1.6875420809    0.0204741519
 H   -0.2303547125    1.4913837752   -1.2099558618
 H   -0.6699429515    1.9321056514    0.4615950832
 H   -2.0130771870    0.0046738002    0.6954283174
 H   -2.3240561472    0.0164869707   -1.7335000084
 H   -0.9578159485   -1.0905113646   -1.9425504258
 H   -3.7609873534   -1.7549299600   -0.9208566464
 H   -1.8699635611   -3.2941594455   -2.7815109003
 H   -3.5407381017   -3.7427039265   -2.3963687050
 H   -3.2140369435   -2.2800915275   -3.3360699084
 H   -2.7134965657   -3.7009518057    0.3954285807
 H   -1.0933529713   -2.1265023674    1.8038418602