17

 C   -0.1387853236    1.4526332757   -0.0697519785
 C    0.0331958982   -0.0637731201    0.0133808491
 C    0.7160593240   -0.6505531239   -1.2278586309
 O    0.8343644886   -0.0639631479   -2.2691361245
 N    0.7427066154   -0.5065725493    1.2060159285
 C    0.2405821072   -1.2722971315    2.2389308926
 C    1.2785481900   -1.4388901898    3.1160523551
 N    2.4077624116   -0.8037739018    2.6548771378
 C    2.0538486534   -0.2591828421    1.5140779008
 H    0.8316516021    1.9545464390   -0.0949154771
 H   -0.6716412981    1.7120431931   -0.9865887812
 H   -0.6998744812    1.8189433761    0.7927151216
 H   -0.9546303448   -0.5427718629    0.0529531625
 H    1.0915212688   -1.6874670680   -1.0841574149
 H   -0.7834582552   -1.6084261473    2.2425018989
 H    1.2780004720   -1.9784193871    4.0508563536
 H    2.6910280414    0.3276574076    0.8683108564