19

 C    0.2683571305    1.5260764629   -0.2590600559
 O   -0.3102037688    0.2737596971   -0.5960770406
 C    0.5855189727   -0.6048862971   -1.1995952960
 C    1.6656378772   -1.3212245831   -0.3616650314
 O    2.3271050474   -1.0052507158    0.5866080958
 C    1.3932962968   -2.6449388062   -1.0885289111
 C    0.0463276707   -2.0323386915   -1.5732022985
 C   -1.1563559493   -2.4506087805   -0.7356465200
 O   -0.1541333986   -2.2653721878   -2.9509685869
 H    1.0952780146    1.4060304917    0.4495618009
 H    0.6394659664    2.0451904839   -1.1561241526
 H   -0.5205132036    2.1271380075    0.1983409933
 H    1.0574518066   -0.1710998026   -2.0996006927
 H    2.0774926697   -2.8035100424   -1.9277458650
 H    1.3550448167   -3.5460072179   -0.4737701684
 H   -0.9674585225   -2.3148772251    0.3329676530
 H   -2.0303302031   -1.8403830303   -0.9864073658
 H   -1.3895387321   -3.5025909219   -0.9234845799
 H   -1.0022890113   -1.8814893210   -3.1993586681