17

 C   -0.0866847898    1.3231665335    0.1315256203
 O    0.0252271580   -0.0809697197    0.0053463848
 C    0.6436200564   -0.5837873516   -1.1106971297
 C    1.1821656863    0.1600668407   -2.1520665828
 C    1.7852677821   -0.4954570214   -3.2306647915
 C    1.8446922151   -1.8822490183   -3.2592388132
 C    1.3035049956   -2.6311003696   -2.2127265490
 C    0.7034950179   -1.9903628302   -1.1389506254
 O    0.1745981668   -2.7131234078   -0.1168358035
 H    0.8998401599    1.8029651144    0.1572805970
 H   -0.6724224170    1.7537891261   -0.6904262028
 H   -0.6015759035    1.5074797739    1.0758077047
 H    1.1382870611    1.2418277820   -2.1345483183
 H    2.2043493888    0.0897627289   -4.0414263809
 H    2.3118118946   -2.3921748276   -4.0945572656
 H    1.3383000001   -3.7146784583   -2.2134635277
 H   -0.1876038322   -2.0798593348    0.5167874936