19

 O   -0.0182041431    1.3483436858   -0.1575997483
 C    0.0011848943   -0.0565435458   -0.0454476059
 C    0.1252743257   -0.6203874852    1.4097684139
 C   -1.3745804592   -0.2274568056    1.5782990606
 C   -1.4407048800   -0.6275389200    0.0699100941
 C   -1.1374332432   -2.1140677169    0.1493820774
 C   -2.0846081465   -3.1962148921   -0.1108070466
 O   -1.0459064641   -2.8777783174   -1.0503731039
 C    0.0343642863   -2.1379373771    1.1555769216
 H    0.8744131226    1.6711513624    0.0016651497
 H    0.6499047722   -0.5090196189   -0.8081895740
 H    0.8998639144   -0.2672833716    2.0922905368
 H   -1.9772215046   -0.8025019340    2.2867615886
 H   -1.5155525329    0.8416436311    1.7240928355
 H   -2.2369692722   -0.3085934529   -0.6009998529
 H   -1.9712041641   -4.1512612012    0.4018085683
 H   -3.0976642062   -2.9675746454   -0.4411842967
 H    0.9320410870   -2.5581001625    0.6919780610
 H   -0.1878094163   -2.7061566627    2.0635406709