19

 C   -0.0973453555   -1.2384700130   -0.1936517012
 C   -0.0453293253   -0.0421885653   -0.0860071421
 C    0.0004890757    1.4042633413    0.0391458652
 C   -0.6099175811    1.9706233030    1.3796906292
 C    0.5592540255    2.7952980990    1.9646719897
 C    1.6686036915    1.8117772899    2.3721211556
 O    2.1831018379    1.3265373881    1.1153917191
 C    1.4434568024    1.9944242071    0.0948937715
 C    1.1954212249    3.3871592310    0.6882836291
 H   -0.1311127093   -2.2952640944   -0.2885589068
 H   -0.5203822402    1.8464192842   -0.8189554208
 H   -1.4779103820    2.6019488937    1.1714960570
 H   -0.9306360413    1.1681461496    2.0473088666
 H    0.2752741353    3.4962991788    2.7504695525
 H    2.4782671188    2.2991363243    2.9310604115
 H    1.2929718725    0.9693731021    2.9649201023
 H    1.9996517369    1.9185578526   -0.8393939230
 H    0.5077732022    4.0027366261    0.1024057926
 H    2.1236528708    3.9355976518    0.8658362620