18

 C   -0.1134236484    1.4941422567   -0.0135597466
 C   -0.0045539358    0.0036696971   -0.0623768091
 C    0.8829664977   -0.8459788414   -0.9726118013
 C    0.0813871768   -2.0752944236   -0.4422046573
 C    0.4613029155   -2.0564196689    1.0578318865
 N   -0.2574065869   -0.7566107680    1.2207345772
 C   -1.0518060823   -1.0441589497   -0.0056089323
 C   -0.0515949712   -3.2796680122   -1.2052889063
 C   -0.1702393589   -4.2979965021   -1.8356030228
 H    0.8191713185    1.9418243775    0.3478065853
 H   -0.3230127426    1.9042156978   -1.0071712218
 H   -0.9155451359    1.7965798044    0.6646880227
 H    0.6623872640   -0.6482518423   -2.0242281000
 H    1.9666122325   -0.8561704853   -0.8116955830
 H   -0.0590111533   -2.8215261657    1.6380858791
 H    1.5276178801   -2.0479155464    1.3114947201
 H   -2.1328546313   -1.0481840774   -0.0615850096
 H   -0.2715072385   -5.1954508004   -2.3939641209