22

 C    0.5775976373    1.1212680661    0.3207875347
 C    0.1215396282   -0.3310209998    0.1675971197
 C   -1.4016092086   -0.4954895656    0.1091212179
 C   -1.8088439864   -1.9610531584   -0.0778426801
 C   -3.3151763080   -2.1704982766   -0.2354453238
 O   -3.6588570944   -3.5323753282   -0.4474402232
 O   -1.9735507994   -0.0046855069    1.3265419476
 C   -2.8698452232    1.0737322357    1.1812229061
 H    1.6684661935    1.1872695062    0.3750281181
 H    0.2507858766    1.7348770261   -0.5266503704
 H    0.1685421390    1.5596985007    1.2351898937
 H    0.5528145800   -0.7674268845   -0.7417746560
 H    0.4954285966   -0.9265167735    1.0098873930
 H   -1.7901156567    0.0957914756   -0.7355498038
 H   -1.3015953959   -2.3742490140   -0.9575066485
 H   -1.4545518301   -2.5277479709    0.7945309998
 H   -3.8409366620   -1.7564284863    0.6368225209
 H   -3.6787469577   -1.6367801308   -1.1213646776
 H   -3.4160673824   -4.0203977420    0.3458279136
 H   -2.3903616113    1.9558505856    0.7321024616
 H   -3.7451165476    0.8083615090    0.5689648469
 H   -3.2170010174    1.3397912126    2.1836648199