18

 C    0.0062055328    1.5337987544   -0.1462417880
 C   -0.0452161225    0.0158946797    0.0518522439
 N    0.7124789818   -0.4424895639    1.2018355654
 C    2.0881647808   -0.7115339077    1.2396496531
 C    2.3122517647   -1.1653884925    2.5075066141
 O    3.4891082685   -1.5704176469    3.0382310269
 N    1.1652637977   -1.1687619699    3.2564446857
 C    0.2278477492   -0.7262385637    2.4372174522
 N   -1.1333795942   -0.6355242839    2.7410844823
 H    1.0367573140    1.8756372877   -0.2786211418
 H   -0.5681641640    1.8209566664   -1.0325182411
 H   -0.4127570278    2.0602112666    0.7172680472
 H   -1.0769030211   -0.3217542277    0.1891303261
 H    0.3469501589   -0.4931028332   -0.8347965606
 H    2.7283166003   -0.5547252172    0.3903029224
 H    3.2963347964   -1.8169390654    3.9505861667
 H   -1.2802025456   -0.9605756279    3.6889603821
 H   -1.5049734900    0.3039902251    2.6532063532