20

 N   -0.2983955044   -1.0937446459   -0.0563094053
 C   -0.1407339968    0.0507958507   -0.0248327511
 C    0.0707682403    1.5084220534   -0.0028038491
 C    1.5622280005    1.8213741979    0.0483990459
 C    2.0508107527    3.0644382630    0.7450514751
 C    2.3239645929    1.7055925161    1.3416216726
 C   -0.6277645791    2.1578667796   -1.1924758753
 C   -2.1153577528    2.3876315556   -1.1737509099
 C   -1.1689732233    3.5591268322   -1.0792722569
 H   -0.3945110751    1.8818323532    0.9196206313
 H    2.0944551043    1.5277359596   -0.8517870583
 H    2.8731822159    3.6107309466    0.2973728395
 H    1.3187030937    3.6954152266    1.2376806820
 H    1.7714391946    1.4217085710    2.2313737777
 H    3.3342840107    1.3149698059    1.3063085580
 H   -0.1955995782    1.8796333421   -2.1493680094
 H   -2.6672535802    2.2370363470   -2.0942448982
 H   -2.6607925377    2.1026211770   -0.2799930599
 H   -1.0831629248    4.0644202146   -0.1231795770
 H   -1.0676567432    4.2162192339   -1.9354915816