23

 C   -0.0841755622    1.5801160868    0.0410011934
 C    0.0643498370    0.0757271739    0.0683696443
 C    1.3640312795   -0.6719722590   -0.2283267149
 C    2.6442089323    0.0897224524   -0.1076699945
 C    3.5373446222    0.3277031633   -1.2852186100
 C    2.8283478315    0.5101373142    1.1497661247
 C    1.7209304907    0.0653215168    2.0772610740
 C    0.7490716249   -0.7038099130    1.1679549728
 C    0.0790839209   -1.9334955005    1.7353966002
 H    0.8373635297    2.0901940743    0.3312420244
 H   -0.3536949762    1.9259824714   -0.9632539404
 H   -0.8772808888    1.9050695623    0.7245484784
 H   -0.8092861746   -0.4423732892   -0.3244683426
 H    1.3163059460   -1.5260442944   -0.8987970140
 H    3.0188152088    0.8913664006   -2.0711273568
 H    4.4373448966    0.8816408811   -1.0043220322
 H    3.8512168572   -0.6204353542   -1.7406021433
 H    3.6595826008    1.1231117035    1.4830474121
 H    2.1004636888   -0.5843885139    2.8788755320
 H    1.2357630821    0.9125202883    2.5819137192
 H   -0.5930722515   -1.6755414081    2.5632396142
 H   -0.5186705967   -2.4476682696    0.9757352177
 H    0.8164983310   -2.6479284570    2.1204735613