17

 C    0.1858744816    1.5706383937    0.0461039263
 C   -0.0051859722    0.0854902554   -0.0221698032
 C   -0.2072469991   -0.5749960271   -1.1819783612
 N   -0.3989921070   -1.9411249099   -1.2254136262
 C   -0.3746959206   -2.6977726378   -0.0828587323
 N   -0.5026509023   -4.0731051078   -0.2935221796
 H   -1.2832132303   -4.3252453695   -0.8887492345
 H   -0.5504340966   -4.5889533839    0.5744035467
 C   -0.1829322379   -2.0977355595    1.1242311395
 H   -0.2021404376   -2.6879625867    2.0330032879
 C    0.0328570061   -0.6662924222    1.2515923259
 O    0.2150444210   -0.0983066869    2.3280736869
 H    1.1434100894    1.8105168193    0.5198954584
 H    0.1525922928    2.0334891154   -0.9444398111
 H   -0.5834265923    2.0276638676    0.6775162018
 H   -0.2390295634   -0.0815432439   -2.1468367149
 H   -0.3722685316   -2.4143042863   -2.1136343905