18

 O   -0.2571198378    1.3517513213    0.2368750210
 C   -0.7421220097    0.0692678855    0.6327499729
 C   -1.4006753024   -0.6297586588   -0.5591321971
 O   -0.5287551639   -0.5949662895   -1.6747417427
 C   -1.7582465435   -2.0864170431   -0.2908314706
 N   -0.7568452251   -2.9197407599    0.4304231934
 C   -1.7748829218   -3.4902892693    1.3512513500
 C   -2.7536896305   -2.4240405749    0.8343456197
 O   -3.8137077188   -1.9966294488    1.1803625474
 H   -1.0157483191    1.9338463877    0.1188740714
 H    0.1309774788   -0.5050790236    0.9486493212
 H   -1.4389663398    0.1426129294    1.4789216241
 H   -2.3492717241   -0.1105340407   -0.7941332283
 H   -0.0606959908    0.2487290133   -1.6056359337
 H   -2.1023998665   -2.5241051944   -1.2406699347
 H   -0.2841641459   -3.5986941794   -0.1528432658
 H   -2.1200488295   -4.5069394775    1.1147972582
 H   -1.5148139597   -3.4457960672    2.4143214835