22

 C   -0.0026135294    1.4795011130    0.0239638859
 C    0.0432310669   -0.0224525142   -0.0244588165
 N   -0.6040812093   -0.8340698823    1.0412738413
 C    0.8694930196   -0.8927095099    0.8390100176
 C    1.3487372549   -1.9537864285   -0.1699641575
 C    0.0626387935   -2.2652013433   -0.9792495871
 C    0.1778899449   -0.7666886235   -1.3890919673
 C   -0.5520863743   -0.2097711172   -2.5911809958
 C    1.7345911990   -1.0181092550   -1.3669711175
 H    0.7670694443    1.9218815561   -0.6182942909
 H   -0.9728284564    1.8635628154   -0.3127446774
 H    0.1656907258    1.8448122788    1.0429794543
 H   -0.7873025865   -0.2207936773    1.8346484066
 H    1.5321632426   -0.5121167331    1.6090898443
 H    2.0104707531   -2.7415816338    0.1897807112
 H    0.2731065456   -2.9205005725   -1.8278338353
 H   -0.8258342351   -2.5892101087   -0.4416189984
 H   -1.6363711057   -0.2199419508   -2.4304753545
 H   -0.2587171575    0.8242732240   -2.8050568235
 H   -0.3441613703   -0.8040399063   -3.4870197741
 H    2.3891813261   -0.1652938427   -1.1579845498
 H    2.0908163183   -1.5618941181   -2.2465238956