15

 N    0.0443623668    1.4009319034    0.1692919641
 C    0.0209750924    0.0038772718    0.0593654996
 C   -1.0708970014   -0.8304656105   -0.0085178837
 N   -0.6535900233   -2.1861203357   -0.1169940560
 C    0.7069993363   -2.1534321321   -0.0023723855
 C    1.1714126605   -0.8562446788    0.0587807615
 N    2.5529601789   -0.8303089408    0.0379046324
 C    2.8969534191   -2.0935059294   -0.0279275848
 N    1.8106446225   -2.9635107857   -0.0729790821
 H    0.8996451704    1.7931564341   -0.2025301835
 H   -0.7521385759    1.8506651448   -0.2620747890
 H   -2.1231264406   -0.5976054256   -0.0253085082
 H   -1.2378378932   -2.9419588789    0.2002708921
 H    3.9073547499   -2.4745081109   -0.0370478224
 H    1.8553663576   -3.9671534157   -0.0902755843