14

 C   -0.0050163608    1.4212763255   -0.0099020668
 N   -0.0044679489   -0.0247191082    0.0204963754
 N    0.1032756108   -0.7559046965   -1.1425125842
 C    0.1305222345   -2.0350749724   -0.7919966055
 C    0.0474215235   -2.1738236093    0.6183753968
 C   -0.0294667511   -0.8692481457    1.0621430589
 O   -0.1196870275   -0.7523658821    2.3826956218
 N   -0.1063156018   -2.1035655001    2.8867691243
 C   -0.0095752574   -2.8941346731    1.8446194106
 H    1.0040927845    1.8125215671   -0.1722485157
 H   -0.6541983258    1.7596371303   -0.8190479632
 H   -0.3859634909    1.7918458992    0.9435242758
 H    0.2032500539   -2.7898627336   -1.5602321210
 H    0.0151911170   -3.9590685313    2.0313527829