16

 O    0.4747920253    1.0544801551   -0.7616194260
 C    0.1713392867   -0.1349210641   -0.0884481041
 C    0.8574663185   -0.2153411386    1.2702356094
 C    0.3753654790   -0.9819410740    2.2486835954
 C   -0.8581376073   -1.7778064699    2.0169792174
 C   -2.2309502759   -1.2083626852    2.2789686758
 N   -1.7102895487   -1.3280876326    0.9249264345
 C   -1.3304998438   -0.2069988268    0.2018525439
 O   -2.0819025180    0.6777955083   -0.1475223413
 H   -0.3771024394    1.5109118916   -0.8610490660
 H    0.4693772360   -1.0006125386   -0.7012496498
 H    1.7440418723    0.3992021002    1.3892867083
 H    0.8702197617   -1.0661022782    3.2114942111
 H   -0.7591082425   -2.8605568464    2.0933917752
 H   -3.0505183692   -1.8747705954    2.5316366062
 H   -2.2954921146   -0.2052896853    2.6907401800