15

 C   -0.0091069091    1.3830215145    0.0181507154
 O   -0.0088797902   -0.0413382472   -0.0205626502
 C    0.6042328358   -0.6485298830    1.0034690192
 N    0.6518738409   -1.9156607366    1.0402293376
 C    1.2899113722   -2.5176791568    2.1076446322
 C    1.4339049105   -3.8555287030    2.3057645069
 O    2.1224641703   -4.0415268586    3.4743056997
 C    2.3597185949   -2.7905965103    3.9237936433
 N    1.9014221097   -1.8457726629    3.1750276778
 H    1.0112437684    1.7824314789   -0.0117204888
 H   -0.5501214517    1.7123596545   -0.8692332945
 H   -0.5202454519    1.7573788290    0.9126413790
 H    1.0364296999    0.0117518165    1.7628076388
 H    1.1341366832   -4.7335502786    1.7629887946
 H    2.9022402970   -2.7054433662    4.8527478290