20

 N    0.0142062375    1.2752459399    0.4471938736
 C    0.0128893700    0.1017405115   -0.2512758847
 O    0.9776315739   -0.2709871369   -0.8914948207
 C   -1.2934847003   -0.6859002753   -0.1974592431
 C   -2.0705898385   -0.6098423019   -1.5327361436
 C   -3.0159123549   -1.8129208508   -1.4355190156
 C   -2.1195953948   -2.9344741998   -0.8703663755
 O   -1.4007717717   -3.6074883816   -1.9015859481
 C   -1.0709339293   -2.2055101903    0.0056336373
 H    0.8405655571    1.8496372735    0.4162814021
 H   -0.7763220251    1.5879270071    0.9812698399
 H   -1.9334149656   -0.2923470677    0.6024217649
 H   -2.5820548354    0.3455457663   -1.6789657950
 H   -1.3651912793   -0.7544275375   -2.3571387912
 H   -3.8288637592   -1.5973269616   -0.7299377419
 H   -3.4748520352   -2.0934009097   -2.3893748165
 H   -2.7031766238   -3.6607255202   -0.2872119343
 H   -2.0411506395   -4.0538670950   -2.4649968092
 H   -0.0778157212   -2.4778466532   -0.3577096220
 H   -1.1421552249   -2.4896580866    1.0582501435