24

 C    0.2390856867    1.5313408903   -0.1493232622
 C   -0.0972759185    0.0555246736    0.0647950715
 O    0.0119377605   -0.6793585419   -1.1549446510
 C    0.7421749157   -0.5812558807    1.1796827031
 C    0.3651294196   -2.0429038340    1.4573876869
 C    1.2029016980   -2.6775403122    2.5485317266
 C    1.3890019246   -4.1550218858    2.6274529403
 N    2.5208871873   -3.2854003323    2.3277862558
 C    3.0830915352   -3.3581662281    0.9885811096
 H    1.2985099970    1.6546144344   -0.4083318970
 H   -0.3618349619    1.9438368057   -0.9642879692
 H    0.0494160761    2.1176153185    0.7555528288
 H   -1.1584895819   -0.0321388504    0.3322765395
 H    0.9162125601   -0.5775620378   -1.4731620331
 H    1.8047696852   -0.5146601790    0.9038922327
 H    0.6297426375    0.0126527038    2.0963608116
 H   -0.6877321521   -2.0862974103    1.7689219629
 H    0.4235652495   -2.6117247528    0.5259597979
 H    1.1637010516   -2.1318075997    3.4924265221
 H    1.4164500556   -4.6707953031    3.5843636229
 H    0.9712304158   -4.7429470671    1.8094018300
 H    2.3541631862   -3.5623485481    0.1887968166
 H    3.5961735334   -2.4188182635    0.7556430348
 H    3.8287875288   -4.1598422395    0.9691484289