15

 C   -0.0916135485    1.4401056095    0.0404851989
 N    0.0304253538   -0.0040831506    0.0136140388
 C    0.0797074323   -0.7946984637   -1.0889142858
 N    0.2147740403   -2.0713084097   -0.7845107118
 C    0.2428943665   -2.0939459902    0.5761713568
 O    0.4096363714   -3.2406617998    1.3024992614
 C   -0.0532362451   -4.4137692200    0.7785920641
 O    0.1167320953   -5.4496532900    1.3435193142
 C    0.1317919760   -0.8375472120    1.1112691661
 H    0.7805295788    1.8949350138    0.5192635207
 H   -0.1599725235    1.8073315236   -0.9849774641
 H   -0.9921421319    1.7430960334    0.5825783527
 H    0.0213982597   -0.3884518849   -2.0875867521
 H   -0.5728499868   -4.2720246995   -0.1794427916
 H    0.1182218818   -0.4751068999    2.1240017317