17

 C    0.2948748386    1.4148647536    0.0808859065
 C    0.1287109486   -0.0597575401   -0.0081566561
 C   -0.0841331041   -0.9013970118   -1.0241006771
 C   -0.1489973711   -2.2601735777   -0.3092248899
 C   -1.0935004409   -1.9433714520    0.8868145774
 C    0.1759333282   -1.0648588919    1.1795217240
 O    0.9774644755   -2.1594172517    0.6326444907
 C    0.5446046336   -0.6345035993    2.5648790005
 O    0.1267678729    0.3707225308    3.0835306852
 H    1.2865365080    1.6800038054    0.4677890750
 H    0.1738274271    1.8830393290   -0.8996562842
 H   -0.4294546795    1.8513422763    0.7762655968
 H   -0.1933649846   -0.7092653251   -2.0813726333
 H   -0.1798810340   -3.1877172037   -0.8781996768
 H   -2.0394955013   -1.4340946867    0.6987975908
 H   -1.1966345126   -2.7766900581    1.5863717114
 H    1.2247986155   -1.3382922269    3.0920463890