17

 C   -0.0163321206    1.4419399913    0.0848906906
 C   -0.0449028824   -0.0457293893    0.0086969971
 C   -0.0492003749   -0.8924498426   -1.0337876068
 C    0.0300862315   -2.2596950109   -0.3630169353
 N   -0.8873931683   -2.1480543037    0.8274580021
 C    0.0284117104   -1.0117447961    1.1958824364
 C    1.1808535803   -1.9829900756    0.6937610925
 O    1.5271030328   -3.0272807552    1.5361520604
 H    0.8893002968    1.7968342039    0.5931875124
 H   -0.0413319571    1.8937741645   -0.9107655482
 H   -0.8663986884    1.8334569625    0.6580713439
 H   -0.0231267960   -0.6825872126   -2.0941723202
 H   -0.0136401302   -3.1714042872   -0.9589398287
 H   -1.8201636335   -1.8239216864    0.5661051268
 H   -0.0138630165   -0.6273103201    2.2160975899
 H    2.0941004744   -1.5186425802    0.3202166896
 H    0.6856330719   -3.4028308723    1.8346186077