21

 C    0.1246080037    1.5863053835    0.0677110088
 C    0.0160332513    0.0725203834   -0.0242739730
 C    0.6842930114   -0.5089797569   -1.2844125816
 C    0.9116812931   -2.0161687895   -1.1046795749
 C   -0.3815134881   -2.7902256207   -0.7503213580
 C   -0.4273228089   -2.6742763734    0.7958278476
 C    0.8431435112   -1.8531540467    1.1153185832
 O    1.7296479752   -2.1798381484    0.0642643149
 O    0.6125770337   -0.4615256600    1.1640113872
 H    1.1751717232    1.8912901424    0.0898281042
 H   -0.3592160609    2.0580023382   -0.7934209535
 H   -0.3574466163    1.9486819663    0.9798361626
 H   -1.0516226017   -0.2022198315   -0.0360074875
 H    0.0642724320   -0.3005447777   -2.1639217412
 H    1.6588014491   -0.0320182484   -1.4353438987
 H    1.4529931858   -2.4430953489   -1.9516727018
 H   -1.2640228385   -2.3649617132   -1.2355773456
 H   -0.2970447042   -3.8320112016   -1.0670928253
 H   -1.3273499377   -2.1853691068    1.1750329791
 H   -0.3537171116   -3.6550378996    1.2707469927
 H    1.3245975084   -2.1057928005    2.0611698110