16

 C    0.0395430699    1.5787594988   -0.0366189565
 C    0.0239862284    0.0811972259   -0.0579259964
 C    0.5450022606   -0.9296965459   -1.1272988702
 C    0.8448760037   -1.8681243438   -0.0255762400
 C    0.6366695585   -0.8457723410    1.0984428714
 C   -0.8092476385   -1.0775552327    1.5691701234
 O   -1.3658808497   -1.1510722226    2.6233750648
 C   -1.2368424404   -0.8521884395    0.1104783584
 N   -0.5156034475   -1.8946927788   -0.7153266798
 H    1.0629680235    1.9664101667   -0.0852854040
 H   -0.5175325413    1.9915171870   -0.8848076359
 H   -0.4192858023    1.9580858748    0.8833609724
 H    0.9105610107   -0.8453237459   -2.1434903451
 H    1.4088103848   -2.7912982502   -0.0126865215
 H    1.4569217043   -0.5630337936    1.7526098036
 H   -2.2548232147   -0.6435100092   -0.2091824145