15

 C   -0.0119713949    1.4116754648   -0.3836269525
 C   -0.1193357954   -0.0417210892   -0.1197039068
 C   -1.1339972017   -0.8960680530    0.0349695073
 C   -2.6241683467   -0.7727352708   -0.0099315407
 O   -3.0553542432    0.3551665707   -0.7487163476
 O   -0.6159354318   -2.1609304296    0.2880656339
 C    0.7475567169   -2.0579195884    0.2840033979
 O    1.5152306142   -2.9462754697    0.4675933102
 O    1.0672295986   -0.7557542767    0.0273503423
 H    0.5553542285    1.6040437618   -1.3010623928
 H   -1.0122958334    1.8341324296   -0.4837443694
 H    0.5097175126    1.9177943773    0.4360773036
 H   -3.0367886502   -1.7148353290   -0.4007101383
 H   -3.0336192552   -0.6437875674    0.9987473317
 H   -2.8005297182    0.2189543397   -1.6678286888