15

 N   -0.1922039763    1.2805807655    0.0633074258
 C   -0.1161087967    0.0264390142    0.1602694163
 O   -1.1385417263   -0.7379478210   -0.2981261103
 C   -1.0063023412   -2.1331607147   -0.1053032254
 C   -1.4022167574   -2.6746839730    1.2577617312
 C   -2.3259986020   -2.8357111405    0.0798367836
 C    0.0505385319   -2.7628245814   -0.8503735686
 C    0.9443582412   -3.2764588578   -1.4693753095
 H    0.6488383326    1.7090298699    0.4446242541
 H    0.7104451645   -0.5561527443    0.5829468854
 H   -0.8693909457   -3.5420659737    1.6284196491
 H   -1.6635635329   -1.9323747409    2.0031231889
 H   -3.1993029230   -2.1962242050    0.0317637987
 H   -2.4366201053   -3.8147439020   -0.3692373838
 H    1.7274414267   -3.7308822054   -2.0247413955