21

 C    0.1331812209    1.5847179340   -0.0623178610
 C    0.1620860252    0.0602945367    0.0609897429
 O    0.8109811600   -0.3578939957    1.2632605280
 C   -1.2320854131   -0.5473856101   -0.0200569691
 C   -2.0518286634   -0.7020504319   -1.3290177533
 C   -1.1250865516   -1.4805428662   -2.2881942246
 C   -0.6667471033   -2.5769206238   -1.2734888021
 C   -1.4806356556   -2.0762018290   -0.0631285910
 O   -2.7798434326   -1.7889540756   -0.6775280986
 H    1.1427849505    1.9917155629    0.0385166115
 H   -0.2730490184    1.8971457892   -1.0303726690
 H   -0.4956596174    2.0268626302    0.7204319530
 H    0.7968019915   -0.3432928655   -0.7344675598
 H    0.2903380393   -0.0285502465    2.0046201600
 H   -1.8824903620   -0.1086023384    0.7451956163
 H   -2.6908252913    0.0839383373   -1.7321997342
 H   -1.6926729355   -1.8921055010   -3.1249499295
 H   -0.3058107437   -0.8778878312   -2.6901694139
 H   -0.9819314930   -3.5796508764   -1.5678081056
 H    0.4104215603   -2.5906174586   -1.0898553426
 H   -1.5360320870   -2.6955750406    0.8311782226