19

 C    0.4336255482    1.5856710415   -0.1270170895
 C   -0.0134140769    0.1284110255    0.0486092574
 C    0.3758154103   -0.7820258135   -1.1456484313
 C    1.6630230781   -1.4864933449   -0.6919814859
 C    1.6028341693   -1.4406910881    0.8345918630
 O    2.2871383501   -2.0721608237    1.6142522226
 N    0.6356150388   -0.5304724478    1.1769578547
 C    0.3443146877   -0.2035160722    2.5529984193
 H    1.5078302328    1.6443768173   -0.3319733839
 H   -0.1020204520    2.0469834954   -0.9628606498
 H    0.2269038116    2.1791543897    0.7686888003
 H   -1.1004469642    0.1156033346    0.2046625467
 H   -0.4139826004   -1.5189845171   -1.3168760678
 H    0.4952631554   -0.2071543904   -2.0667049386
 H    1.7545103293   -2.5182871485   -1.0355599057
 H    2.5678385618   -0.9585018618   -1.0132351423
 H    0.9327983975   -0.8767189931    3.1789934706
 H    0.6141727600    0.8316404896    2.7960351277
 H   -0.7221006276   -0.3408151123    2.7705318625