17

 N    0.3470063733    1.3110271439   -0.2680404938
 C    0.0056334296   -0.0648869845   -0.0459456127
 C   -0.6594279345   -0.9743542993   -1.0776555915
 C   -1.3892617836   -0.5603796416    0.1818150752
 O   -1.4459463099   -1.4472480578    1.2664866179
 C   -0.1296739347   -1.9199133968    1.5134683334
 C    0.8281321060   -0.7905338668    1.0292377239
 C    2.1158107163   -1.3002908690    0.5700151649
 N    3.1303442962   -1.7094252242    0.1961821596
 H    1.0603707099    1.3962932526   -0.9866753619
 H   -0.4570501916    1.8424353155   -0.5830448390
 H   -0.9775397833   -0.4954762083   -1.9979005683
 H   -0.3282107220   -2.0003854002   -1.1982656116
 H   -2.2636065980    0.0792396687    0.1331247983
 H   -0.0325219469   -2.1267430475    2.5811714373
 H    0.0668077688   -2.8477509844    0.9618533100
 H    1.0064185846   -0.0647069204    1.8290863683