19

 C    0.1422301219    1.5291780767   -0.1807622041
 C   -0.1272676660    0.0371509448    0.0626390550
 C    0.6565982595   -0.5186136629    1.2172414687
 C    2.0997058455   -0.9842066766    1.1458480217
 C    1.0383903831   -1.9147012767    1.6456440974
 O    0.7627973350   -1.6682114171    3.0288332808
 C    0.2921619332   -0.3235123425    2.7032067919
 C    0.9317543233    0.7350144106    3.4655301613
 C    1.4537819977    1.6227014666    4.0859826446
 H    1.1988512699    1.7027529261   -0.4073464280
 H   -0.4524637856    1.9039063212   -1.0192924013
 H   -0.1071616963    2.1252332207    0.7028734415
 H   -1.1994575435   -0.1206982995    0.2402184316
 H    0.1190951031   -0.5340084248   -0.8409446240
 H    2.4502911203   -1.1736463630    0.1351970493
 H    2.8486587993   -0.6062195616    1.8356120827
 H    0.8051201005   -2.8971644249    1.2519279518
 H   -0.7966424508   -0.2851552458    2.8394361246
 H    1.9166847700    2.4038964687    4.6370702947