9

 N   -0.1004805819    1.3182143145   -0.1132880164
 C    0.0042656151    0.0822094009    0.0742945145
 O   -1.0720020345   -0.6292733695    0.4974851395
 C   -1.0317484545   -1.9830968472    0.7238373835
 O   -1.9978291087   -2.5588250201    1.0927022330
 O    0.1463228284   -2.5930636863    0.5042517433
 N    1.3493787237   -1.8212715468    0.0351564758
 N    1.2238534873   -0.6300893839   -0.1390044959
 H    0.7905960949    1.7003424086   -0.4273644374