21

 C   -0.3592144043    1.4221731447   -0.0643697762
 C    0.1235199472   -0.0169110490   -0.1667913585
 C    1.5175327129   -0.2626698615   -0.7820189821
 O    1.9701080942   -0.9354521882    0.4124173376
 C    0.7298181069   -0.6951423964    1.0881267490
 C    0.7761179275   -0.0429606327    2.4819048343
 O   -0.0222562669   -1.1017070059    3.0452328517
 C    0.0758426236   -1.8860955048    1.8302382665
 C   -1.2614591925   -2.4362504366    1.3837643539
 H    0.4053082118    2.0720121566    0.3748302300
 H   -0.6014693106    1.8186725887   -1.0561412604
 H   -1.2609883000    1.4990187077    0.5521792389
 H   -0.6490363171   -0.6388959260   -0.6270637828
 H    1.5601633495   -0.9158024073   -1.6610871815
 H    2.1001678185    0.6458160968   -0.9831518028
 H    1.7942257005   -0.0162249290    2.8928956287
 H    0.3049212140    0.9386953809    2.6062366697
 H    0.8109037795   -2.6960925338    1.9485183208
 H   -1.9856210246   -1.6319622909    1.2214880771
 H   -1.1542330728   -3.0093974795    0.4565181260
 H   -1.6645435476   -3.1055547838    2.1500840600