20

 C   -0.0779967895    1.5251449366   -0.1361763449
 C    0.0723723674    0.0201061085    0.0205050280
 O    0.7540847759   -0.4493138024   -1.1463783747
 C    0.9118324229   -1.8435732473   -1.1478726857
 O    1.6874747253   -2.3027985854   -0.0759124882
 C    1.0732318188   -1.9720235620    1.1623989285
 C    0.8216735314   -0.4763435864    1.2569228223
 C    1.7614151940    0.3852223584    2.0111660270
 N    0.4719569022   -0.0253778434    2.6087235566
 H    0.8977871025    1.9963147086   -0.2773742272
 H   -0.6875160916    1.7386548390   -1.0175322221
 H   -0.5706934462    1.9762339449    0.7304929698
 H   -0.9326266355   -0.4416534601    0.0448022533
 H   -0.0830020613   -2.3312381570   -1.1273915158
 H    1.4421686777   -2.1030995790   -2.0660848102
 H    0.1142032057   -2.5086885212    1.2654850390
 H    1.7391934186   -2.3091808033    1.9592021317
 H    2.6397619591   -0.0554384855    2.4749195744
 H    1.8839757209    1.4201053287    1.7079672439
 H   -0.1883432685    0.7478969782    2.5702710942