21

 O    0.1651437971    1.4589467303   -0.1433627803
 C    0.0422697275    0.0685344606   -0.0215306427
 C    0.1871496937   -0.6515206370    1.3588681148
 C   -0.9063135009    0.0383397471    2.2018649502
 C   -2.0719860179    0.0492370681    1.1505478152
 C   -1.3530616207   -0.6371258470   -0.0302396479
 C   -0.6145990945   -1.7795936931    0.6876368054
 C   -0.0953486336   -3.0488075346    0.0986983681
 C   -1.1148621613   -3.0770731061    1.2288355635
 H   -0.4110778986    1.8828050972    0.5001915580
 H    0.7110805872   -0.3631240917   -0.7675685853
 H    1.1588327147   -0.8232112583    1.8229841284
 H   -1.1586656323   -0.5371944625    3.0957688538
 H   -0.6134283909    1.0410562998    2.5321408978
 H   -2.9410881446   -0.5205245536    1.4882146553
 H   -2.4202576126    1.0579488636    0.9025408464
 H   -1.9163807964   -0.7944746690   -0.9505448072
 H   -0.4308913713   -3.3388134889   -0.8923104105
 H    0.9218578748   -3.3515209736    0.3277083579
 H   -0.7752320073   -3.3971135104    2.2092158464
 H   -2.1282377722   -3.3844289009    0.9890008728