18

 C    0.1103629586    1.4532700705    0.1208693923
 C   -0.0610620038   -0.0209956254    0.0491195689
 N   -1.1447866526   -0.7158538775    0.1827620606
 C   -0.7425334067   -2.0423519013    0.0227918238
 C   -1.7328107860   -3.1661371625    0.1157519378
 O   -1.4184471635   -4.2716553696   -0.7234730630
 C    0.5967517343   -2.0768851093   -0.2074005677
 C    1.6000072868   -3.1465255561   -0.4380818661
 O    1.0424283444   -0.7748411408   -0.1954769690
 H    0.8062168880    1.7316462168    0.9193256445
 H    0.5113005324    1.8511096936   -0.8173183006
 H   -0.8585531665    1.9127734657    0.3173055485
 H   -1.7646240276   -3.5779151447    1.1312469248
 H   -2.7321983996   -2.7602385568   -0.0951270048
 H   -1.3932336717   -3.9433764731   -1.6287075742
 H    2.1544623347   -2.9811086819   -1.3689126323
 H    2.3342181711   -3.1909467484    0.3749127467
 H    1.0848780278   -4.1060083691   -0.5005714702