18

 C   -0.4126344053    1.3988418792    0.0908105320
 C    0.4104022727    0.1275486008   -0.1549567804
 C    0.9469691153   -0.4841733448    1.1269177254
 C    2.0373318732    0.2817781684    1.8469283761
 O   -0.0523677611   -1.0481855338    1.9885410450
 C    0.8661732995   -1.9521356595    1.3489936286
 C    0.3354399557   -2.8745462012    0.3813834696
 C   -0.0787076695   -3.6752848258   -0.4144120850
 H    0.1901977021    2.2025809516    0.5250184517
 H   -0.8314087682    1.7721558202   -0.8481325717
 H   -1.2412281980    1.1896855965    0.7737038746
 H   -0.2082809698   -0.6155640438   -0.6652083560
 H    1.2560597156    0.3468636252   -0.8189017839
 H    1.6903445967    1.2824654167    2.1223229395
 H    2.3334591857   -0.2350716708    2.7628900116
 H    2.9181425835    0.3949869229    1.2062501228
 H    1.5955139408   -2.3902984405    2.0313883364
 H   -0.4519647687   -4.3781876012   -1.1177379762