19

 C   -0.0087329628    1.5585945625    0.2944645109
 C   -0.1075541759    0.0720729465    0.1251214484
 N   -1.1647836340   -0.4936021059   -0.2964147143
 C   -1.2114673304   -1.9350067947   -0.2853417501
 C   -1.2278450422   -2.7069358262   -1.6335599973
 N   -0.1119538218   -3.5938569454   -1.1608742473
 C    0.0694955053   -2.7379849971    0.0501601241
 C    1.2896723085   -1.8300824867   -0.0877350549
 O    1.0566909451   -0.5384206867    0.4939344665
 H    0.7830214555    1.9646277993   -0.3434082267
 H   -0.9622633870    2.0219457091    0.0442397258
 H    0.2580730846    1.7989099951    1.3289528283
 H   -2.0559775549   -2.2373382510    0.3430199558
 H   -2.1574418866   -3.2224105305   -1.8909021079
 H   -0.9200936154   -2.0948299585   -2.4872256321
 H   -0.4658544688   -4.5084704837   -0.9028671789
 H    0.0758787257   -3.2717701723    1.0045433747
 H    2.1773061574   -2.2248019946    0.4107749034
 H    1.5168843878   -1.7031632292   -1.1528742784