19

 C   -0.1649146884    1.5989525320   -0.1077469194
 C   -0.2064098191    0.0709763397   -0.1652217060
 C    0.9861647287   -0.5145454685   -0.9499180145
 C    0.9710535973   -1.9706176454   -1.0178434872
 C    0.9317463817   -3.1724081419   -1.0595941627
 C    0.9056786457   -4.6341766990   -1.1158234131
 N    0.8542760001   -5.1103389979   -2.5047411330
 C    2.0494162114   -5.1950741115   -0.3473327173
 N    2.9392883203   -5.6798148928    0.2088945067
 H    0.7506585172    1.9536086902    0.3784895074
 H   -0.1976048851    2.0360276622   -1.1119160675
 H   -1.0152863999    1.9946504899    0.4551530469
 H   -0.2014071601   -0.3456162472    0.8480041825
 H   -1.1376302185   -0.2653664789   -0.6340828901
 H    0.9889400203   -0.1055897553   -1.9690598778
 H    1.9256651192   -0.1829454143   -0.4883634205
 H   -0.0068038757   -4.9922519469   -0.6194357968
 H    1.6805533213   -4.7867531692   -2.9997421190
 H    0.8822736636   -6.1265411553   -2.5135992286