21

 C   -0.0484729799    1.4576374883    0.0752541186
 C    0.0017965173   -0.0472845181   -0.0058019980
 C    1.3244710016   -0.7520229272   -0.2864297633
 C    0.6353938442   -0.9227064400    1.0477485035
 O    1.1790807244   -0.3543034153    2.2006488303
 C   -0.4574639901   -2.0001439962    1.2248501385
 C   -1.7249198994   -1.0777729599    1.2843261847
 C   -1.3227196160   -0.8241785559   -0.2144247696
 C   -0.9122928690   -2.3210865763   -0.2238131761
 H    0.8361201918    1.8508007425    0.5842204441
 H   -0.0981313084    1.9112863977   -0.9214280016
 H   -0.9279292708    1.7939244908    0.6361223355
 H    1.4239625338   -1.5580869596   -1.0039248441
 H    2.1862506806   -0.0913891145   -0.2540213133
 H    1.9123912187   -0.9075668683    2.4896310157
 H   -0.2648638115   -2.7841393366    1.9590730764
 H   -2.6622199121   -1.6301079332    1.3945274978
 H   -1.6928751772   -0.2303791607    1.9733326871
 H   -2.0255344747   -0.4189689223   -0.9440330689
 H   -0.1900744729   -2.6847674583   -0.9553546944
 H   -1.7874063905   -2.9747646967   -0.2290850532