16

 O    0.1064021336    1.4282955519   -0.0529225737
 C   -0.0474408431    0.0640102642    0.0461817593
 C   -0.4279641227   -0.7436823294    1.2540130462
 C   -1.6181252611   -0.1796763015    2.0624890597
 N   -2.0371201326    1.1287579438    1.4754645776
 C   -2.4832036115   -0.1574295904    0.8730447703
 C   -1.3517744520   -0.7343952567   -0.0285280134
 C   -1.5915288658   -1.7733301502   -0.9620351796
 C   -1.8094116413   -2.6522826548   -1.7572268169
 H   -0.6170781245    1.8026915890    0.4820387663
 H    0.7211672881   -0.4402359984   -0.5361187667
 H    0.1600524448   -1.5801253741    1.6108743669
 H   -1.8451030779   -0.4213514203    3.0916037435
 H   -2.8064601778    1.4903345680    2.0370189887
 H   -3.5327942275   -0.3887426794    0.7536011573
 H   -1.9927309889   -3.4224054417   -2.4641495354