18

 C    0.0265807401    1.5057045854    0.0343506997
 C   -0.0001323284   -0.0215728093   -0.0352671200
 O    0.7629156170   -0.6151861857    1.0080039751
 C   -1.4100328954   -0.5663669629   -0.0337303636
 C   -2.1884103173   -1.0226850312    1.1607374395
 C   -1.8781568106   -2.0096586916    0.0253756140
 C   -2.7962837220   -1.6610124853   -1.1324279863
 O   -3.6336520985   -2.2161362593   -1.7827238969
 N   -2.2952207103   -0.3369997526   -1.1882276948
 H    1.0592713375    1.8645370987    0.0220521623
 H   -0.5022076630    1.9463325506   -0.8162390175
 H   -0.4566884755    1.8616876122    0.9529820023
 H    0.4780664246   -0.3435616158   -0.9680545157
 H    0.5783856066   -0.1315431821    1.8203815028
 H   -1.6206031373   -1.2156547436    2.0659352182
 H   -3.2068549333   -0.6808868344    1.3213619511
 H   -1.3091956915   -2.9137112297    0.1861148396
 H   -2.9106300230    0.4664260166   -1.2658874700