16

 O   -0.1419687595    1.4171393700   -0.0686794624
 C   -0.0105648539    0.0519316824    0.2781438253
 C   -1.3545991340   -0.6369946962    0.1884415882
 N   -1.7854069933   -1.0696969044   -1.1223025101
 C   -1.5148830408   -2.1213604868   -0.1229126341
 C   -0.3230660204   -2.9923900081   -0.3559839244
 O   -0.0954519844   -3.9836716784    0.2921717969
 C   -2.7053314323   -2.7585108302    0.5274740812
 O   -3.8083219390   -2.2685058268    0.4631708615
 H   -0.4228568612    1.4504843802   -0.9902948224
 H    0.7254064510   -0.4599043236   -0.3566659946
 H    0.3556088449    0.0280498960    1.3091034136
 H   -2.1173850413   -0.2412536887    0.8576814423
 H   -2.8012372752   -0.9897282955   -1.1949059364
 H    0.3322885773   -2.6623775777   -1.1882751083
 H   -2.5032921279   -3.7073138524    1.0550772638