16

 N   -1.5541584071    0.1492929174    0.4211368337
 C   -0.8427507364    0.9273852418   -0.0507570352
 C    0.0293590722    1.9680927104   -0.6011539490
 C    1.4302884063    1.9860263056    0.0225346222
 C    2.4831347800    1.1159871237   -0.6617691758
 C    2.0979412293   -0.2875998167   -0.8136689251
 N    1.7951847604   -1.3929168264   -0.9585083137
 C    1.8841085662    3.2455147889    0.6727242182
 N    1.5582492736    2.0583881354    1.4764316702
 H    0.0961428182    1.8397203539   -1.6871469150
 H   -0.4641006672    2.9309694332   -0.4315054226
 H    2.7076463759    1.5183802528   -1.6573355914
 H    3.4039180993    1.1630940450   -0.0733342802
 H    2.9363642713    3.5175191230    0.6627461117
 H    1.2009709194    4.0908922396    0.6714598235
 H    0.6495655287    2.1418540625    1.9256615585