17

 C    0.0367734389    1.5219767540   -0.0630075574
 C    0.0213318965    0.0224481620    0.0509156582
 O    0.5773424433   -0.5776808744   -1.1625865884
 C    0.1749104365   -1.9562817684   -1.2029847444
 C   -0.6991864961   -2.1431755587    0.0670555961
 C    0.1918285123   -1.9290696249    1.2669818344
 C    0.6350879096   -0.6581558642    1.2502640975
 C   -1.3376301145   -0.7229317376    0.0729600059
 O   -2.4676845593   -0.3440051400    0.0912294831
 H    1.0622248457    1.8942868400   -0.1393453419
 H   -0.5148052628    1.8390954876   -0.9510288525
 H   -0.4350284264    1.9698515652    0.8160842622
 H   -0.4061796220   -2.1418988095   -2.1148600579
 H    1.0598919207   -2.6029615977   -1.2023583875
 H   -1.3683174126   -2.9999240794    0.0664145858
 H    0.4296402579   -2.6969427417    1.9921501773
 H    1.3062576422   -0.1839777923    1.9550897595