19

 C    0.2436685395    1.5331287904    0.3038228255
 C    0.0630533482    0.0662788820    0.0845777137
 C   -1.0452807901   -0.6446390827   -0.1295218074
 C   -2.4753359777   -0.1756049105   -0.1950280302
 C   -3.1247836884   -0.4901307773   -1.4683301470
 C   -3.6475268119   -0.7570126246   -2.5168902477
 C   -0.6889228175   -2.0995854003   -0.2939657599
 O    0.7252685240   -2.1678565222   -0.1558061849
 C    1.2470882061   -0.8680672312    0.0817794672
 H    0.9080112078    1.9636940249   -0.4559467980
 H   -0.7013034551    2.0805381903    0.2693532652
 H    0.7115879910    1.7313798931    1.2764261301
 H   -3.0512362647   -0.6442319996    0.6171130262
 H   -2.5276134659    0.9041777662   -0.0169668435
 H   -4.1130418149   -0.9888588356   -3.4425897581
 H   -1.1730613747   -2.7328213276    0.4688413349
 H   -0.9924939994   -2.4918400554   -1.2765031237
 H    1.9766185119   -0.6045529201   -0.7023754604
 H    1.7906981519   -0.8474997298    1.0415272781