20

 C   -0.2832000498    1.4572141265    0.1703648492
 C    0.0866354152   -0.0045714952   -0.0355459891
 C   -1.0940524396   -1.0008674161    0.2152118912
 C   -0.4447278424   -1.4498449448    1.5527923013
 C    0.8602003334   -0.7041855876    1.1442249831
 C    1.8917151733   -1.5337828880    0.4321624965
 C    1.9103350417   -1.3156933342   -0.8836786583
 C    0.9039371752   -0.2760986783   -1.3197618988
 H    0.6100942073    2.0920872889    0.1914402155
 H   -0.9302852296    1.8185443127   -0.6380075982
 H   -0.8205753663    1.6069953290    1.1136688965
 H   -2.0873355067   -0.5490978849    0.2874577166
 H   -1.1341738503   -1.8003970787   -0.5291899465
 H   -0.9230021823   -1.0021977834    2.4283856643
 H   -0.3581112454   -2.5265507633    1.7200221393
 H    1.2970485886   -0.0652037849    1.9206780807
 H    2.5390398657   -2.2312180335    0.9549881902
 H    2.5789094775   -1.8053445854   -1.5845438650
 H    0.2653447881   -0.6270534503   -2.1416068096
 H    1.4058222964    0.6297917117   -1.6907488090