17

 C   -0.0087464660    1.5735637584    0.0554971962
 C   -0.0173340658    0.0473021792   -0.0397289478
 N    0.6714556215   -0.4447747157   -1.2253301586
 C    0.0558209437   -0.7495469744   -2.4198387203
 O   -1.1215269651   -0.6584557802   -2.6707457702
 C    1.1693668783   -1.2349046809   -3.3565115533
 N    2.3553284723   -1.0529297534   -2.5482870053
 C    2.0639167981   -0.6672144558   -1.2638736210
 O    2.8214650282   -0.5294661288   -0.3334327313
 H    1.0164682409    1.9500475299    0.1060306265
 H   -0.5079546270    2.0198734743   -0.8091214063
 H   -0.5363267495    1.8941475485    0.9588297724
 H    0.4817063491   -0.3941056248    0.8264308171
 H   -1.0401608879   -0.3333150804   -0.0937807362
 H    0.9841216817   -2.2803538228   -3.6318126655
 H    1.1744325413   -0.6350227713   -4.2729058478
 H    3.2546199661   -1.4522276518   -2.7546434588