20

 C   -0.0821817749    1.5873271817   -0.0518796472
 C    0.0192729841    0.0596365554    0.0182161593
 C    0.7910660056   -0.5732701406   -1.1714314817
 C    1.5537248540   -1.7833551276   -0.5810124767
 C    1.6178022422   -1.4553892337    0.8967067724
 C    2.4953739370   -2.2314829446    1.8225731873
 O    2.3299058315   -1.7707483935    3.1517099688
 C    0.7840212939   -0.4653228306    1.2142592362
 H    0.9140241820    2.0434841619   -0.0628811186
 H   -0.6099509961    1.9065417948   -0.9573319282
 H   -0.6254407866    1.9903707277    0.8095457272
 H   -1.0069899469   -0.3405580803    0.0484121552
 H    0.1386550064   -0.8447847503   -2.0059416436
 H    1.5131659434    0.1588606490   -1.5510210835
 H    1.0114358883   -2.7269396342   -0.7419984327
 H    2.5432141807   -1.9210815985   -1.0347696850
 H    2.2508870931   -3.3062047963    1.7361783643
 H    3.5454646934   -2.1331806947    1.4917152568
 H    2.9191347206   -2.2764735349    3.7180834432
 H    0.6339731782   -0.0922198507    2.2202907767