27

 C   -0.6409789434    1.3429251495   -0.3315080757
 C   -0.0991455109   -0.0822618529   -0.2167482460
 C    1.2568206474   -0.3898502972   -0.9346093103
 C    1.7436775784    0.5003722470   -2.0714803222
 C    1.9934197377   -0.3909236918    0.4541470120
 C    2.9000874870   -1.5979478922    0.6978318328
 C    2.7672593682    0.8952345429    0.7635776931
 C    0.5796809862   -0.4805468463    1.1357116774
 C    0.2789450840    0.3042127674    2.4068156322
 H    0.0918456090    2.1078573179   -0.0582798580
 H   -0.9630331740    1.5526667529   -1.3572056219
 H   -1.5113955626    1.4791757412    0.3193193139
 H   -0.9038677183   -0.7653386974   -0.5098722079
 H    1.2261401914   -1.4228279490   -1.3012282652
 H    1.7832291949    1.5563091868   -1.7895330621
 H    2.7482184992    0.2075364229   -2.3973387879
 H    1.0825864968    0.4168779385   -2.9415609684
 H    3.7922711426   -1.5620007702    0.0606148267
 H    3.2431345541   -1.6355965591    1.7390962919
 H    2.3763741161   -2.5362084290    0.4853542356
 H    2.1759859809    1.8014072724    0.6099454564
 H    3.1083790446    0.8996723110    1.8048689575
 H    3.6566362912    0.9731551756    0.1282772048
 H    0.3653463281   -1.5381216982    1.3306181190
 H    0.4497651007    1.3777617597    2.2869207404
 H   -0.7656643126    0.1692428327    2.7095162192
 H    0.9051093028   -0.0391935753    3.2380976627