19

 C    0.1235810668    1.6080503701    0.0772821314
 C    0.0283803170    0.0850699907    0.0940513325
 O    0.8207582717   -0.4841356261    1.1312190418
 C   -1.4270687617   -0.4619959903    0.1700412888
 C   -2.2615203911    0.0627248976    1.3407280553
 C   -2.1525477563   -0.2143864177   -1.1538713305
 O   -1.6083711204   -0.1587347508   -2.2271863891
 C   -1.2930320898   -1.9975412886    0.2645749567
 O   -1.9210043477   -2.6845899006    1.0220242516
 H    1.1725065013    1.9035653528   -0.0080504617
 H   -0.4232233157    2.0299674020   -0.7705519091
 H   -0.2784547515    2.0466539730    0.9975499144
 H    0.4596202969   -0.3030083369   -0.8332215719
 H    0.5804140454   -0.0636926543    1.9639095629
 H   -2.4935783576    1.1250442074    1.2271766969
 H   -3.1985408957   -0.4938413989    1.4162050308
 H   -1.7369101683   -0.0801638153    2.2895705920
 H   -3.2567752921   -0.1153729563   -1.0608181152
 H   -0.5654275313   -2.4256808379   -0.4555357375