19

 C   -0.0349670549    1.5065150401    0.0161001829
 C    0.0004163785   -0.0057897864    0.0165506756
 C   -1.2094610544   -0.6862954013   -0.6042261919
 C   -1.1165439121   -2.2150910091   -0.5731939676
 N   -0.7402312039   -2.6874010393    0.7476803460
 C    0.1079566531   -2.0494477193    1.6151346504
 O    0.3860514917   -2.5112865730    2.7069405294
 C    0.6546524225   -0.7289702072    1.1511535779
 N    1.3318750802   -0.5916589915   -0.1630330611
 H    0.8696041115    1.9094467839    0.4768448517
 H   -0.0934551455    1.8918611984   -1.0081370204
 H   -0.9053968629    1.8772706193    0.5680045794
 H   -2.1042410534   -0.3647721205   -0.0573082331
 H   -1.3345068410   -0.3588866968   -1.6433007404
 H   -2.0879964269   -2.6454259965   -0.8339023094
 H   -0.4102016063   -2.5656922836   -1.3421563492
 H   -1.0458943555   -3.5981327304    1.0549920252
 H    1.1288224217   -0.1781569413    1.9569625151
 H    1.2988131576   -1.4696644557   -0.6755623305