22

 C    0.0661671773    1.4961847059    0.2519353743
 C   -0.0281539126   -0.0012550566   -0.0749905398
 C   -1.4425326152   -0.5152580289   -0.0672397345
 C   -2.1548848256   -1.0335938600    1.1601449944
 C   -3.4322983962   -0.5529801524    1.8446521136
 C   -1.9611761102   -1.9595151351   -0.0268441822
 C   -2.8462130287   -1.6570388069   -1.2626444148
 N   -3.7963548410   -0.5625306702   -0.9394040951
 C   -2.3823627290   -0.2591586997   -1.2906610826
 H    1.1028323296    1.8456972550    0.2153327826
 H   -0.5122927459    2.0945537743   -0.4604021800
 H   -0.3279924290    1.7033002043    1.2519201727
 H    0.4260581546   -0.1893035716   -1.0583172654
 H    0.5643070510   -0.5748595550    0.6485170452
 H   -1.3921814290   -1.2993871810    1.8941838396
 H   -4.2182992221   -1.3114989473    1.8031537706
 H   -3.2229382634   -0.3441061433    2.9000930593
 H   -3.8327098333    0.3487900544    1.3853691127
 H   -1.3779143732   -2.8699573613    0.0520134918
 H   -3.0400472940   -2.3458263948   -2.0745863443
 H   -4.3455743769   -0.3933542193   -1.7829772082
 H   -2.1373762471    0.3819089794   -2.1283301200