12

 N    0.1141784735    1.4362730248    0.0788507985
 C    0.0142903022    0.0534149706    0.0112435339
 C   -1.0950985447   -0.7696725170   -0.0001292173
 N   -2.4362377481   -0.3225588989   -0.0287684531
 N   -0.6715818772   -2.0661355559    0.0032388954
 N    0.6253556694   -2.1052798818    0.0089345957
 N    1.0547531799   -0.8091731973    0.0303144698
 H    0.7692636350    1.8369591946   -0.5821304655
 H   -0.8047603320    1.8441114400   -0.0572827926
 H   -2.8937082674   -0.4715594294    0.8665751550
 H   -2.9689784003   -0.8483084625   -0.7149813243
 H    2.0416602798   -0.6151339871    0.0737789845