15

 O    0.3700164235    2.3086115748   -1.4245219072
 C    0.1004187510    1.8128357741   -0.3467135459
 N    0.9683669895    1.1563098483    0.4587169831
 C    2.3551428897    0.9134780139    0.2116793171
 C    2.9130980275    0.6291152860   -1.1812891581
 C    3.2589368728    1.9151134001   -0.5038715893
 C    2.9716554193    0.1603030385    1.3257888325
 O    2.3661941299   -0.1961678553    2.3097875543
 H   -0.9132919664    1.8508741552    0.0964444455
 H    0.6483731427    0.7757946748    1.3402891457
 H    3.6649114211   -0.1484835376   -1.2657398200
 H    2.1898402129    0.6787645681   -1.9838847991
 H    2.7622660869    2.8059682215   -0.8636688709
 H    4.2578977427    2.0556798499   -0.1045575971
 H    4.0515802969   -0.0580332923    1.1893968994