23

 C   -0.0450848912    1.5662595869   -0.0854153819
 C    1.4442504654    2.0193259750   -0.0274553171
 C    2.2007910932    0.8123333283    0.5464887539
 C    3.6990792974    0.7023464619    0.2663137190
 C    4.1960028413   -0.6989061793    0.5395138334
 C    3.3978844459   -1.7553531626    0.7027247066
 C    1.8903003814   -1.6992181660    0.6072554460
 C    1.4342831515   -0.3882929084   -0.0322655193
 C   -0.0360066918    0.0237624074    0.1322108874
 H   -0.6438167796    2.0636834144    0.6828537290
 H   -0.4948210206    1.8311314100   -1.0465232940
 H    1.8145394411    2.2332988027   -1.0376352963
 H    1.5844146617    2.9314378478    0.5601067102
 H    2.0574045601    0.7936395802    1.6381485449
 H    3.9088683987    0.9714183397   -0.7809014766
 H    4.2661991971    1.4219519999    0.8711958541
 H    5.2737507118   -0.8306170417    0.6068431204
 H    3.8381328187   -2.7273165073    0.9146015754
 H    1.5218257159   -2.5632040210    0.0388394361
 H    1.4520938745   -1.8023050434    1.6124514658
 H    1.6684712368   -0.4356125318   -1.1072296818
 H   -0.3692006993   -0.2171286614    1.1492241163
 H   -0.7073503900   -0.5021824313   -0.5529919616