19

 C   -0.0748787579    1.6070106522    0.1838689077
 C    1.4534358081    1.3840443776    0.0129087049
 C    1.6975563322    0.4756858583    1.2457095300
 O    0.5497800001   -0.4263000706    1.1670753391
 C   -0.0552118612    0.0630014491   -0.0174568545
 C   -1.1257027674   -0.6622092586   -0.7811544634
 O   -0.9909492712   -0.1227002729   -2.1025897286
 C    0.3255301218    0.4532027292   -2.3178653641
 C    1.1088592142    0.2660092862   -1.0211964804
 H   -0.4369288962    1.9650508724    1.1502398349
 H   -0.5412623694    2.1570510332   -0.6315133277
 H    2.1726064361    2.1856309355   -0.1572663017
 H    2.6225695006   -0.1087130270    1.1877438154
 H    1.6745202757    1.0243030698    2.1932047179
 H   -0.9475211626   -1.7480395415   -0.7638823542
 H   -2.1482581252   -0.4655202190   -0.4450208622
 H    0.8034751702   -0.0742290073   -3.1505495344
 H    0.1917218446    1.4990897664   -2.6169480998
 H    1.8226313776   -0.5598191229   -1.0839218890