17

 C   -0.1465143299    1.5366503444    0.0472443964
 C   -0.0664504028    0.0469379434   -0.0118889944
 C   -0.0959940258   -0.7284298446   -1.1112173973
 C    0.0071474828   -2.1631420985   -0.7735601851
 O   -0.0191457391   -3.1101910307   -1.5238497649
 C    0.1844774065   -2.2284054414    0.7556389716
 O    1.5892074314   -2.3088786242    1.1198648251
 C    1.5584401477   -0.9982486977    1.7144114038
 C    0.0947887483   -0.7732291766    1.2460638931
 H    0.7426670730    1.9535377706    0.5369412036
 H   -0.2347496970    1.9824556109   -0.9458648196
 H   -1.0072326795    1.8535800734    0.6495278873
 H   -0.1869333879   -0.3800960162   -2.1329964438
 H   -0.4133769906   -3.0126988090    1.2280718261
 H    1.6798651556   -1.0462511504    2.8034389078
 H    2.3177543581   -0.3297186861    1.2919049399
 H   -0.6204064609   -0.5141209574    2.0292324403