18

 O    0.0631582521    0.0076022315    0.0005220674
 C    0.0147527503    1.1989326024   -0.0476516965
 C   -1.0786231996    2.2836388030    0.0292806835
 C   -0.0505723767    2.9964900051    0.9742241021
 C    1.0290084719    2.3667228637    0.0266013500
 C    0.7093699717    3.0753486562   -1.2891233132
 C    1.5569128919    4.1412302895   -1.8639588567
 N    1.4418423024    2.8224100506   -2.5277043137
 C   -0.8394197960    3.0384525659   -1.3014282605
 H   -2.1009193953    2.0614086689    0.3267716834
 H   -0.0903695738    4.0877006889    0.9939456278
 H   -0.0293485249    2.5863039013    1.9850818749
 H    2.0728937814    2.2359886459    0.3066649010
 H    1.1033696616    4.9649857307   -2.4098636503
 H    2.4853585436    4.3922093798   -1.3561455713
 H    2.2733429583    2.2641806288   -2.3460644899
 H   -1.2151753161    2.5027586574   -2.1761886902
 H   -1.2861988928    4.0370498403   -1.2831804379