22

 C   -0.0244046632    1.5661175686    0.1320195636
 C   -0.0210791977    0.0387541942    0.0111845712
 C    0.6936693903   -0.5048210389   -1.2347169793
 C    0.7829191238   -2.0352556532   -1.2249157210
 C    1.5218104332   -2.5278985319   -2.4608156003
 O    0.9598094786   -2.0460073342   -3.6906028770
 C    0.5957258579   -0.7302158074   -3.7804540799
 N    0.6517052353   -0.1053377814   -4.8805944710
 C    0.0075475821   -0.0862312166   -2.5453748614
 H    0.9957103174    1.9659616490    0.1214336997
 H   -0.5754683176    2.0414217245   -0.6850106196
 H   -0.4938011791    1.8804477963    1.0691423101
 H    0.4624725569   -0.3894247202    0.8987979721
 H   -1.0547139966   -0.3341940790    0.0196838704
 H    1.7199301422   -0.1061258683   -1.2397563215
 H    1.3098444250   -2.3944793600   -0.3332066769
 H   -0.2269812468   -2.4653361741   -1.2009348017
 H    2.5764242622   -2.2189989236   -2.4164116116
 H    1.4948412148   -3.6174326772   -2.5419526296
 H    1.0414200621   -0.7161245927   -5.6026800478
 H   -1.0488052252   -0.3896852874   -2.4941507110
 H    0.0231184642    0.9923495234   -2.7038643375