17

 N   -0.0293511984    1.1928305139    0.7184553159
 C    0.0514538173    0.0997081216    0.0818127916
 O    1.2555022779   -0.4967002144   -0.1737125281
 C    1.5375893942   -0.9880642902   -1.4795634822
 O    0.9407856918   -2.1999368843   -1.7905186268
 C   -0.3595319884   -2.1073397254   -2.3356642681
 C   -1.4185585091   -1.6111872906   -1.3745401551
 N   -1.3313312568   -2.0393739519    0.0133237770
 C   -1.2136131230   -0.5963001800   -0.2962047302
 H    0.9099169646    1.5414561827    0.9218684868
 H    1.2759119954   -0.2167176688   -2.2217631306
 H    2.6155280318   -1.1568894036   -1.4710910554
 H   -0.3563578554   -1.4611164330   -3.2291157831
 H   -0.6161508003   -3.1215741439   -2.6585279677
 H   -2.4038218520   -1.5731144977   -1.8425407262
 H   -2.2480962266   -2.2345534123    0.4050153600
 H   -2.0660313631    0.0374238479   -0.0709644779