22

 C   -0.4586782698    1.4525667858    0.0626696175
 C   -0.0007392197   -0.0101106323   -0.0323626719
 C    0.8874300421   -0.3205737136   -1.2789816741
 N    2.2790947797   -0.5744297291   -0.8564095322
 C    2.8815848028    0.5252882959   -0.0885098218
 C    2.2765972185   -0.6361231985    0.6154184700
 C    0.8703963922   -0.5076166390    1.1379223846
 C    0.6046759240   -0.1539879962    2.5795057712
 C    0.3643382214   -1.5615080932    2.0947575602
 H    0.3777984873    2.1520643235    0.1485703303
 H   -1.0317157136    1.7293879434   -0.8289566374
 H   -1.1073962565    1.6105782437    0.9304001751
 H   -0.9064477177   -0.6237326442   -0.0887714369
 H    0.5351624258   -1.2297084779   -1.7768529974
 H    0.8629704704    0.4871783607   -2.0183557825
 H    3.9619698383    0.5974622999   -0.1818969490
 H    2.3710801472    1.4827704543   -0.0457248436
 H    2.9207860208   -1.3820296439    1.0761392793
 H    1.4591737414    0.0291073870    3.2229046361
 H   -0.2585098816    0.4612233586    2.8103291827
 H   -0.6633138808   -1.8935222646    1.9860231721
 H    1.0519666878   -2.3397931503    2.4111840178