19

 C   -0.0579901878    1.4458925177   -0.0392490266
 N    0.0067285447   -0.0041999753   -0.0963748846
 C   -1.2284066030   -0.7588287873    0.1046654249
 C   -1.1893633084   -2.0706295425   -0.6674854566
 N   -0.0400161052   -2.8923515461   -0.2556506621
 C    1.0766356897   -2.9545695194   -1.1964814495
 C    1.1803825071   -2.1316283037    0.0396206749
 C    1.2269168672   -0.6255988473   -0.0378039452
 O    2.2912731859   -0.0312803086   -0.0209365909
 H    0.9476706079    1.8352224775   -0.1921133134
 H   -0.7269410848    1.8291651527   -0.8179187059
 H   -0.4287108679    1.7907313615    0.9353003945
 H   -1.4032380043   -0.9490941871    1.1743621237
 H   -2.0629698161   -0.1482395646   -0.2541578995
 H   -2.1062751449   -2.6392336374   -0.4777159877
 H   -1.1570352136   -1.8453780480   -1.7423317768
 H    1.5966947703   -3.9064045485   -1.2554710276
 H    0.9759843060   -2.4281246101   -2.1439262484
 H    1.7748821171   -2.5140902436    0.8654402667