13

 C   -0.0076750638    1.5187535871   -0.0485725327
 N    1.3613352517    2.0482318453    0.0400797671
 C    2.3619442555    1.2902532102    0.2511296367
 N    2.3602444852   -0.0867921695    0.4479122976
 C    1.1373705618   -0.6944991381    0.2147689006
 C    0.0112876108    0.0259547044   -0.0102182499
 O   -0.9895805892   -0.8308704501   -0.1895151949
 N   -0.4203364377   -2.1467764760   -0.0663452561
 N    0.8178353241   -2.0172297078    0.1714110593
 H   -0.6060395968    1.9347646187    0.7749941315
 H   -0.4736473514    1.8900725676   -0.9709229647
 H    3.3534290886    1.7364126484    0.3108064961
 H    3.2148031011   -0.6124902103    0.3609484894