21

 C    0.3820444974    1.4676081076    0.1279463536
 C   -0.0613902296   -0.0075196201    0.0021287423
 C    0.5033237040   -0.8223258266    1.1879327890
 C   -1.6047650025   -0.0879052821    0.0053400346
 C    0.4528059331   -0.5651721144   -1.2555170395
 C    0.8758411410   -1.0244236315   -2.2846473912
 C    1.3890170400   -1.5810902717   -3.5387972112
 C    2.2785922851   -2.7297557607   -3.3523456143
 C    3.0092899926   -3.6721717928   -3.2132230435
 H    1.4726444086    1.5491278970    0.1263550308
 H   -0.0045581148    2.0645543163   -0.7030209409
 H    0.0057610711    1.8955419302    1.0634645660
 H    0.1283355480   -0.4178939454    2.1343897455
 H    0.2038559300   -1.8717938132    1.1185365771
 H    1.5960185842   -0.7820166663    1.2044230292
 H   -2.0278367161    0.4804451795   -0.8279045930
 H   -1.9420891537   -1.1243583908   -0.0843083772
 H   -2.0014448085    0.3241065382    0.9395825149
 H    0.5486839147   -1.8784505045   -4.1816587909
 H    1.9234245844   -0.8001708718   -4.0977484361
 H    3.6547744712   -4.5051685970   -3.0841690449