18

 O    0.0053155345    0.0996788570    0.5393357159
 C    0.0014614001    1.2262071436    0.1151588055
 C   -1.2505989551    1.9921647193   -0.3541485024
 C   -0.8213955867    3.4439978573   -0.6780313146
 C    0.7198823314    3.5000024259   -0.5567051902
 C    1.2165736053    2.1349737948   -0.0442266331
 C    2.0071981300    2.0328595413   -1.3614905623
 C    1.1610230372    2.2013194587   -2.5564570704
 N    1.5658330236    3.4132613606   -1.8197748454
 H   -1.6679517791    1.4615171093   -1.2175969574
 H   -2.0119103101    1.9317974923    0.4295241226
 H   -1.1447347229    3.7662805862   -1.6718020696
 H   -1.2666578957    4.1411453537    0.0369392562
 H    1.0606897603    4.3702381492    0.0040863946
 H    1.8471999609    2.1263892572    0.8448532977
 H    3.0422332594    1.7138758239   -1.4195964981
 H    1.6567378059    2.1283817706   -3.5197546486
 H    0.1237846811    1.8811601192   -2.5745974405