19

 C    0.0145936246    1.5381076062    0.0382982711
 C    0.0234952997    0.0219411807   -0.0561037276
 C    0.7948837858   -0.4966640572   -1.2685363257
 O    0.8718578177   -1.9141516564   -1.2570234254
 C    1.4907367209   -2.3813683113   -0.0775878912
 C    0.7375999721   -1.8934822065    1.1725008290
 O    0.6365014420   -0.4713442911    1.1417020259
 C   -0.5710768707   -2.5420546243    1.3246630729
 C   -1.6354361052   -3.0826812207    1.4634013706
 H    1.0357907625    1.9285039346    0.0891176405
 H   -0.4838629727    1.9748130681   -0.8326406492
 H   -0.5178895573    1.8560901367    0.9380751236
 H   -1.0060667281   -0.3624017116   -0.1110521014
 H    0.2911200626   -0.2193959032   -2.1991356772
 H    1.8083204082   -0.0601051393   -1.2703894385
 H    1.4987668660   -3.4730569754   -0.1268992761
 H    2.5281565738   -2.0139721193   -0.0127672635
 H    1.3464571774   -2.1163776416    2.0569397198
 H   -2.5760968493   -3.5602250981    1.5869789425