20

 C   -0.0017214172    1.3151440155   -0.1325930566
 O   -0.0672746422   -0.0282621977    0.2936565866
 C   -1.3435734109   -0.6164204282    0.1367351541
 C   -1.5975172979   -1.1596581172   -1.2984971842
 C   -1.0169754811   -2.5286156319   -0.8467241717
 C   -1.2583355773   -2.0874372206    0.6265259812
 N   -0.2783017066   -2.3663608966    1.6389986389
 C   -0.5073008623   -3.1877499260    2.6974673364
 O   -1.5170065284   -3.8366265141    2.8767128292
 H    1.0160786420    1.6654931138    0.0542152324
 H   -0.2204260483    1.4203137203   -1.2047260500
 H   -0.7068546761    1.9474281014    0.4278837944
 H   -2.1130195802    0.0272634228    0.5857195239
 H   -2.6649041122   -1.2087003664   -1.5297276066
 H   -1.0843413817   -0.6395684494   -2.1097507384
 H   -1.5199106267   -3.4374638368   -1.1818916686
 H    0.0503355490   -2.6078648784   -1.0660460949
 H   -2.2221132205   -2.4451761464    0.9915131608
 H    0.5609137040   -1.8070478013    1.6191954219
 H    0.3545527446   -3.2078863528    3.3940941414