21

 C    0.1476519690    1.5008016264   -0.0000342927
 C   -0.0271074753   -0.0056878596    0.0981668314
 O   -0.2538651032   -0.5525183260    1.1540888995
 C    0.1001051760   -0.7818500139   -1.2039443457
 C   -0.2082422404   -2.2732346989   -1.0616080974
 C   -0.0537508280   -3.0232040750   -2.3641215401
 O   -0.9457365760   -2.4953882410   -3.3178440078
 C    1.3040122849   -3.5078138326   -2.8022961427
 C    0.2356762358   -4.4979767276   -2.3543078469
 H    1.0885921030    1.7522160525   -0.5015382195
 H   -0.6583037051    1.9313959618   -0.6055874295
 H    0.1278089222    1.9430978920    0.9967217140
 H   -0.5522030805   -0.3261503298   -1.9583331072
 H    1.1212371103   -0.6307411660   -1.5837696435
 H    0.4448066341   -2.7154669438   -0.3043392872
 H   -1.2330864430   -2.3986090698   -0.6957144137
 H   -0.8015684888   -2.9388424819   -4.1590622528
 H    1.5412783628   -3.4703591301   -3.8615901453
 H    2.1584161964   -3.3404090153   -2.1544600302
 H    0.3629124424   -5.0036471436   -1.4029107593
 H   -0.2346590466   -5.1074298979   -3.1201019633