20

 C   -0.1418821972    1.6156185936   -0.2166592696
 C    0.0555547256    0.1514797262    0.1220527669
 O    1.1320640715   -0.4587386302   -0.6335445694
 C    1.6379714326   -1.1168676918    0.5437205811
 C    0.7057446641   -0.2990069147    1.4612528424
 C    1.3942924185    0.7785508160    2.2986144953
 N    2.1503162908    0.2180214645    3.4127318477
 C    1.5562320133   -0.1383703523    4.5811610074
 O    0.3719417185   -0.0185645507    4.8175454996
 H    0.7689296748    2.1990816240   -0.0587099238
 H   -0.4226289040    1.7118816298   -1.2702303029
 H   -0.9471186387    2.0461913253    0.3881025099
 H   -0.8840659071   -0.3913854293   -0.0600132339
 H    1.4392982438   -2.1968535953    0.5291834444
 H    2.7177252010   -0.9604252238    0.6692495460
 H    0.0521242549   -0.8816185645    2.1121878091
 H    2.0858302671    1.3650348545    1.6869224061
 H    0.6474880216    1.4595016031    2.7166840584
 H    3.1357633720    0.0440305683    3.3028278802
 H    2.2832567668   -0.5489181929    5.3101288250