17

 O   -0.1216726263   -0.0766004061    0.3424284974
 C   -0.0656451823    1.1080692642    0.0914006344
 N    1.0715350150    1.8131600735   -0.1674251633
 C    2.3815767586    1.2159896268   -0.1734781549
 C    3.3981932322    1.5439046036   -1.3130806737
 C    3.6102961577    2.9414653726   -0.6540353060
 C    3.5812178747    1.9269516652    0.5302128492
 C    4.4944320848    1.0178895690   -0.3420854523
 H   -0.9633554357    1.7571276646    0.0459258500
 H    0.9711001687    2.7962413820   -0.3611423148
 H    2.2483017458    0.1598656195    0.0591727237
 H    3.2908360318    1.3197248902   -2.3750249285
 H    4.5703993007    3.4259338116   -0.8500312439
 H    2.8027291674    3.6754479806   -0.7264071742
 H    3.6849131759    2.1444879307    1.5939046316
 H    4.4864865095   -0.0520944436   -0.1189441882
 H    5.5065087314    1.3872547357   -0.5193294865