17

 C   -0.0823840403    1.5398505934    0.1138418184
 C   -0.0361300789    0.0107812385   -0.0235403154
 O    0.7935392266   -0.5772408782    0.9853404771
 C   -1.3902989585   -0.5489804864    0.0406235377
 C   -2.4957818593   -1.0088695347    0.1446339477
 C    0.6421419390   -0.4152348980   -1.3650704517
 O   -0.0271244131    0.1196146974   -2.4657602847
 C    2.1072081646   -0.0058529926   -1.3885850873
 O    2.5398238117    0.6802353680   -2.2851884903
 H    0.9344613451    1.9418406413    0.1450147567
 H   -0.6164263243    1.9760236031   -0.7325230328
 H   -0.5973303064    1.8205425418    1.0363973079
 H    0.2889320066   -0.6054377098    1.8047580762
 H   -3.4732482127   -1.4183827561    0.2186982860
 H    0.6223044173   -1.5175732133   -1.3806454452
 H    0.6465942692    0.6169485019   -2.9589020571
 H    2.7427316434   -0.3756612464   -0.5668101934