13

 C   -0.0192459171    1.5167921773    0.0137065767
 C    0.0003601417    0.0198145406   -0.0324479697
 N   -0.0547587366   -0.5690106367   -1.1927961853
 N   -0.0336321618   -1.9136120126   -1.1770763719
 C    0.0402658516   -2.7378641979   -0.0630544931
 O    0.0544461191   -3.9515059019   -0.1359852859
 C    0.0956876755   -1.9314415681    1.1649514674
 N    0.0771827272   -0.6404139417    1.1818493404
 H    0.8850165972    1.8928686652    0.5029803160
 H   -0.0839651490    1.9280924212   -0.9938942079
 H   -0.8712158859    1.8666236117    0.6054591251
 H   -0.0771516351   -2.3573114089   -2.0860504014
 H    0.1556557332   -2.4772687482    2.1053072197