13

 N    0.1546759403   -0.9854070223   -0.4485834849
 C    0.1138545913    0.1205920183   -0.1170403233
 C    0.0735402686    1.5292874255    0.3081670173
 N    1.3860035409    2.1598240219    0.2462694313
 C    1.7356981107    2.6621409536   -0.8614549394
 N    2.9337855759    3.3005025678   -1.1276968003
 C    2.8993063949    3.7084190041   -2.4283692295
 N    1.8034954050    3.3987830914   -3.0292307717
 O    1.0376806558    2.7141128393   -2.0353313091
 H   -0.6840123891    2.0433232800   -0.2995378255
 H   -0.2708430638    1.5542085919    1.3470186860
 H    3.6738079003    3.4071519516   -0.4562683663
 H    3.7038709392    4.2394996568   -2.9139235645