20

 C    0.0563938930    1.4948520954   -0.0217577874
 C   -0.0472114763   -0.0049050273    0.0889359053
 C   -1.3800537196   -0.6898654071   -0.2416676019
 C   -1.3860782803   -1.9284471663    0.6273486106
 C   -0.3186832126   -1.9764695244    1.4318512576
 C    0.0102296332   -3.0199485777    2.4491354032
 O   -1.0288387495   -3.9793327393    2.5035706164
 C    0.5978908582   -0.8243559597    1.1636029515
 N    1.1820128019   -0.7592772618   -0.2008878575
 H    1.0509458658    1.8333302801    0.2786964878
 H   -0.1098101617    1.8221640378   -1.0548841233
 H   -0.6897950411    1.9884816019    0.6104344098
 H   -2.2254154430   -0.0294288339   -0.0035387448
 H   -1.4682142513   -0.9207637256   -1.3121442274
 H   -2.1560277210   -2.6875470279    0.5808533297
 H    0.9779665384   -3.4869498325    2.1925880259
 H    0.1595089816   -2.5309293046    3.4288383876
 H   -0.7868212576   -4.6461601630    3.1520937747
 H    1.2205913590   -0.4072259362    1.9505888038
 H    0.9650199430   -1.6243725077   -0.6939083714