22

 C   -0.2856900802    1.4712224092    0.3027644475
 C    0.3581408584    0.1752222328   -0.2061341957
 C    1.1655555527   -0.5069211674    0.8720803684
 O    0.4416774842   -1.1913887211    1.9038671763
 C    1.3049243682   -1.9625298013    1.0559544642
 C    0.6584772593   -2.9899265063    0.1867509932
 N    1.5794737447   -3.9245322561   -0.4891469056
 C    0.6448583284   -4.4454293396    0.5195849320
 C    1.2335892966   -5.0453719297    1.7737436185
 H    0.4735150872    2.1823679572    0.6461270849
 H   -0.8684865408    1.9583155873   -0.4844710616
 H   -0.9534301103    1.2625722392    1.1439028332
 H   -0.4199163959   -0.4989680577   -0.5762067609
 H    1.0225864007    0.3928418122   -1.0525645078
 H    1.9861108040    0.1044706680    1.2586127624
 H    2.2181098645   -2.3073356652    1.5409286725
 H   -0.2016276937   -2.6333804613   -0.3742558171
 H    1.2552422495   -4.1244900201   -1.4307988811
 H   -0.2277271140   -4.9792791755    0.1431579323
 H    2.1341763315   -4.5135956990    2.0869601628
 H    0.5093458231   -5.0161198164    2.5945369769
 H    1.5091721620   -6.0913025991    1.6015465746