18

 C    0.1102254972    1.5410874097    0.0893149735
 C   -0.0626387101    0.0567477657   -0.0353431988
 C   -0.9839106016   -0.7429305946    0.7926448473
 N    0.4723092804   -0.9281685273    0.9961455529
 C    1.0269976947   -1.7643124364   -0.1451639843
 C    0.1742969687   -2.8999878800   -0.7740971913
 C   -0.3635722717   -1.8681274014   -1.7990099248
 O   -1.1431352055   -1.9272508482   -2.7033003303
 C    0.5339707235   -0.7561760380   -1.2158454670
 H    1.1415917054    1.8399013131   -0.1265501052
 H   -0.5488084979    2.0669036884   -0.6112801976
 H   -0.1350374314    1.8711329053    1.1029803387
 H   -1.4437005552   -0.2378744944    1.6372486130
 H   -1.5980557747   -1.5351469162    0.3760530961
 H    2.0806962921   -1.9747595450    0.0248305307
 H    0.8035503103   -3.6428191965   -1.2775850938
 H   -0.5544917543   -3.4318282779   -0.1575435615
 H    1.1844370903   -0.2023803164   -1.8919285876