17

 O    0.2034645983    0.0579788986    0.4788862208
 C    0.1762728913    1.2218457992    0.1909622113
 C    1.4213910687    2.0875697383   -0.1087316102
 C    1.6712829027    3.0395696296    1.1197440119
 C    2.7699865484    2.3435219789    1.9568171523
 C    3.4047090661    1.3921335482    0.9729276143
 C    2.6908186811    1.2546159300   -0.1392804129
 C    1.1451639441    2.8218250226   -1.3391813123
 C    0.8731650294    3.4077496346   -2.3536803007
 H   -0.7761209702    1.7948719974    0.1340269157
 H    2.0302795004    3.9976736341    0.7380055884
 H    0.7526203376    3.2346191443    1.6808199789
 H    3.4806617435    3.0644762073    2.3751916120
 H    2.3498225996    1.7919277859    2.8083425721
 H    4.3223549906    0.8562624406    1.1882479252
 H    2.9145991745    0.6019394759   -0.9729061632
 H    0.6547760238    3.9300086644   -3.2523281937