16

 N    0.2279402358    1.5141424250    0.3468340781
 C   -0.0135293737    0.1305140938   -0.0326868541
 C   -1.4985890185   -0.1853765830   -0.3216497802
 C   -1.3939261904   -1.3962550386   -1.2506447376
 O   -0.1767873947   -1.1942486815   -2.0027093392
 C    0.6393887608   -0.3236132035   -1.3584744072
 N    1.7499367923    0.1103811115   -1.7612867328
 C    0.4800813948   -0.7531988755    1.0414615195
 N    0.8488720554   -1.4731211134    1.8663240274
 H    1.2348985620    1.6606655472    0.3837315544
 H   -0.1040807593    2.1119938200   -0.4062990390
 H   -2.0814771764   -0.3763285151    0.5789975117
 H   -1.9344446261    0.6696372784   -0.8483198262
 H   -1.3104863358   -2.3344726769   -0.6915508193
 H   -2.2145595341   -1.4773163182   -1.9650971478
 H    2.0064298377   -0.2884269102   -2.6651373977