17

 C   -0.0357716892    1.6014489095    0.0463948494
 C    0.0795877099    0.0739261620   -0.0518065476
 C   -0.9985858744   -0.5793128070    0.6656498091
 N   -1.8632632915   -1.0831565685    1.2468317415
 C    0.4752525564   -0.7635079614   -1.2605873968
 C    1.7743047066   -0.3053486961   -1.9505558239
 C    2.5549715256    0.7793707202   -1.3086650122
 N    2.5896430244   -0.5630244858   -0.7053075180
 C    1.2945751244   -0.8885055824   -0.0073459889
 H    0.1557579470    2.0819462686   -0.9136167222
 H   -1.0525373257    1.8656860675    0.3463934822
 H    0.6445531267    2.0148790048    0.7963145177
 H   -0.2056939624   -1.4692923324   -1.7170993946
 H    2.0777409939   -0.7398377186   -2.8972659323
 H    3.4999483684    1.0125895307   -1.7929199887
 H    2.1141766575    1.6120607425   -0.7854572190
 H    1.3286473025   -1.6650428338    0.7454321242