18

 O    0.0211987190    1.3923071445   -0.1715507893
 C    0.0185527742   -0.0140468134   -0.0168514757
 C    0.5856704381   -0.5356729798    1.3204511656
 C   -0.0349664493   -1.9371843918    1.4689237083
 C   -1.4016211535   -1.8299243012    0.7806794166
 O   -2.3205368214   -2.5992526914    0.8899212558
 C   -1.4011035832   -0.5523174971   -0.0223655115
 C   -2.5945233458    0.3474600544    0.0489577567
 N   -2.3113603996   -0.4186527227   -1.1663953840
 H    0.9284410527    1.6817609950   -0.3088722522
 H    0.5713333617   -0.4846840283   -0.8486614576
 H    1.6791419509   -0.5392237966    1.3423335638
 H    0.2336376207    0.1279754559    2.1177097752
 H    0.5497770266   -2.6917806154    0.9263339082
 H   -0.1347796229   -2.2895415418    2.4977234746
 H   -3.4569662046   -0.0010592414    0.6093974992
 H   -2.4050751420    1.4153123885    0.0569999679
 H   -1.8675409316    0.2014509025   -1.8435528814