21

 C    0.4347682024    1.6297832394    0.0567814462
 C    0.1371444391    0.1379382180    0.0350745939
 C    0.9685702313   -0.7706783514   -0.9485641243
 O    2.0123584051   -0.1921382998   -1.6890578808
 C    1.3211207479   -1.7329858630    0.2298143506
 C    2.6341394210   -1.4538105604    1.0168009937
 O    3.7578167911   -0.9051918884    0.3295674372
 C    1.9090697948   -0.4238951944    1.9114908493
 C    0.5597261430   -0.7720744391    1.2236649522
 H    1.5058176257    1.8388557434    0.1270697672
 H    0.0814677821    2.1005436231   -0.8659586012
 H   -0.0635853818    2.1212115345    0.8998536074
 H   -0.9306809418   -0.0056038166   -0.1637688481
 H    0.3157314214   -1.2594125559   -1.6787406108
 H    2.7667293270   -0.0871008437   -1.0916859078
 H    1.0687015559   -2.7842474357    0.0801136636
 H    2.9479581328   -2.3406192200    1.5817028187
 H    4.1536760222   -1.6025421594   -0.2054330750
 H    1.9570393717   -0.6493283943    2.9789465183
 H    2.2587322931    0.6002248105    1.7649918646
 H   -0.2346143938   -1.1225068967    1.8826962151