19

 C   -0.1542297926    1.4872776939    0.0150025648
 C    0.0091358159   -0.0031520356    0.0125104137
 C    0.5626402594   -0.7610654432   -1.2135406637
 C    0.7588161948   -2.0566903474   -0.4127871960
 O    1.7772495752   -1.6499902142    0.5498155658
 C    0.7391056110   -0.8767859199    1.1656092489
 C    1.0072957974   -0.3308829977    2.5320887478
 C   -0.3715014152   -1.8183560656    0.6883715326
 O   -1.2240715253   -0.7609137966    0.2594367647
 H    0.8135647398    1.9729871309   -0.1445288459
 H   -0.8296381788    1.8031484431   -0.7871348278
 H   -0.5678676593    1.8384141875    0.9647113934
 H   -0.1856231302   -0.8101024358   -2.0075201795
 H    1.5171526397   -0.3928313560   -1.5947623901
 H    0.9679252703   -3.0036391633   -0.9057589196
 H    1.8048920762    0.4190530584    2.5030958620
 H    0.1044924109    0.1414766994    2.9303280335
 H    1.3133026125   -1.1295501801    3.2138494181
 H   -0.8456853016   -2.6411115080    1.2208382971