17

 C    0.0515964800    1.5083406452    0.1292119956
 C   -0.0166489993    0.0088011377    0.0750745653
 C   -1.1404367036   -0.6750689169   -0.1740807557
 C   -1.2366532477   -2.1593594129   -0.2335104129
 N    0.0207927022   -2.8254927865    0.0074644254
 C    1.2396505790   -2.2403417515    0.2728809138
 N    2.3421745617   -2.8509453858    0.4826456120
 C    1.2566587492   -0.7140803064    0.3171847357
 O    2.2834121443   -0.1141145775    0.5440014810
 H    0.7673647225    1.8876839263   -0.6067687599
 H   -0.9263380310    1.9575107920   -0.0596989703
 H    0.4154167269    1.8418502892    1.1060965568
 H   -2.0744987434   -0.1471940415   -0.3518839832
 H   -1.9937774342   -2.4910511487    0.4971710634
 H   -1.6406261307   -2.4452269965   -1.2195412271
 H    0.0109582707   -3.8335653565   -0.0217071313
 H    2.2205382433   -3.8657669297    0.4305589213