21

 C   -0.0076927982    1.5516547444   -0.0022538831
 C    0.0878740566    0.0223573793    0.0069646758
 C    0.7071140568   -0.5433309125   -1.2518350761
 C   -0.0587305725   -0.3962714840   -2.6178343882
 C    0.3326251444   -1.8411158399   -2.9278743693
 C    1.7942238849   -2.0732985667   -2.5769376891
 C    2.6869220584   -0.8520431128   -2.3902186681
 O    2.0484885552   -0.0678068220   -1.3797989480
 C    0.7661289762   -2.0787135958   -1.4888941340
 H    0.9835586016    1.9971531613   -0.1161785622
 H   -0.6314354104    1.9053698363   -0.8302962778
 H   -0.4484042478    1.9214710029    0.9283082089
 H    0.6914090027   -0.3088925386    0.8610220364
 H   -0.9078261018   -0.4197622775    0.1306849631
 H   -1.1372151667   -0.2965523192   -2.4639723660
 H    0.2859819924    0.3997752176   -3.2860817184
 H   -0.1945009441   -2.5188871819   -3.5891177333
 H    2.2332414689   -3.0090612088   -2.9022933135
 H    3.6882355683   -1.1283065173   -2.0386551983
 H    2.8005317116   -0.2670402526   -3.3139713975
 H    0.5626709036   -2.8810458323   -0.7923121413