18

 C   -0.2366462580    1.5794690838    0.1372469221
 C    0.0627117082    0.0910708374    0.0068012448
 C    0.6808343665   -0.5063699041   -1.2534087986
 C    2.1655654917   -0.4256882514   -1.3140183642
 C    2.9638791794    0.5622402396   -0.4950038324
 C    2.3940300738    0.3695269236    0.9178779283
 O    2.7659025156    0.9076352718    1.9268617477
 C    1.2420115670   -0.6084965462    0.7712839318
 N    1.5372438443   -1.4676377285   -0.4497411775
 H    0.6288206798    2.2064420121   -0.0929643920
 H   -1.0425692620    1.8639386447   -0.5476818149
 H   -0.5622705565    1.8228023047    1.1538456503
 H   -0.8409139219   -0.4816921810    0.2368641067
 H    0.1140928676   -0.8481941537   -2.1153035391
 H    2.6177243386   -0.8376130750   -2.2107691313
 H    4.0289723275    0.3048717860   -0.4963861021
 H    2.8812844510    1.6080994034   -0.8054938241
 H    1.0034612773   -1.1603179973    1.6776882346