15

 C   -0.0810184015    1.5335588336    0.1337112376
 C    0.0230577890    0.0221236434   -0.0410368818
 C    0.7318165417   -0.4387178992   -1.2807431019
 N    1.2070708677    0.4331210387   -2.1197218846
 C    1.8530245866    0.0002011366   -3.2506913484
 O    2.3412965661    0.6576319454   -4.1122202246
 O    1.9484193310   -1.4341647395   -3.4096637868
 C    1.4195271697   -2.2103329892   -2.4775553101
 N    0.8130943710   -1.8191417374   -1.4160036547
 H    0.9083558693    1.9956113023    0.1727682915
 H   -0.6200170109    1.9912147184   -0.6992975690
 H   -0.6107511989    1.7682862011    1.0609453503
 H    0.5386388626   -0.4486057947    0.8071755040
 H   -0.9674794684   -0.4528727808   -0.0522833278
 H    1.5481826650   -3.2684278888   -2.6971915437