15

 O   -0.1585575791    0.0277329412    0.1376857967
 C   -0.0127460837    1.2182235956    0.1183589513
 N    1.1959448604    1.9004759348    0.0108023426
 C    1.2523936742    3.3610283205   -0.0283935285
 C    2.7482821208    3.6283031742    0.0264524476
 C    3.5285699239    3.0877578831    1.1596644510
 N    3.4662882661    2.3504566674   -0.1309005601
 C    2.4812629654    1.3033985940   -0.0791302019
 O    2.7229991547    0.1361955994   -0.1116252012
 H   -0.8558123235    1.9359178527    0.1894963375
 H    0.8294542149    3.7469984972   -0.9627753915
 H    0.7030579532    3.8082864996    0.8069059016
 H    3.1332727893    4.4629845193   -0.5486450407
 H    4.5061493002    3.4974159518    1.3894356425
 H    2.9941485433    2.6629340094    2.0057665332