19

 O    0.1399306662    1.4270573215    0.0360123627
 C    0.0674349929    0.0237461039    0.0223729507
 C    0.1482692345   -0.6372243705    1.4585995019
 C   -1.3614650299   -0.6504156498    1.3947977606
 C   -2.4791467332   -0.2165407096    1.9693531356
 C   -3.5267464107    0.0780452045    0.8908891122
 O   -4.3350993942    1.2080683103    1.1763958601
 C   -2.6692720242    0.2216341123   -0.4131198549
 C   -1.3933343710   -0.5763045589   -0.1076335312
 H   -0.4453145823    1.7468651650    0.7337178186
 H    0.8030635406   -0.3113273758   -0.7118958223
 H    0.5952111880   -1.6354421657    1.4099673467
 H    0.6405467621   -0.0593440264    2.2450616776
 H   -2.6709849634   -0.0232232195    3.0186790196
 H   -4.2497545957   -0.7417638840    0.7929504833
 H   -3.7468573448    1.9609661931    1.3047624646
 H   -3.2052773142   -0.1003516691   -1.3089798402
 H   -2.4202805014    1.2834448358   -0.5429409788
 H   -1.3542278394   -1.5487660170   -0.6104486469