16

 O   -0.1136839720    1.4691504175   -0.0700820844
 C   -0.0120179641    0.0634879371   -0.0929901538
 C   -1.3208660370   -0.6979248545   -0.1195147987
 C   -1.7531001190   -0.8340739282   -1.6065641699
 C   -0.6968966490   -0.1111951967   -2.4402253705
 C    0.3447724020   -0.6597735068   -1.4308514724
 C   -0.7293863591   -1.7610236487   -0.9985996749
 O   -0.6657899811   -3.1080912513   -0.7625716940
 H    0.7757316827    1.8363898976   -0.0385155295
 H    0.6254537711   -0.3078058120    0.7213901237
 H   -2.0417045584   -0.8269899985    0.6767988523
 H   -2.7899342103   -1.0371004921   -1.8418446016
 H   -0.5839143271   -0.5622711461   -3.4300561795
 H   -0.7608637709    0.9774543306   -2.5218550617
 H    1.3820262197   -0.8286283090   -1.7150092237
 H   -0.6232091375   -3.5654370088   -1.6101339814