20

 C    0.0498065002    1.5609045085    0.0762303740
 C   -0.0769289277    0.0347655806    0.0734613035
 C   -1.5162002408   -0.5157912601   -0.0800082553
 C   -2.1157224626   -0.2017092559   -1.4522261665
 C   -1.5414969355   -2.0350537829    0.2271276092
 O   -1.8237374272   -2.1405326714    1.6259420960
 C   -2.3895697097   -0.9709723241    2.0611936706
 O   -2.8038039970   -0.8081421437    3.1742734779
 N   -2.3939179441   -0.0823069260    1.0069486475
 H    1.0930772982    1.8550190700    0.2222339994
 H   -0.2868286736    2.0073853149   -0.8645236837
 H   -0.5257797915    2.0129061722    0.8911674812
 H    0.5324405350   -0.3823810868   -0.7381720776
 H    0.3366070451   -0.3623730903    1.0084839924
 H   -1.5063592315   -0.6419830550   -2.2487443166
 H   -3.1300888659   -0.6018295837   -1.5258228197
 H   -2.1654261678    0.8761612950   -1.6308368631
 H   -2.3330617619   -2.5432903556   -0.3360037564
 H   -0.5854935292   -2.5238388483    0.0264816536
 H   -2.5275213124    0.8908724828    1.2296718836