19

 C    0.1319385345    1.5241486427   -0.1237723424
 C    0.0831949379    0.0694949609   -0.0740199359
 C    0.0199869777   -1.1335858640   -0.0166886973
 C   -0.0094227149   -2.5846180857    0.0241355302
 C    0.8484134528   -3.1773460563   -1.1078359505
 O    2.2027543409   -2.7938289735   -1.0089991093
 C    0.2677919601   -3.2762646792    1.3896803371
 O   -0.9135278775   -4.0915315662    1.2536907618
 C   -1.3853258903   -3.2979399880    0.1508880798
 H    0.9625802105    1.9145450602    0.4743450645
 H    0.2623902414    1.8848162506   -1.1498481384
 H   -0.7924642614    1.9629662650    0.2672312127
 H    0.8272667191   -4.2695367108   -1.0348792168
 H    0.4098479297   -2.8914390107   -2.0769465272
 H    2.2211003441   -1.8289560315   -1.0078648082
 H    1.1875271950   -3.8670906633    1.4454923049
 H    0.2043576238   -2.6010620700    2.2514778345
 H   -2.2068842637   -2.6301940859    0.4381730076
 H   -1.6929740695   -3.9112139341   -0.7048298770