22

 C    0.2295632117    1.6930815458   -0.0308156524
 C    0.0538698396    0.1718971821    0.0290549543
 C    0.6504235903   -0.5800167534   -1.1758520264
 C    2.0847432268   -0.9027545272   -0.7319973796
 C    1.9551175746   -1.2222196490    0.7687710519
 C    3.2157185751   -0.8948935135    1.5699284301
 N    0.7792033244   -0.4238926302    1.1663633595
 C    0.2389571221   -0.4263001065    2.4089987040
 O   -0.7885626318    0.1464560524    2.7223803437
 H    1.2783461695    1.9709184545   -0.1796383869
 H   -0.3560952880    2.1087705108   -0.8574639294
 H   -0.1216432599    2.1423121807    0.9005957621
 H   -1.0105713979   -0.0445898545    0.1584182270
 H    0.0929321587   -1.5061158446   -1.3520104170
 H    0.6101434916    0.0117085171   -2.0934751863
 H    2.5360724399   -1.7289665942   -1.2864638882
 H    2.7310761611   -0.0274637260   -0.8635450622
 H    1.7260069191   -2.2912429867    0.8916490881
 H    3.4546332623    0.1703283591    1.4918650218
 H    3.1053771557   -1.1433332340    2.6290979422
 H    4.0629489660   -1.4701337686    1.1819644151
 H    0.8363080191   -1.0152281039    3.1329894789