19

 C    0.1852791326    1.2967458186    0.3806876184
 N   -0.2241855191    0.0705572126   -0.2843957910
 C    0.6301092207   -0.4623944004   -1.2855053456
 C    0.5036530182    0.1584609378   -2.5861251278
 N    0.4314996147    0.6560463120   -3.6289091041
 C    2.0331174056   -1.0784767286   -1.0141966948
 N    2.5389920872   -1.0554140485    0.3314700085
 C    0.8547253464   -1.9840016214   -1.2622621755
 N    0.2646783717   -2.6884683862   -0.1585698450
 H    1.1024301619    1.2082202995    0.9840952342
 H    0.3416484369    2.0833095812   -0.3650991186
 H   -0.6213305284    1.6275213666    1.0414828498
 H   -0.5093521155   -0.6700863404    0.3466314535
 H    2.7345478752   -0.9687349618   -1.8422622923
 H    3.2763512900   -1.7468915062    0.4350812063
 H    2.9481518863   -0.1545026732    0.5530652352
 H    0.7978723433   -2.4882355880   -2.2203421413
 H    0.0215865247   -3.6363936294   -0.4112531640
 H    0.8962347278   -2.6952872644    0.6356887241