19

 C   -0.5464428758    1.5197489640   -0.0674757953
 C   -0.0767984498    0.0762954374    0.1317840563
 O   -1.1451717884   -0.7572686873    0.5436869258
 C    0.5628766987   -0.5136148584   -1.1423731415
 C    0.8986280768   -2.0242686975   -1.1039647745
 C   -0.1302275959   -2.1378148893   -2.2434810850
 O   -0.4534101138   -0.7243992174   -2.1598419558
 C    1.6787684663    0.3693419072   -1.6685658681
 O    2.7650697268    0.4459175964   -1.1537963876
 H    0.2946938131    2.1958407443   -0.2524250051
 H   -1.2337400315    1.5853091127   -0.9179835759
 H   -1.0711627601    1.8593080761    0.8285703582
 H    0.6739573664    0.0291022749    0.9284331895
 H   -1.7600071977   -0.7813934345   -0.2013798921
 H    1.9302695481   -2.2783883600   -1.3465063983
 H    0.5978284380   -2.5038593510   -0.1732786586
 H    0.2789797838   -2.3933229360   -3.2275027375
 H   -1.0061354458   -2.7630589746   -2.0436327754
 H    1.4063206607    0.9437339629   -2.5825446392