15

 C   -0.0201408945   -1.2407926519   -0.0051542608
 C    0.0013870735   -0.0391215092    0.0379662490
 C    0.0134349330    1.4115673300    0.0934824001
 C   -0.2612384312    2.1497099193    1.4270673046
 C    0.8132203434    1.5584591700    2.3769803764
 C    1.8305940489    2.2075745018    1.4405909496
 C    0.8306861240    3.1694861371    0.9235660588
 N    1.3532398901    2.1116922992    0.0119794523
 H   -0.0344449742   -2.3018890821   -0.0488520958
 H   -0.5965249200    1.8245519917   -0.7159989964
 H   -1.2733677976    2.3536812396    1.7695337918
 H    0.8081221863    2.0647032623    3.3454752551
 H    0.8270862145    0.4738194083    2.5142200829
 H    2.8985403260    2.3247785491    1.5659787669
 H    0.8440386977    4.2276902347    0.7009769953