18

 C    0.4498628991    1.0771838190   -0.0945882611
 C    0.1419199511   -0.3429464634   -0.0232573947
 C   -0.1231774296   -1.5162963436    0.0259294257
 C   -0.4417186994   -2.9385774761    0.1033205594
 C   -1.9465590468   -3.2320356053   -0.0043493726
 O   -2.4803137242   -2.8151107533   -1.2352890541
 O    0.1376671562   -3.6874659839   -0.9886532679
 C    1.4854334925   -3.7087487304   -1.0764067043
 N    2.0371332815   -4.3702407828   -1.9975036126
 H    1.0847241667    1.2962079525   -0.9598619527
 H   -0.4632543400    1.6737249934   -0.1933579370
 H    0.9786825584    1.4172311801    0.8022695816
 H   -0.0732096274   -3.3547488817    1.0524928160
 H   -2.0866013215   -4.3110806069    0.1634773299
 H   -2.4741990826   -2.6873131395    0.7834815466
 H   -1.9446675350   -3.2285123508   -1.9228939896
 H    1.9846369132   -3.1169673640   -0.2999524612
 H    3.0492610978   -4.2900221132   -1.9239154615