18

 O    0.0622673962    1.4044625729    0.1513807176
 C    0.0225258202   -0.0093576759   -0.0301088464
 C   -1.4496860202   -0.4255416103    0.1008554627
 C   -1.6534671703   -1.9018346033    0.4493572099
 C   -1.0490251671   -2.9362683946   -0.4583180777
 C   -0.1643892954   -2.7974243214   -1.4583811792
 C    0.5213950837   -1.6028284623   -1.9455702978
 C    0.6210753105   -0.4042810269   -1.3570540755
 H    0.9797704363    1.6869643717    0.0831267831
 H    0.5890671008   -0.5040955970    0.7796425920
 H   -1.8930488192    0.1879764761    0.8914918882
 H   -1.9701657441   -0.1775194750   -0.8295240512
 H   -1.2962785746   -2.0939117013    1.4728504276
 H   -2.7348863319   -2.0917786102    0.4991055763
 H   -1.4045057895   -3.9470476574   -0.2632555791
 H    0.0951204497   -3.7057759101   -1.9987568399
 H    1.0312566696   -1.7317252202   -2.8977886557
 H    1.1686542054    0.3849118951   -1.8685777549