15

 N   -0.0455774228    1.4218458106   -0.1065295283
 C   -0.0149187120    0.0209721756   -0.0545702366
 C   -1.1557716037   -0.7694179198   -0.0113746612
 N   -1.1547802303   -2.1113842642   -0.0245206180
 C    0.0163275710   -2.7216761392   -0.0819775661
 O    0.0246356240   -4.0773574167   -0.0986756304
 C    1.2402302120   -2.0480117502   -0.1227983084
 C    1.2159707991   -0.6640058613   -0.1073830886
 O    2.3367239865    0.1082452912   -0.1320679349
 H    0.8086775863    1.8448146135    0.2298519870
 H   -0.8519844803    1.8250519944    0.3502565827
 H   -2.1325507950   -0.2919534619    0.0352930665
 H   -0.9051096338   -4.3403078521   -0.0649841807
 H    2.1715681920   -2.6025321528   -0.1616768411
 H    3.1153895770   -0.4580193371   -0.1461473120