17

 C    0.0028053760   -1.1449973556   -0.3566286182
 C    0.0057672732    0.0372798535   -0.1381016109
 C   -0.0389295013    1.4628983719    0.1259700332
 C   -0.4037219748    2.3433268006   -1.1154613615
 C    1.0734491119    2.8128003936   -1.1372099736
 N    1.3175555795    2.1352254915    0.1788493532
 C    1.2347838286    2.9440815168    1.3219984077
 N    0.2371630407    2.8166846103    2.1041448884
 C   -0.6673195904    1.8247316543    1.5077771570
 H    0.0126259489   -2.1900309534   -0.5458547700
 H   -0.7585436935    1.8033534177   -1.9933863921
 H   -1.1090034527    3.1388109451   -0.8640045746
 H    1.6755715868    2.3610650510   -1.9291563106
 H    1.2481303601    3.8917915569   -1.1226671524
 H    2.0453679923    3.6439932307    1.5117638317
 H   -1.6773838133    2.2401876058    1.4142715836
 H   -0.7323585418    0.9406643692    2.1494667791