18

 N   -0.2114148130   -1.2306683126   -0.1501694015
 C   -0.1250107820   -0.0795627031   -0.0761085877
 C   -0.0042491222    1.3675594699    0.0243684570
 C   -0.1092255712    2.0729830716    1.4175743803
 C    0.9753098833    1.3377108980    2.2289448188
 C    2.1494381252    1.8199935042    1.3490313603
 C    2.0905412394    3.3539812118    1.5876751339
 C    0.7736054892    3.2493534556    0.8067744752
 C    1.3715927618    2.0654299197   -0.0177057312
 H   -0.6736013179    1.8366397599   -0.7031590118
 H   -1.0827238906    2.2476185880    1.8720336709
 H    1.0607246199    1.6892544587    3.2604115232
 H    0.8304907991    0.2550249339    2.2401290059
 H    3.0852382009    1.2652706384    1.3825881106
 H    2.0886003034    3.7122661614    2.6216749957
 H    2.8386485716    3.9019321680    1.0074308973
 H    0.2516311560    4.0913253892    0.3540298935
 H    1.9483622468    2.1874506973   -0.9323380605