18

 O   -0.0721439983    0.0124269064    0.9266656664
 C   -0.0215728568    1.1900637841    0.6572132266
 N    0.9821817034    1.8026055691   -0.0677398554
 C    0.9627283692    3.2518640279   -0.2203670584
 C    1.3187146970    3.7544397561   -1.6185531941
 O    2.7100212057    3.7375484036   -1.8398745533
 C    3.2293352758    2.4938229747   -2.2640078162
 C    3.0313743673    1.3083493310   -1.3579656065
 C    2.0677866485    1.0173257486   -0.4794673474
 H   -0.7980667506    1.9142093966    0.9675541226
 H   -0.0418833346    3.5949196435    0.0474551849
 H    1.6761252503    3.7117540792    0.4764928429
 H    0.7780931346    3.1844823118   -2.3905128197
 H    1.0113071335    4.8031933109   -1.6908879244
 H    2.8187411970    2.2435657177   -3.2612443558
 H    4.3017979772    2.6647555621   -2.4047222812
 H    3.7654596906    0.5212358359   -1.5112514182
 H    2.0505936500    0.0481234208    0.0046330472