15

 C   -0.0215893548    1.4828876034    0.1110272976
 C    1.2924885374    0.7527234733    0.0049598445
 O    2.0006591076    0.4366046500    1.1936302421
 C    1.1948658675   -0.3935015046    1.9138172199
 C    1.1421552192   -1.0187486380    3.1261109395
 N   -0.0356175656   -1.7492898548    3.1825532095
 C   -0.6723062867   -1.5477654027    2.0530931107
 N    0.0548972868   -0.7258319473    1.2278126871
 C   -0.0076620467   -0.0292324687   -0.0216484580
 H   -0.3153473098    1.9030982453    1.0663248408
 H   -0.3197722038    2.0523473308   -0.7624912707
 H    1.9495289412    0.8856218030   -0.8441433923
 H    1.8487901823   -1.0036462525    3.9382944611
 H   -1.6245751037   -1.9671822722    1.7694412385
 H   -0.4029381308   -0.5549769150   -0.8812464202