16

 N   -0.0583871607    1.2701652052   -0.0274982501
 C   -0.0334510961    0.0121642739   -0.0145161941
 O    1.1068254479   -0.7685097962    0.0056755684
 C    0.6697692548   -2.1577817384   -0.0025715545
 C   -0.6160399821   -2.0985837503   -0.8334374911
 C   -1.2041739684   -0.9446155124    0.0200941163
 C   -1.1915834636   -1.5664528268    1.4432485974
 C    0.1092233753   -2.3938985921    1.4169110459
 O    0.5757276906   -3.0709226924    2.2890576496
 H    0.8890242567    1.6532231681   -0.0217759859
 H    1.4985550414   -2.7918063846   -0.3059639615
 H   -0.4309121857   -1.8249338533   -1.8745370141
 H   -1.2032264308   -3.0198366556   -0.7889291177
 H   -2.1438425422   -0.4991708263   -0.2942108112
 H   -1.1872751208   -0.8311049880    2.2511634495
 H   -2.0433787063   -2.2367080710    1.5986989430