19

 C    0.0125362210    1.0943555312    1.1965074350
 C   -0.1239611236    0.4588583182   -0.1880205062
 O    0.9244606332   -0.4649375076   -0.4489274437
 C   -1.5150138841   -0.1959012713   -0.4068316828
 C   -1.9024651409   -0.4598780615   -1.8400240481
 C   -2.3058988905   -1.7128777005   -2.0528191063
 C   -2.2575874827   -2.5496896118   -0.8031318551
 C   -1.5976098524   -1.6069149125    0.2105597778
 O   -1.1521793663   -1.9304154129    1.2843481019
 H    1.0127998502    1.5210348312    1.3109274784
 H   -0.7230048611    1.8933116292    1.3381686120
 H   -0.1451866025    0.3440247209    1.9769285690
 H   -0.0046657188    1.2357373097   -0.9531002271
 H    0.9444943007   -1.0837865279    0.2908857987
 H   -2.2675463917    0.4390587999    0.0859046080
 H   -1.8545779342    0.3152769716   -2.5969182690
 H   -2.6380067217   -2.1072578066   -3.0059319885
 H   -3.2522818450   -2.8431994554   -0.4382866825
 H   -1.6795405595   -3.4766622638   -0.8945705916