15

 C   -0.0488318678   -1.1561830665   -0.2422956902
 C   -0.0443515649    0.0322786937   -0.0623194922
 C    0.0035321051    1.4743648985    0.1495626894
 C    1.4352305755    2.0246496573    0.1343734570
 C    2.1341325752    2.0595347329   -1.2424628058
 O    2.1251028695    3.5032579636   -1.2601846683
 C    1.5596222643    3.5628524648    0.0635101936
 H   -0.0681688112   -2.2060108599   -0.4000061149
 H   -0.5851192475    1.9801499140   -0.6276257998
 H   -0.4734677215    1.7240005884    1.1065010405
 H    2.0216060636    1.5544069799    0.9259538136
 H    3.1538923267    1.6560736625   -1.2643152364
 H    1.5645282751    1.6301117261   -2.0758421552
 H    0.6133891575    4.1201642991    0.0843774599
 H    2.2511373804    4.0131511255    0.7870640888