20

 C   -0.0775755653    1.5610972126   -0.1227622886
 C    0.0829180240    0.0434819932   -0.0381900644
 C    0.9129548900   -0.5740318115   -1.1998365123
 C    2.3830718158   -0.3180716992   -0.7154677689
 C    1.9467247350   -1.2380231204    0.4769756407
 N    0.8527532319   -0.5039572772    1.1378954778
 C    1.2780774849    0.4146900400    2.1795032918
 C    1.1507953507   -1.9807366674   -0.6191126841
 O    0.9561489142   -3.1086121143   -0.9550399853
 H    0.8773505347    2.0877854215   -0.1985065043
 H   -0.6688371656    1.8084987372   -1.0101749685
 H   -0.6134720543    1.9540758587    0.7458284858
 H   -0.9226796282   -0.3972110899   -0.0316623397
 H    0.5696439678   -0.3969636273   -2.2172186412
 H    3.1335219277   -0.7672148568   -1.3690304723
 H    2.6531725181    0.7090065544   -0.4669062555
 H    2.6400574164   -1.7255769315    1.1589011240
 H    1.9743220908    1.2073265027    1.8541685966
 H    0.4055269321    0.8961106672    2.6298061435
 H    1.7742399394   -0.1591285917    2.9688664750