23

 C   -0.1631357312    1.4905389175    0.1173637624
 C   -0.1366159357   -0.0268492332    0.1990294208
 O   -0.1674065430   -0.6059706765    1.2613392846
 C   -0.0575977250   -0.7682644343   -1.1313539811
 C   -0.1936098456   -2.2844057586   -1.0263686805
 C   -1.5973139357   -2.7904323876   -0.6479587534
 C   -1.5684003757   -4.2937457667   -0.9977783084
 C   -0.5045500139   -4.4456141964   -2.1274994357
 C    0.0860660612   -3.0323386265   -2.3426399309
 H    0.6619557994    1.8635644205   -0.4990450683
 H   -1.0915308425    1.8208225030   -0.3632294562
 H   -0.1032835179    1.9180515433    1.1189041601
 H   -0.8162179396   -0.3518081090   -1.8100158966
 H    0.9069633974   -0.4963006855   -1.5867230364
 H    0.5097133320   -2.6346955044   -0.2600757952
 H   -1.8449925126   -2.5961363556    0.3973910405
 H   -2.3442418983   -2.2719738162   -1.2654519063
 H   -1.2733775806   -4.8782169809   -0.1206119964
 H   -2.5522496502   -4.6624292546   -1.3007487195
 H    0.2788463268   -5.1456916872   -1.8214781506
 H   -0.9350412530   -4.8456451814   -3.0496747566
 H   -0.4368419500   -2.5241803361   -3.1638866926
 H    1.1485299937   -3.0498070538   -2.6056051837