19

 C   -0.1313637618    1.4961476842    0.2077191514
 C   -0.2539656187   -0.0008491562   -0.0763148157
 O   -1.4422170109   -0.2793967039   -0.8236970641
 C    0.9199379897   -0.5300241177   -0.9044649613
 C    0.9492326170   -2.0212999259   -1.0622021041
 C   -0.0618550112   -2.8783424840   -1.4208328506
 N    0.5039343126   -4.1347224767   -1.4249424966
 C    1.8121283106   -3.9905548044   -1.0751048349
 N    2.1146529359   -2.7331636521   -0.8491510798
 H    0.7633298732    1.7121719115    0.8005065648
 H   -0.0756022017    2.0603491331   -0.7287511427
 H   -0.9990303973    1.8583011732    0.7715574198
 H   -0.2803024462   -0.5503107250    0.8783342104
 H   -2.1959260570   -0.0047847605   -0.2923038332
 H    0.8820770610   -0.0344623494   -1.8841682769
 H    1.8590797569   -0.2300597278   -0.4309342157
 H   -1.0963492544   -2.7041651484   -1.6569087067
 H    0.0330821914   -4.9968262936   -1.6414773234
 H    2.4868408510   -4.8303915863   -1.0007100906