16

 C    0.0260490660    1.5104149756   -0.2785766537
 N    0.0515115902    0.0643840700   -0.0663436154
 C   -1.0202510781   -0.4932450691    0.8028357232
 C   -0.1131103975   -1.7064027706    1.2137918185
 C    0.7708823077   -0.4112486475    1.1466692343
 C   -0.3795609834   -0.0205249792    2.1986697308
 O   -0.5683259767    1.1334172309    2.9048224661
 C   -0.4062045323   -1.4556732939    2.6806605728
 O   -0.5765539426   -2.0428221270    3.7095655129
 H    0.9910923010    1.8242252834   -0.6896368225
 H   -0.7425008149    1.7448778495   -1.0222925627
 H   -0.1752870257    2.0954830087    0.6311161974
 H   -2.0757331928   -0.5331672226    0.5337861519
 H    0.0404929678   -2.6045231042    0.6279643697
 H    1.8501621418   -0.3533622253    1.2874759106
 H   -0.7322857705    0.8937253714    3.8259848560