17

 O    0.0361177843    0.1763686012    0.7040112514
 C    0.0325415593    1.2169479708    0.0813125576
 N    1.0975128072    1.7321832458   -0.5911134858
 C    2.4024763022    1.1027826978   -0.6023330578
 C    3.4840836580    2.0105672005   -0.0295061552
 C    4.9263737189    1.4595107364   -0.1803441284
 N    5.6060817722    2.3979043169   -1.0915932621
 C    4.7580773030    3.2990964441   -1.3534173169
 O    3.5155544808    3.2445763960   -0.8088577498
 H   -0.8606917769    1.8655621909   -0.0084966231
 H    1.0032842299    2.6268063772   -1.0454600972
 H    2.3206404944    0.1933271547   -0.0016703398
 H    2.6826460211    0.8142856262   -1.6242081441
 H    3.2331623479    2.2918387830    0.9968040336
 H    5.4609549803    1.4157028542    0.7731761740
 H    4.9386254454    0.4506306993   -0.6085494207
 H    4.9267601421    4.1563363551   -1.9957321658