19

 C    1.4233578335    1.7436282443   -0.6817516780
 O    1.0752384959    0.3541675284   -0.6315412208
 C    0.4423204688   -0.1173267755   -1.7244893827
 O    0.1478013161    0.5626082480   -2.6746564015
 C    0.1814478752   -1.6072901134   -1.6089509600
 C    1.1734419000   -2.3884122316   -2.4579676405
 O    2.5146415690   -2.1852749458   -2.0988681933
 C    0.7850700066   -3.7373616108   -3.0116955027
 C    0.9489828804   -2.5367243148   -3.9275931056
 H    2.1002921943    1.9390251818   -1.5171189416
 H    0.5297247513    2.3610799257   -0.8026445795
 H    1.9138179954    1.9620676069    0.2669651572
 H    0.2522441681   -1.9188721473   -0.5616485517
 H   -0.8353459686   -1.7993448041   -1.9607153098
 H    2.6427474445   -2.5343135209   -1.2093322892
 H    1.5647385636   -4.4901310950   -3.0405937104
 H   -0.2129461690   -4.1182388135   -2.8220962085
 H    0.0671808467   -2.0799268285   -4.3604326061
 H    1.8337950882   -2.5066548137   -4.5521291553