17

 C    0.0255910942    1.5255069824    0.0264016813
 C   -0.0489395267    0.0254033948    0.0036915536
 C   -1.1888044835   -0.6983702472   -0.1720606975
 C   -1.1482422415   -2.1444737982   -0.1766270674
 O   -2.1199346649   -2.8798505918   -0.3283402800
 C    0.2158478214   -2.7017628654    0.0215738575
 C    0.3636654680   -4.1909797143    0.0334090310
 N    1.2823710632   -1.9765216506    0.1862911333
 N    1.1284073781   -0.6369482300    0.1751745711
 H    0.6811752495    1.9009890991   -0.7674820749
 H   -0.9662664792    1.9548791457   -0.1184003862
 H    0.4199202156    1.8873448117    0.9826241574
 H   -2.1416529743   -0.2022702272   -0.3107325578
 H   -0.0067693674   -4.6120750503   -0.9068838172
 H    1.4062977166   -4.4739728128    0.1842540667
 H   -0.2597397579   -4.6238484839    0.8226031589
 H    1.9894617489   -0.1304291919    0.3046799802