21

 O    0.5386761814    0.6786926287   -0.7896571475
 C    0.0805105027   -0.2585424484    0.1373130682
 C   -0.4179657064    0.1899502718    1.5439213571
 C   -1.5441705283   -0.8749463281    1.4235833873
 C   -1.3204374838   -0.8886052464   -0.1125757745
 O   -2.0785967559    0.0902262239   -0.8104732842
 C   -3.3257245691   -0.3385916476   -1.2667584563
 C   -4.5619843361   -0.1044551506   -0.4360248363
 C   -4.2883043760    0.7270517899   -1.6750365439
 H   -0.2542487635    1.0966071613   -1.1512378267
 H    0.8429020678   -1.0389933771    0.2288719136
 H    0.2799895174    0.1152936991    2.3802937620
 H   -0.8189483717    1.2057692814    1.5000218975
 H   -1.2634256217   -1.8329159720    1.8707187877
 H   -2.5419771233   -0.6049174690    1.7704494437
 H   -1.3780379910   -1.8498673301   -0.6389126347
 H   -3.2805976484   -1.2494168442   -1.8640986161
 H   -5.3542506654   -0.8446354093   -0.4629052244
 H   -4.4304881969    0.3886636177    0.5197256325
 H   -3.9694216569    1.7513356521   -1.5183937595
 H   -4.8900875349    0.5693187470   -2.5626839355