15

 N    0.2883969834    1.3262107016    0.3582507173
 C    0.2214201093    0.0786261658    0.1285504077
 N   -0.9730581004   -0.5592924708   -0.1417287855
 C   -1.0493274742   -2.0031684059   -0.1677227042
 C   -1.4639463395   -2.5873310371    1.1241380782
 N   -1.7996007008   -3.0117128536    2.1447315239
 C   -2.2132520628    0.1957968336   -0.0479985085
 C   -3.0554088703   -0.0052584962   -1.2330378261
 N   -3.7150845913   -0.1960075145   -2.1619681147
 H    1.2503602058    1.6248877431    0.4902118442
 H    1.0703443945   -0.6135582902    0.0955947864
 H   -1.7585685109   -2.3250244652   -0.9393222162
 H   -0.0720574809   -2.4109227452   -0.4428070845
 H   -2.7859277245   -0.0824397173    0.8473765337
 H   -1.9346384375    1.2491776619    0.0461202583