15

 O   -0.2204165967    1.5577444672    0.4762886095
 C    0.0432490378    0.2274598377    0.0946419548
 C   -1.2288702099   -0.5911529333   -0.1424282022
 N   -1.9202006859   -0.1931450041   -1.3587543610
 N   -2.2204878774    1.1038770286   -1.6371731667
 N   -2.7975693808    1.1600353082   -2.7686197419
 N   -2.8865732634   -0.1057257069   -3.2449285464
 C   -2.3324239583   -1.0385933383   -2.3818404221
 O   -2.2281484879   -2.2396987911   -2.4792984042
 H   -0.7552472905    1.9620116487   -0.2190025574
 H    0.6815586572    0.1689019515   -0.8015320213
 H    0.5933188050   -0.2322294344    0.9222202426
 H   -1.0005338282   -1.6521452492   -0.2772362199
 H   -1.9019248643   -0.4793422546    0.7141141747
 H   -3.3180458567   -0.2841645499   -4.1360564984