16

 N    0.0527138015    1.2906852933    0.4438727294
 C    0.0081607092    0.1588921906   -0.3001513843
 O    0.9129647698   -0.2172030131   -1.0159659385
 C   -1.2865371082   -0.6761396211   -0.2064516364
 C   -1.8402852489   -1.1092559649   -1.6148106656
 N   -1.4512334912   -2.5136967404   -1.3694354872
 C   -1.0123272315   -2.2110872299    0.0089028797
 C   -2.2819720434   -0.1104144854    0.6851962599
 N   -3.0547674553    0.3665805530    1.4030532949
 H    0.8874074084    1.8520904560    0.3985617165
 H   -0.7094906269    1.5849247586    1.0309467974
 H   -2.9128628208   -0.9238205031   -1.7277024818
 H   -1.2958640163   -0.6517748762   -2.4448738317
 H   -2.2268990010   -3.1627029335   -1.4143024932
 H    0.0435280645   -2.4344285284    0.1820540998
 H   -1.6193323699   -2.6452580554    0.8092737411