20

 C   -0.0084921884    1.4413904673   -0.1897461108
 C   -0.0088038594   -0.0336757438    0.0937137756
 N   -0.0201265537   -0.4903833850    1.2768000631
 O    0.0052856134   -0.7290849854   -1.0792571062
 C    0.0083061499   -2.1507734658   -1.0205596993
 C    0.0256486460   -2.6717565835   -2.4507569035
 C    0.0298933590   -4.2122559406   -2.4958275523
 C    0.0465061763   -4.7341402812   -3.8564494246
 C    0.0602653609   -5.1417134333   -4.9867620246
 H    0.8782824031    1.7145516017   -0.7700687937
 H   -0.8832783398    1.7110740141   -0.7895441339
 H   -0.0199298105    1.9937622335    0.7485524135
 H   -0.0182470383   -1.5086241224    1.3090852753
 H    0.8911193162   -2.5014979769   -0.4665314154
 H   -0.8848866113   -2.5060759916   -0.4864300134
 H   -0.8487361976   -2.2888535005   -2.9857740988
 H    0.9099554437   -2.2845855797   -2.9660267040
 H    0.9016768915   -4.5950868919   -1.9485194606
 H   -0.8521547648   -4.5993321206   -1.9683148630
 H    0.0725858638   -5.5128206043   -5.9815078233