23

 C    0.1398410017    1.5881319398   -0.2933307946
 O   -0.2855727802    0.2546395828   -0.4564920042
 C    0.6454669593   -0.5679198202   -1.1213884705
 C    1.8864368686   -0.9673943716   -0.2913109284
 C    2.1675028144   -2.4148694114   -0.7549779099
 O    1.1520307726   -2.7603253812   -1.6962490256
 C    0.0060583758   -1.9300203493   -1.4821646184
 C   -0.8621721696   -2.4783791017   -0.3407909926
 C   -0.7743138399   -1.8800565716   -2.7904235927
 H    1.0244905470    1.6655535494    0.3557835401
 H    0.3800643852    2.0580873787   -1.2600771816
 H   -0.6835262144    2.1366796560    0.1706731932
 H    0.9661893788   -0.0786882313   -2.0552521733
 H    2.7386506754   -0.3058930006   -0.4609824069
 H    1.6348853686   -0.9238560769    0.7724327444
 H    3.1311019244   -2.5184397688   -1.2634787601
 H    2.1629578232   -3.1127110353    0.0940164405
 H   -0.3072407067   -2.5303341936    0.6005372678
 H   -1.7338257294   -1.8411666009   -0.1765712827
 H   -1.1982693694   -3.4878809087   -0.5940264168
 H   -1.1957032931   -2.8605671796   -3.0299527505
 H   -1.5937266906   -1.1596366119   -2.7098546237
 H   -0.1182623419   -1.5790261721   -3.6121084334