19

 O   -0.0266707907    0.7045632691   -1.3770495064
 C   -0.0213242399    1.3616510719   -0.3536711312
 C   -1.3083362967    1.8043957771    0.2627928778
 C   -1.6336603268    1.6188561508    1.7424111683
 C   -1.3207602431    2.9861336423    1.2230566738
 C   -0.0272064532    3.7307485720    1.5240997587
 C    1.2771030779    3.0211818654    1.1869784290
 C    1.6410658656    1.6630362181    1.6969344981
 C    1.2698977749    1.8391774744    0.2269894670
 H   -2.1392277764    1.6811193642   -0.4225437642
 H   -2.6701368526    1.3908824156    1.9662808728
 H   -0.9334726967    1.1003257758    2.3818969251
 H   -2.1774136099    3.6469501548    1.1264063701
 H   -0.0478294084    4.6602185134    0.9420668460
 H   -0.0166706962    4.0356778825    2.5789967005
 H    2.1126078023    3.7048264394    1.0668262171
 H    2.6891311301    1.4631860162    1.8918512165
 H    0.9731476161    1.1260507983    2.3554255576
 H    2.0844631639    1.7380980786   -0.4811985766