18

 O    0.1810695317    1.3581377384   -0.0609805914
 C    0.0759564845   -0.0410011429   -0.0134445727
 C   -1.3809898955   -0.5334953036    0.0626693970
 C   -1.4932935868   -2.0495356102   -0.1268608542
 O   -2.8321799656   -2.4723798127    0.1085990046
 C   -3.1937490547   -2.2166781926    1.4171420094
 O   -3.1401445538   -0.8235406381    1.7619584304
 C   -2.0625353291   -0.1015792035    1.3503262708
 N   -1.7001091029    0.9464049417    1.9677429037
 H   -0.2874689834    1.6700446155    0.7316288350
 H    0.5303908317   -0.4294952474   -0.9330278083
 H    0.6379187050   -0.4688085565    0.8343487233
 H   -1.9428848118   -0.0539787666   -0.7499955017
 H   -1.2470018234   -2.3358893782   -1.1512274881
 H   -0.8094721886   -2.5820583030    0.5546619806
 H   -4.2347530781   -2.5139559289    1.5488741537
 H   -2.5437780070   -2.7600532463    2.1234259963
 H   -2.2805163323    1.1067484248    2.7918260117