23

 C   -0.0806557495    1.4937318790   -0.1948786763
 C    0.0129593740    0.0113931934    0.0967336742
 C    1.3108601878   -0.7478984901   -0.0695415512
 C    0.7104311619   -0.5737043874    1.3104128337
 C    1.4111482210    0.3402993006    2.2994414438
 C    0.0540886500   -1.7992217499    1.9348213899
 C    1.0483161292   -2.7780931193    2.5931175618
 C    0.3696904631   -4.0635367678    3.0025103221
 O    0.3416230091   -4.5102394591    4.1201838055
 H    0.8446067596    2.0236311841    0.0468558400
 H   -0.2802892808    1.6613670724   -1.2590792970
 H   -0.8918587755    1.9646962960    0.3718534806
 H   -0.8764539568   -0.5369360275   -0.2076015789
 H    1.2864662087   -1.7300365467   -0.5322296244
 H    2.2001082670   -0.1721329988   -0.3084202584
 H    1.8500945856    1.2125943133    1.8103156015
 H    0.7146301195    0.7027951584    3.0650932336
 H    2.2245654759   -0.1816648047    2.8147924481
 H   -0.6833311339   -1.4807601075    2.6837250306
 H   -0.5063422081   -2.3367528706    1.1591927646
 H    1.8284118563   -3.0318152180    1.8605253465
 H    1.5307466045   -2.3473409389    3.4738168172
 H   -0.1382401187   -4.5966592711    2.1626294424