14

 N   -0.0332701282    1.2241539050    0.5154388061
 C    0.0246349188    0.0469293963    0.0277323197
 N    1.1776289961   -0.6731842669   -0.2405673931
 C    1.2152393729   -1.9604225660   -0.7745564982
 C    0.1201608647   -2.6500220911   -1.0905654764
 C   -1.2478416655   -2.0754503413   -0.8884871442
 C   -1.2956357013   -0.6639556273   -0.3032055678
 O   -2.3445338991   -0.1107572185   -0.1015280918
 H    0.9003518180    1.6018790075    0.6975156583
 H    2.0535871827   -0.2213274845   -0.0292406746
 H    2.2156836193   -2.3532249481   -0.9109491423
 H    0.2160080603   -3.6468552557   -1.5022898624
 H   -1.8138052948   -2.0400098379   -1.8302459759
 H   -1.8568281840   -2.7067345215   -0.2258409673