16

 C    0.0538679008    0.7206646728    0.3820812697
 O    0.9793946653    0.4592135367   -0.6610207374
 C    0.5361989876   -0.4797389180   -1.6111631114
 C    0.5281650943   -1.9189624276   -1.0744058001
 C    1.5050716983   -2.9030409831   -1.6441925596
 N    1.7114904495   -2.3581275555   -0.3076002655
 C   -0.7414105306   -2.4048361469   -0.5755743470
 N   -1.7772300432   -2.7683536369   -0.2119192408
 H   -0.9171209818    1.0444714631   -0.0193509028
 H   -0.1066001079   -0.1562489925    1.0222211462
 H    0.4786648428    1.5262517120    0.9844554996
 H   -0.4626433842   -0.2226011423   -1.9928650207
 H    1.2478011953   -0.4138517178   -2.4394689482
 H    1.2418762656   -3.9557735961   -1.6730856863
 H    2.1202173192   -2.5565495379   -2.4707941147
 H    2.3799789690   -1.5891171300   -0.3129193210