17

 C   -0.0103288600    1.4978185736    0.3890789837
 C    0.0523925752    0.0122454457    0.1367016904
 O   -1.1397492683   -0.5944441717   -0.2855431216
 C    1.3441229665   -0.6238370309   -0.3574979120
 O    2.4843776455    0.1585306593   -0.5077589746
 C    0.8422695199   -0.9108239691    1.0379428078
 O    1.6677981588   -0.3783269893    2.0517661839
 C    1.0735910467   -0.0545866149    3.2284525806
 O    1.6894051442    0.3854617972    4.1486524965
 H    0.9651293103    1.8933616297    0.6753556133
 H   -0.3194480985    2.0158741803   -0.5258311055
 H   -0.7394788129    1.7305575153    1.1715683467
 H   -1.3080737793   -0.3167191198   -1.1937190520
 H    1.2495172599   -1.4262247592   -1.0865385729
 H    2.9836810509    0.1167474632    0.3170423961
 H    0.4224336157   -1.8873035230    1.2587546372
 H   -0.0134253544   -0.2524683164    3.2211448123