12

 O    0.0825645651    0.1815012307   -0.8069355544
 C    0.0333764439    1.2259362680   -0.2140197014
 N   -1.2248814568    1.8062488420    0.0925106946
 C   -1.5403055722    3.1243251402    0.2727212918
 N   -0.8246974409    4.1684491101    0.0787109642
 C    0.5108398801    4.1384764810   -0.3023760270
 O    1.0113777664    4.9335907454   -1.0597047203
 C    1.3698235672    3.0899489603    0.3677093632
 N    1.1549222648    1.8372324652    0.3582565684
 H   -1.9931000128    1.1528487543   -0.0012776402
 H   -2.5716170802    3.2675410047    0.5967148525
 H    2.2789928555    3.4527075981    0.8516756187