19

 C   -0.2629699968    1.6688393718   -0.0334925350
 C    0.0204792609    0.1620335289   -0.0176001578
 C    1.0926512811   -0.5389716588   -0.9134166055
 C    2.4355163719    0.0052172592   -0.4023629823
 O    2.3772289501    1.2215610518    0.3555237317
 C    2.2190491565   -0.0206224362    1.0523179046
 C    0.7866263040   -0.5765228767    1.1301314163
 C    0.9605822843   -1.7507251399    0.1037132579
 O   -0.1826117163   -2.5615626806    0.0052067123
 H    0.2887472730    2.1794687760   -0.8257313415
 H   -1.3304970118    1.8551948244   -0.1913645683
 H    0.0265422910    2.1477196996    0.9043943440
 H   -0.9093516733   -0.3867292968   -0.1650712705
 H    0.9581530380   -0.6678341102   -1.9882392246
 H    3.3781165452   -0.2078616749   -0.8949807534
 H    2.9757859515   -0.2567583013    1.7925698276
 H    0.3426939465   -0.7451799885    2.1107481233
 H    1.8669878370   -2.3594561201    0.2267907776
 H   -0.0545236326   -3.1749456177   -0.7250991764