24

 C    0.1458443792    1.5658223272    0.1044207692
 C   -0.0289841474    0.0524682321   -0.0553095255
 C    0.6324575931   -0.5424964719   -1.3120009087
 C    2.1587970340   -0.3949866451   -1.3042472920
 C    0.2138050779   -2.0185872209   -1.4567083507
 N    0.6552794403   -2.6379142425   -2.6942950906
 C    1.5504936487   -3.6704860756   -2.7359413277
 C    1.8723225476   -4.1897112357   -4.1302601110
 O    2.0561494713   -4.1522549983   -1.7380479284
 H    1.1960833705    1.8454097767    0.2295755496
 H   -0.2394506418    2.1029846164   -0.7698628182
 H   -0.3969396558    1.9300571609    0.9822226099
 H    0.3697245407   -0.4587423037    0.8316873025
 H   -1.1020597538   -0.1792033058   -0.0800750411
 H    0.2377763171    0.0021658954   -2.1849028783
 H    2.5921630163   -0.8866766316   -0.4258394845
 H    2.6017541929   -0.8553493208   -2.1916232870
 H    2.4623399670    0.6553817342   -1.2894768995
 H    0.6460158746   -2.6182827229   -0.6509217635
 H   -0.8790345738   -2.0962557478   -1.3824957226
 H    0.2772634051   -2.2932735003   -3.5611895495
 H    2.9555242708   -4.1624763253   -4.2724264272
 H    1.5620732839   -5.2362451840   -4.1954715752
 H    1.3919657618   -3.6273560508   -4.9355212899