12

 N    0.0563392000    1.3756629115    0.1184589599
 C   -0.0422791032    0.0420177339    0.0413463953
 C   -1.1150971448   -0.8268084554    0.0178562431
 N   -0.6612139369   -2.1317752163   -0.0156448860
 C    0.6136003253   -2.0204364661   -0.0154337399
 O    1.0758117854   -0.7113894025    0.0187016384
 N   -2.4726288360   -0.4382476466    0.0076875769
 O   -2.6824988146    0.7912130311    0.0279005561
 O   -3.3447653448   -1.2914008057   -0.0228031779
 H    0.9264429079    1.8229651868   -0.1163272926
 H   -0.8192903650    1.8668902388    0.0014767009
 H    1.3719436965   -2.7848573095   -0.0393983242