18

 C   -0.6207726798    1.0891674729    0.5885968274
 C    0.3945911266    0.2472800626   -0.1557570245
 O    1.5716118904    0.2531674241    0.1258083527
 C   -0.0912542817   -0.6202654734   -1.3044815982
 C    0.9876237521   -1.0592750177   -2.2721366154
 C   -1.2574133817   -1.5608492545   -1.0456073704
 N   -1.4454302743   -0.3445649571   -1.7842623111
 C   -1.8471423784   -0.2914041916   -3.1117120107
 O   -2.6825936048   -1.0074734766   -3.6034099332
 H   -1.0251715201    1.8549363745   -0.0810278480
 H   -1.4751915209    0.4972630517    0.9296290545
 H   -0.1309034658    1.5618886813    1.4400694286
 H    1.7755736248   -1.5841166050   -1.7287810126
 H    0.5776311629   -1.7214524384   -3.0394343956
 H    1.4507934561   -0.1978034973   -2.7620508397
 H   -1.2678878978   -2.4918928020   -1.6068771691
 H   -1.7169338524   -1.6078606625   -0.0625957369
 H   -1.3602492252    0.5404290592   -3.6541429779