21

 C   -0.0565587154    1.5539796503   -0.0273539873
 C    0.0063325456    0.0322153688    0.0438609273
 O    0.7174166983   -0.5002510879   -1.0947021266
 C    2.0085434981   -0.8564442919   -0.6487943850
 C    2.2678490251   -0.4600129096    0.7630505098
 C    0.7898393326   -0.5189851620    1.2412445894
 C    0.8572712701   -2.0766498293    1.1585079637
 C    2.1752695592   -1.9528906376    0.3884633480
 C    3.2468387092   -3.0012466609    0.3150055720
 H    0.9454635271    1.9887956575    0.0488182417
 H   -0.4926252752    1.8688627033   -0.9794563656
 H   -0.6717372436    1.9568353621    0.7847188362
 H   -1.0064525828   -0.3879785893    0.0092686724
 H    2.7694273017   -0.7584894438   -1.4148761636
 H    3.0828360278    0.1463406223    1.1369054503
 H    0.5244311568   -0.0817679384    2.2029086217
 H    1.0171828910   -2.5250252354    2.1433255216
 H    0.0230531949   -2.5850286589    0.6608109442
 H    2.9016520537   -3.8784620390   -0.2455882190
 H    4.1440753716   -2.6214320975   -0.1856345892
 H    3.5433851042   -3.3412129030    1.3144464480