15

 N   -0.2594935053   -1.1427022775    0.3440123502
 C   -0.1790359126    0.0065640296    0.2632600093
 C   -0.0740630313    1.4594823699    0.1458551039
 C    1.3302399358    1.9176744922   -0.2498726582
 C    1.6020306465    3.4366099549   -0.2186868235
 C    2.6941577270    3.0691157941    0.8202756450
 O    2.2993770817    1.6834953725    0.8002286696
 C    4.0789776142    3.2712471294    0.3828886429
 N    5.1649532894    3.4503194636    0.0315256520
 H   -0.7885025597    1.8052341451   -0.6113223857
 H   -0.3558769020    1.9179215275    1.1000423126
 H    1.6380909256    1.4226650191   -1.1776128987
 H    1.9579932364    3.8822342715   -1.1460821503
 H    0.7923042188    4.0393384614    0.1952294283
 H    2.5719957755    3.5085604067    1.8160415228