20

 C   -0.2580884882    1.5916529277    0.0350234298
 C   -0.0655374788    0.0729598536    0.0037161962
 C    0.7524235753   -0.3708731495   -1.2237619418
 C   -0.1016519925   -0.1634408900   -2.5789881011
 O   -1.3085792414    0.0886519958   -2.3857163639
 O    0.5794697203   -0.3004305217   -3.5962957028
 C    0.6028829587   -0.5180996891    1.2003575064
 C    1.5855660211    0.1834525951    2.0465908212
 N    0.2272991632    0.0481408480    2.6469091842
 H   -0.3633578794    0.8717275706    2.6428949405
 H    0.0968846911   -0.5776934055    3.4322987279
 H    0.6917872480    2.1393431364    0.0353920382
 H   -0.8021018457    1.8368216673   -0.8795887099
 H   -0.8693912456    1.9429623451    0.8808533304
 H   -1.0515179439   -0.3857626242   -0.1329988080
 H    1.6983394714    0.1768801521   -1.2992927722
 H    0.9969447461   -1.4392326485   -1.1671282475
 H    0.6262685696   -1.6020909222    1.2580512492
 H    2.3493039122   -0.3766799975    2.5747355178
 H    1.8492303585    1.2069155465    1.8072825754