20

 C    0.0776348219    1.5188620021    0.0196257606
 C    0.0664720349    0.0068167524   -0.1071657495
 C    0.8245754615   -0.6804290144   -1.2663026915
 C    1.2813631017   -1.7197326278   -0.2246693735
 N    0.9421945478   -0.7411761733    0.8254721180
 C    0.3795535468   -1.2292473842    2.0658201926
 O    0.0195325689   -1.1727873166   -2.3253560401
 C    0.3565101107   -0.8639767969   -3.5935083036
 O   -0.2716488691   -1.2364752111   -4.5371172072
 H    1.1024708687    1.9009921713   -0.0093891923
 H   -0.4962290504    1.9788029573   -0.7922191132
 H   -0.3748582150    1.8357763586    0.9651351153
 H   -0.9688849838   -0.3764877247   -0.0978805906
 H    1.6438759668   -0.0694408836   -1.6594088864
 H    0.6154821035   -2.5974554567   -0.2470823686
 H    2.3239233458   -2.0532279054   -0.2373137644
 H    1.1298722374   -1.8134044614    2.6088930242
 H    0.0922413951   -0.3848374341    2.7008904721
 H   -0.5114177442   -1.8679578748    1.9167544155
 H    1.2670901710   -0.2360132767   -3.6535911175