21

 C    0.9063708723   -0.3587855416    1.2853210701
 C    0.0958455237    0.0352813859    0.0467698515
 C    0.7653026938   -0.3758725166   -1.2784708375
 C    0.8591932989   -1.8916500594   -1.4681322126
 O   -0.4051346243   -2.5609856936   -1.4761922893
 C    0.2205508267   -2.2360583786   -2.7458856915
 C   -0.2629354009   -0.9581747249   -3.3393235820
 C    0.0046596536    0.0736604391   -2.5288222139
 C   -0.3844039074    1.5021139655   -2.7430300118
 H    1.0269816226   -1.4444383700    1.3559942789
 H    1.9069928035    0.0882570059    1.2656652611
 H    0.4104835681   -0.0224711921    2.2010145970
 H   -0.8948748566   -0.4305666477    0.0840361761
 H   -0.0612531486    1.1201711058    0.0480333085
 H    1.7808630514    0.0500578264   -1.2983284375
 H    1.6822754192   -2.4569244037   -1.0390124967
 H    0.4950638151   -3.0957344327   -3.3494997686
 H   -0.7867597041   -0.8948317633   -4.2859049584
 H   -0.8368165109    1.6468867325   -3.7276707258
 H   -1.1063994060    1.8401785094   -1.9896116924
 H    0.4848060400    2.1674364140   -2.6623978551