15

 N   -0.1058751644    0.8620570783   -0.9330503941
 C   -0.0807147874   -0.0330382939   -0.0479772441
 C   -1.3286227372   -0.6135080493    0.5716282463
 N   -1.3010368392   -2.0654371971    0.7499604515
 C   -0.6396086830   -2.8403516157   -0.2823741229
 C    0.0255457964   -2.6189034514    1.0464227909
 C    1.2088899759   -1.7197559515    1.1277090428
 O    2.2174950605   -1.9820101060    1.7131279511
 O    1.1167971686   -0.5128205610    0.4595638167
 H    0.8421515760    1.1421445360   -1.1945112589
 H   -1.4744011503   -0.1640531783    1.5613129641
 H   -2.1782674481   -0.3386260598   -0.0547078517
 H   -1.0691155262   -3.8169165990   -0.4815767035
 H   -0.2293351242   -2.3302546370   -1.1510951253
 H    0.0606646325   -3.4236000942    1.7724974469