17

 C    0.0580125154    1.5420840104    0.0094013429
 C   -0.0469893492    0.0198482995    0.0026941060
 C   -1.4748169834   -0.4779108069    0.0133117980
 O   -2.4477897317    0.2365229742    0.0263133279
 C   -1.6431635081   -2.0196320507    0.0066431840
 O   -0.6669897418   -2.7419164852   -0.0065144984
 C   -2.9982807121   -2.5004792125    0.0170238957
 C   -4.1318017337   -2.9160297619    0.0256611528
 C   -5.4964627227   -3.4085247694    0.0362310371
 H    1.1057412885    1.8540173695    0.0014259627
 H   -0.4376280460    1.9737170154   -0.8642281540
 H   -0.4216035526    1.9648599643    0.8962046998
 H    0.4513613763   -0.4238231038   -0.8689789915
 H    0.4671726314   -0.4324744062    0.8606453367
 H   -5.5295351499   -4.5025721495    0.0302359968
 H   -6.0263026143   -3.0535993453    0.9269191687
 H   -6.0436823362   -3.0433752119   -0.8396917152