16

 O   -0.1919682074    1.3202207752   -0.1297587571
 C   -0.0052365065   -0.0893006755    0.0095629369
 C   -1.4105321249   -0.7079415991   -0.1084472955
 C   -1.6260006511   -0.6714276066   -1.6227318563
 O   -0.3431483328   -0.9121821790   -2.2048565517
 C    0.6779110688   -0.6863295525   -1.2473181117
 C    0.7082218054   -0.4065658753    1.2456533441
 C    1.3252542876   -0.6411479061    2.2504432700
 H    0.6724071889    1.7403803214   -0.0632821614
 H   -1.3922377658   -1.7350958134    0.2640731729
 H   -2.1427113138   -0.1306195344    0.4576436362
 H   -2.3166179020   -1.4432909967   -1.9766113606
 H   -2.0035270529    0.3095903467   -1.9390926754
 H    1.4211911316    0.0144671545   -1.6479346275
 H    1.1852968157   -1.6294511730   -1.0035596625
 H    1.8594933692   -0.8514519766    3.1441595895