19

 O   -0.2151138547    1.3218057776   -0.2827652986
 C   -0.0859921736   -0.0672449679   -0.1193199503
 C    0.3508174381   -0.5580593572    1.3284517330
 C   -1.0158207920   -1.2254020337    1.4648849808
 N   -2.0181316568   -0.1435423999    1.2767949098
 C   -1.4206905954   -0.8156571975    0.0947013771
 C    0.7671925406   -0.6126359559   -1.2377981812
 C    0.6929286817   -0.0245764380   -2.5968378364
 N    1.8890122757    0.1813366335   -1.7556999120
 H   -0.9051508225    1.5876730947    0.3414978945
 H    1.1813197271   -1.2662638081    1.2890653982
 H    0.5694060088    0.2355539472    2.0468114654
 H   -1.2732047256   -2.1200215196    2.0172762163
 H   -2.9443759241   -0.5424583056    1.4207756047
 H   -2.0429437101   -1.3038365952   -0.6459075741
 H    0.9836250308   -1.6748470587   -1.1408128263
 H    0.8475906127   -0.6551940385   -3.4678838784
 H    0.0215739913    0.8158063750   -2.7395814072
 H    1.8268813580    1.1111519877   -1.3448565352