22

 C    0.2693020823    1.4452720191    0.3425568020
 C   -0.2181990410    0.0799042216   -0.1563882086
 C    0.5719478271   -0.4464009932   -1.3424141084
 C    0.4557240548    0.3544611812   -2.6328117808
 C    1.0000967504   -0.4032639039   -3.8472955702
 O    0.4499766473   -1.7018057953   -3.9251617709
 C    0.8933716380   -2.5387190277   -2.8711457630
 C    0.8030163721   -1.9128054168   -1.4846223332
 N    1.8770405885   -1.0297570648   -0.9799101310
 H    1.3326494365    1.3988265704    0.5974075341
 H    0.1340215445    2.2285131073   -0.4103781701
 H   -0.2805656988    1.7522792783    1.2372486925
 H   -0.1356971487   -0.6487768155    0.6570676145
 H   -1.2803285390    0.1340015089   -0.4291710711
 H   -0.6043000780    0.5741440563   -2.8091659588
 H    0.9713927904    1.3182213777   -2.5372966429
 H    0.7210939623    0.1104629025   -4.7715651845
 H    2.1038282179   -0.4529124334   -3.8234459322
 H    0.2592139091   -3.4289928285   -2.9140659211
 H    1.9317018500   -2.8642125096   -3.0630670853
 H    0.4076435820   -2.5762985810   -0.7180044374
 H    2.5652486123   -0.8684640936   -1.7134979335