21

 C   -0.4131253746    1.5286312593   -0.0394262232
 O   -0.4015881513    0.2564494035    0.5731984345
 C   -1.2967108987   -0.6474378653   -0.0070158769
 C   -0.9366187008   -1.3180243124   -1.3617881634
 C   -1.3751221612   -2.6816789142   -0.7630753914
 C   -1.3088656108   -2.0702550965    0.6627240814
 C   -0.0284369749   -2.3814789685    1.4406738773
 C   -2.5214890208   -2.2766787073    1.5370368890
 O   -3.5161436396   -2.8789003585    1.2187749006
 H    0.2976008751    2.1558512478    0.5033710915
 H   -0.1087581276    1.4789908180   -1.0950199198
 H   -1.4106252496    1.9920061119    0.0114625043
 H   -2.3104946756   -0.2160505898   -0.0384035747
 H   -1.4593068621   -0.9637964056   -2.2527158581
 H    0.1414521145   -1.2697696852   -1.5375146272
 H   -2.3986649881   -2.9594402964   -1.0212122005
 H   -0.7193265306   -3.5345787243   -0.9486199431
 H    0.8582501145   -2.1487129254    0.8465641052
 H    0.0300500167   -1.7900962221    2.3592625032
 H    0.0050368225   -3.4432776587    1.7069641567
 H   -2.4476032370   -1.7867070700    2.5368967546