22

 C    0.0789344887    1.5100162678    0.2728230777
 C   -0.1369469048    0.0106795571    0.4744703712
 C   -1.4965836535   -0.5002300919    0.0696551727
 N   -2.3455777808    0.3479851756   -0.3676226118
 O   -3.5709241535   -0.2564756644   -0.7219425612
 C   -1.7860496549   -1.9880145626    0.1746689035
 C   -1.6644417638   -2.6614501143   -1.2017055667
 O   -0.8811194044   -2.5358522779    1.1232413626
 C   -1.2813062003   -3.7740991962    1.6619735276
 H    1.0880877713    1.7895116519    0.5899102697
 H   -0.0451597943    1.7928079615   -0.7758261481
 H   -0.6395542167    2.0944837051    0.8531293537
 H    0.6184927184   -0.5631622370   -0.0798989670
 H    0.0238861389   -0.2687005101    1.5219482463
 H   -4.0962546130    0.5039469741   -0.9905881617
 H   -2.8176750108   -2.1057152851    0.5367478282
 H   -0.6466279209   -2.5551846496   -1.5888331353
 H   -1.8997136025   -3.7278468972   -1.1391870176
 H   -2.3640782511   -2.1975960560   -1.9001081730
 H   -1.2930302933   -4.5793552265    0.9134198807
 H   -0.5567708157   -4.0347552353    2.4375421135
 H   -2.2820059827   -3.7126179891    2.1173259149