19

 C    0.1873602871    1.5260566082   -0.2256211219
 C    0.0337380418    0.0403381661   -0.0175610058
 C   -1.1755401052   -0.6296051031   -0.6646896209
 O   -2.3791542609   -0.4970895018    0.0741043849
 C   -2.2982936831   -0.7757116305    1.4749500038
 C   -1.3765915372   -1.9147987771    1.8683527759
 C   -0.0520169750   -1.8394730839    1.7356280549
 C    0.6032052645   -0.6264563055    1.1682426051
 O    1.2366504349   -0.7426918802   -0.1169381575
 H    1.0326963929    1.9223061673    0.3424140498
 H    0.3495580189    1.7494392439   -1.2857849792
 H   -0.7248022542    2.0446520375    0.0888763505
 H   -1.3890623676   -0.1756441332   -1.6379257635
 H   -0.9207053229   -1.6828420938   -0.8298898101
 H   -1.9910132459    0.1361389714    2.0089049991
 H   -3.3251878728   -0.9950564036    1.7787629007
 H   -1.8317750923   -2.8146039131    2.2730247249
 H    0.5924325620   -2.6611653696    2.0389171604
 H    1.1805914051   -0.0212953791    1.8710172690