23

 C   -0.2083589928    1.4978177995   -0.0768755557
 C    0.0867007525   -0.0058306741   -0.0319177822
 C    0.7944211938   -0.4849141259    1.2391984662
 C    2.1928409458    0.1073472115    1.4138125094
 C   -0.0472454703   -0.4265765187    2.5780986621
 C    0.0743680292   -1.9565200523    2.6812788840
 C    0.0752732142   -2.8126376623    3.9053811215
 O   -0.5319130971   -2.4863683702    1.4870149527
 C    0.8222241335   -2.0223867161    1.4146475009
 H    0.7077908135    2.0969768253   -0.0789410081
 H   -0.7693679051    1.7553375412   -0.9806379221
 H   -0.8082353169    1.8129044149    0.7841130780
 H   -0.8496693124   -0.5658068166   -0.1225766061
 H    0.7001254913   -0.2813761697   -0.9011762298
 H    2.1552461066    1.1918360585    1.5551844800
 H    2.6975495249   -0.3223130486    2.2864057354
 H    2.8168674235   -0.0951488415    0.5352670692
 H    0.4700459906    0.1114328156    3.3771555454
 H   -1.0737937421   -0.0588883778    2.4982098070
 H   -0.9127766923   -2.8141835894    4.3801222796
 H    0.3303695746   -3.8444724834    3.6491982025
 H    0.7984158373   -2.4424102130    4.6393818599
 H    1.5690610077   -2.7270676670    1.0598423304