22

 C   -0.0496358223    1.5921417099   -0.0079369844
 C    0.1648892024    0.0747159775   -0.0299655400
 C    0.7487172119   -0.5284954116    1.2603173104
 C    2.1155244787    0.0540995020    1.6072148979
 C   -0.2901045364   -0.5602434843    2.4301501233
 C   -0.6292627576   -2.0384455135    2.0637129757
 C    0.6831221655   -2.0901065660    1.2210413628
 C   -0.7804566169   -2.9922393322    3.1483875471
 N   -0.8814630879   -3.7457881954    4.0200940913
 H    0.8955336717    2.1358234036    0.0786084934
 H   -0.5358366913    1.9245185126   -0.9300053475
 H   -0.6873620095    1.8986282985    0.8282989668
 H   -0.7923887890   -0.4160370011   -0.2503087373
 H    0.8325214120   -0.1857957483   -0.8623067520
 H    2.0556151054    1.1242241117    1.8302331091
 H    2.5400009206   -0.4416915948    2.4861223600
 H    2.8207535782   -0.0745803002    0.7775228327
 H    0.1877657075   -0.4906711985    3.4098525338
 H   -1.1218065042    0.1465276763    2.3932678411
 H   -1.5137417460   -2.0949225279    1.4241535107
 H    0.6079635314   -2.5655299087    0.2402029323
 H    1.4990205159   -2.5539527396    1.7796741228