23

 C    0.0175910527    1.5765893451   -0.0880392408
 C    0.0161828511    0.0511781721    0.0414311741
 C   -1.3974583654   -0.5421188121    0.0177392074
 C   -1.4445126429   -2.0687090301    0.0752447276
 O   -0.7256549961   -2.5313877651   -1.0733056294
 C   -0.8281534802   -2.7003726705    1.3600150442
 C   -1.6451069618   -3.9564960509    1.5521321384
 C   -2.7682285825   -3.9289163447    0.8328123317
 C   -2.8889207670   -2.6495350506    0.0399173367
 H    1.0360032093    1.9774461288   -0.0694804863
 H   -0.4472491822    1.8944861848   -1.0281517003
 H   -0.5397762048    2.0481422927    0.7296869421
 H    0.5976051620   -0.3956938974   -0.7709445173
 H    0.5190167253   -0.2346377500    0.9742358085
 H   -1.9831904388   -0.1446036609    0.8563547301
 H   -1.9074122691   -0.2227169024   -0.9005869101
 H   -0.7343204474   -3.4948928413   -1.0450699086
 H    0.2430280156   -2.8822456906    1.2242244104
 H   -0.9303961874   -2.0349159089    2.2288741851
 H   -1.3496707136   -4.7545695664    2.2244822059
 H   -3.5295765793   -4.7012643972    0.8279990148
 H   -3.6115533894   -1.9670180406    0.5089905610
 H   -3.2114732582   -2.7920387738   -0.9970694851