20

 C   -0.1190644848    1.5720793966    0.0117541915
 C    0.0061838274    0.0463179202    0.0024733821
 C   -1.3601813112   -0.6434607000    0.0114768749
 C   -1.3271806698   -2.1574084180    0.0030812801
 N   -0.1792254219   -2.7367447319   -0.0109879933
 O   -0.2810222683   -4.1257284659   -0.0174272831
 C   -2.5754263124   -2.8441910856    0.0113791883
 C   -3.6621847138   -3.3684963659    0.0189961887
 C   -4.9592292088   -4.0240589980    0.0279036926
 H    0.8660140217    2.0486924837    0.0051582304
 H   -0.6683817796    1.9339963533   -0.8649050910
 H   -0.6520024581    1.9245984889    0.9022443454
 H    0.5702591824   -0.2799304231   -0.8776104594
 H    0.5864508271   -0.2892212518    0.8684276882
 H   -1.9377769670   -0.3250794385    0.8905501754
 H   -1.9539480398   -0.3157706543   -0.8532913639
 H    0.6437338496   -4.3962763207   -0.0276878257
 H   -4.8523530364   -5.1139900484    0.0217551136
 H   -5.5352494523   -3.7482914295    0.9183780033
 H   -5.5515983040   -3.7399348612   -0.8491176181