16

 C   -0.0340842658    1.4682942610   -0.0192868054
 N   -0.0084758247    0.0145775024    0.0655283149
 N   -0.0366475239   -0.6038820431   -1.1547760853
 N   -0.0195734751   -1.8580976439   -1.2450307672
 C    0.0301003942   -2.7174801507   -0.0862414669
 O    0.0441988716   -3.9193650587   -0.2479689419
 C    0.0590276658   -2.0362997812    1.1886033122
 C    0.0394214955   -0.6824072434    1.2484579462
 C    0.0670526987    0.0946137338    2.5321626334
 H    0.8644555489    1.9062276302    0.4250195136
 H   -0.0713952932    1.7166795836   -1.0791166020
 H   -0.9162252428    1.8781142898    0.4811399360
 H    0.0966343759   -2.6297432019    2.0935172528
 H    0.1045767285   -0.5957541528    3.3759601210
 H    0.9415564660    0.7517208266    2.5859579430
 H   -0.8231176296    0.7232386485    2.6411496655