16

 O    0.0455398817    1.3816030113    0.1264279334
 C   -0.0302671683   -0.0014510427   -0.0110099501
 C   -1.3461167097   -0.7575246519   -0.0380871794
 C   -2.6016728089    0.0436992406   -0.3684538527
 C   -2.3496364892    0.5653557000   -1.7695049942
 C   -1.1804235287    0.1424943515   -2.2623029761
 C   -0.4303922842   -0.6977303036   -1.2801327341
 O    0.3747131125   -1.7415351668   -1.7268042150
 H   -0.4024325131    1.7757658415   -0.6328749530
 H    0.7695939930   -0.4893576426    0.5371326671
 H   -1.4192827548   -1.6615909532    0.5553550665
 H   -3.5127832439   -0.5654671712   -0.3230262353
 H   -2.7442237940    0.8710534230    0.3398814144
 H   -3.0413827398    1.2296488846   -2.2757654504
 H   -0.7710665024    0.3793093581   -3.2380821043
 H   -0.1944803703   -2.3957288086   -2.1489226168