15

 C    0.0861938830    1.4127315999    0.1405532393
 N   -0.0184595514    0.0109607401   -0.2270661131
 C   -1.2133078271   -0.6526154344   -0.0823959323
 N   -1.2398441222   -1.9647933859    0.0775412977
 O   -2.5876921872   -2.3160108845    0.1186598804
 C   -3.3358406283   -1.1991913634    0.0000632942
 C   -2.5297329029   -0.1057698278   -0.1284622758
 C   -4.7378298954   -1.3376368929    0.0245236645
 C   -5.9357088713   -1.4497972588    0.0448243610
 H    1.1044730881    1.7518779645   -0.0611524071
 H   -0.5870610094    2.0148307553   -0.4774268611
 H   -0.1456388045    1.6119037041    1.1974575135
 H    0.7743529781   -0.5611841420    0.0261813277
 H   -2.8358589091    0.9191161582   -0.2437870887
 H   -6.9928978004   -1.5516596226    0.0625847100