19

 C   -0.0475635240    1.4944745202    0.0136132613
 C    0.0080787374   -0.0214603769    0.0314333316
 C    0.7996295286   -0.6826107484   -1.1294563463
 O    1.0629935894   -2.0266020815   -0.6837033552
 C    0.4868889185   -2.1250204258    0.6371208493
 C    0.7134779718   -0.7256926444    1.2169551047
 C   -1.0290645110   -2.1505043632    0.4004648414
 O   -1.8019495068   -1.2889808877    1.2506460147
 C   -1.3351509364   -0.7737391924   -0.0017488902
 H    0.9578382494    1.9278712210    0.0464093437
 H   -0.5398857724    1.8641597371   -0.8932154987
 H   -0.6075471944    1.8756207792    0.8733588168
 H    0.2324164518   -0.7081920795   -2.0686998699
 H    1.7502923779   -0.1647800796   -1.3125172333
 H    0.9342639343   -2.9802340202    1.1421467407
 H    1.7759837824   -0.4807541525    1.2789188793
 H    0.2228461210   -0.5552246349    2.1733054180
 H   -1.5317714572   -3.0280923979    0.0080462477
 H   -2.1021705402   -0.5108412228   -0.7255933956