21

 C   -0.1492567957    1.4594407569    0.1008367570
 C    0.0827206279   -0.0401929422    0.0789528729
 C    0.7147104773   -0.6018553549   -1.2011747169
 C    1.3692975348   -1.9072468818   -0.7138666092
 C    1.5907282158   -1.6371292932    0.8125110675
 O    1.0349827610   -0.3716119866    1.0947268241
 C    0.9262117869   -2.7468956667    1.6394199252
 C    1.7548786205   -4.0027498692    1.8432286276
 O   -0.1938274132   -2.6264713573    2.0742046696
 H    0.7858577701    1.9947984748   -0.0916888838
 H   -0.8799259772    1.7437839413   -0.6627523424
 H   -0.5321303845    1.7736714877    1.0755063255
 H   -0.8599754098   -0.5673384868    0.2881381324
 H   -0.0137859338   -0.7660074467   -1.9991285369
 H    1.4733769056    0.0972512573   -1.5692234041
 H    0.6963634971   -2.7571575735   -0.8644280967
 H    2.3052166055   -2.1330338912   -1.2285436689
 H    2.6587480597   -1.5972357500    1.0603759562
 H    2.2106427007   -4.3327747716    0.9030781458
 H    2.5777087564   -3.7876482517    2.5355996893
 H    1.1346054748   -4.7977895645    2.2585205460