20

 C   -0.2361594945    1.5756157688   -0.0829807736
 C   -0.0164176475    0.0786993305    0.0176132756
 C    1.2833656090   -0.6572706361   -0.2333986426
 C    2.6224834849    0.0270331285   -0.3875709675
 O    2.8334925035    1.1562575802    0.4694536482
 C    2.3722482111    1.1763722991    1.7533886508
 N    2.6616141092    2.1353991300    2.5296776438
 C    1.4949959764    0.0397105229    2.2258474990
 C    0.6826036983   -0.6531352989    1.1480099174
 H    0.5897499579    2.1685806418    0.3073258075
 H   -0.3843465412    1.8665786479   -1.1291206542
 H   -1.1402365079    1.8605475132    0.4661057683
 H   -0.8730529956   -0.4785972203   -0.3565586443
 H    1.2264667674   -1.5699678104   -0.8209736034
 H    3.4233777959   -0.7054798583   -0.2091975447
 H    2.7598462734    0.4214123708   -1.3995036208
 H    3.2839433466    2.7919666840    2.0533049894
 H    2.1531864090   -0.7109283713    2.6856438416
 H    0.8733295551    0.4343267601    3.0330935018
 H    0.2015569090   -1.5632517625    1.4942908777