16

 O   -0.0756866474    1.4328493508   -0.1494647047
 C    0.0386220850    0.0194339748   -0.1189346198
 C   -1.3594066375   -0.5444029247    0.1515718272
 C   -1.3907773168   -2.0312870364    0.1982731245
 C   -1.6329220762   -2.9370479997    1.1851217225
 C   -1.5022626673   -4.2370236177    0.5937666607
 C   -1.1884351357   -4.0238778358   -0.7087785177
 O   -1.1155940295   -2.6899391010   -0.9683866193
 H    0.7908208228    1.8007300911   -0.3448915157
 H    0.4132838412   -0.3780740922   -1.0737207195
 H    0.7272282836   -0.3150328940    0.6727090405
 H   -1.7210564574   -0.1534947067    1.1071041157
 H   -2.0345734183   -0.1686264112   -0.6268266960
 H   -1.8785313062   -2.7066652046    2.2101887961
 H   -1.6287239174   -5.1934583259    1.0762274908
 H   -0.9951936430   -4.6740466467   -1.5459243754