23

 C    0.1374589749    1.3880449967    0.1189651101
 O   -0.1518470008    0.0246278410   -0.0794752999
 C    0.5584200059   -0.5586208872   -1.1603445571
 C    2.0638963248   -0.7801999225   -0.8656549980
 C    2.4067535174   -2.1113767555   -1.5532604196
 C    1.1511398372   -2.9624030381   -1.3009716787
 C    0.0065047381   -1.9641835875   -1.4627179395
 C   -1.4127382080   -2.3177598235   -1.1192924299
 C   -1.0181675100   -2.1351585498   -2.5616543817
 H    1.1818805218    1.5563879670    0.4213611773
 H   -0.0543338680    1.9812165088   -0.7900773639
 H   -0.5175596083    1.7460585015    0.9174735070
 H    0.4391600925    0.0919445578   -2.0428389575
 H    2.6952111739    0.0510301849   -1.1909351388
 H    2.1756528786   -0.8817853360    0.2208204965
 H    2.5443244369   -1.9564447255   -2.6304005106
 H    3.3243594737   -2.5654469611   -1.1687378402
 H    1.0644419589   -3.8199926654   -1.9747474728
 H    1.1724640678   -3.3541116801   -0.2754032058
 H   -1.6082407415   -3.3246959500   -0.7638606035
 H   -2.0107387807   -1.5472862047   -0.6478144469
 H   -1.3666322246   -1.2444137485   -3.0760253659
 H   -0.9459854006   -3.0149630624   -3.1936328905