17

 C    0.1714179772    1.5353933198    0.0111062040
 C    0.0286159961    0.0190469600    0.0490128132
 O    0.6467713364   -0.5397772539   -1.1418972126
 C    1.2910011801   -1.7236471315   -0.7467988552
 C    2.8105092801   -2.0745573173   -0.8655007219
 O    3.6013347870   -1.1746038144   -0.0927703108
 C    2.8868810650   -2.2067970620    0.6148756743
 C    1.4941596429   -1.6204102484    0.7372323230
 C    0.7731550022   -0.6223670334    1.2254892653
 H    1.2273924879    1.8171101312    0.0475370080
 H   -0.2623132969    1.9260073351   -0.9134708394
 H   -0.3501459639    1.9930529053    0.8579028676
 H   -1.0412002976   -0.2481879647    0.0430476018
 H    0.7290707936   -2.6211359992   -1.0579813229
 H    3.3124978930   -2.6373451755   -1.6439966667
 H    3.4570389286   -2.8807029284    1.2400814890
 H    0.7717426283   -0.1889949026    2.2176060232