25

 C   -0.1147258540    1.4719251906   -0.0408724510
 O   -0.0682462075    0.0935674102    0.2364245211
 C   -1.2883256924   -0.6076068695    0.0109783212
 C   -1.5355808798   -0.8470951648   -1.4812956614
 C   -1.1941431826   -1.9177221647    0.7942484826
 C   -1.0536602601   -1.7187393849    2.3084052897
 C   -0.9323840045   -3.0214965674    3.0693056917
 C    0.4108752871   -3.6922642458    3.2231198773
 C   -0.2628063100   -3.0628655063    4.4187313132
 H    0.8441093206    1.8957113615    0.2696308355
 H   -0.2568103804    1.6884169768   -1.1100212623
 H   -0.9198363340    1.9735542757    0.5195153355
 H   -2.1209857695   -0.0070946504    0.4196029371
 H   -0.7214100663   -1.4404799595   -1.9095305742
 H   -2.4752197826   -1.3881835882   -1.6317085480
 H   -1.6033193388    0.0924395656   -2.0372620785
 H   -2.0878714365   -2.5167329048    0.5779235926
 H   -0.3350499021   -2.4862993722    0.4164383117
 H   -0.1734849134   -1.0956467955    2.5009363686
 H   -1.9199770900   -1.1539747034    2.6818263860
 H   -1.7787049045   -3.6941039621    2.9451596373
 H    0.4632300992   -4.7743031055    3.1710448383
 H    1.2770912722   -3.1866475824    2.8080373042
 H    0.1535203619   -2.1374476715    4.8037752839
 H   -0.6724973222   -3.7151089819    5.1823162578