13

 O   -0.0647932268   -0.0452603135    0.0036185768
 C   -0.0671262967    1.1743751467    0.0067708016
 C    1.2043849106    1.9272864855    0.0000919077
 N    2.2061344427    2.5043480087   -0.0052210141
 C   -1.2552555376    1.9857567348    0.0169428190
 C   -1.4654513983    3.3635432317    0.0219905834
 C   -2.8553751574    3.5737165178    0.0317966488
 C   -3.4616865453    2.3233546735    0.0327299609
 N   -2.4915781683    1.3791761692    0.0238541329
 H   -0.6878721085    4.1117643895    0.0186877822
 H   -3.3691892923    4.5219204166    0.0376398842
 H   -4.5058015529    2.0520438242    0.0390702281
 H   -2.6043545093    0.3777611053    0.0221108884