17

 C    0.1145628943    1.5553112772    0.1138538610
 C   -0.0027824049    0.0315084481   -0.0860371172
 C   -1.4591495463   -0.4904389184   -0.0316123334
 C   -2.1206415021   -0.3062075947    1.3434960237
 C   -3.4640530763   -1.0038829944    1.4080092363
 O   -4.4981120297   -0.4735124574    1.7165863764
 C    0.6089011714   -0.3586541961   -1.3617846177
 N    1.0790286821   -0.6640120166   -2.3724972945
 H    1.1555118017    1.8767230523    0.0332958139
 H   -0.4672109406    2.0896184373   -0.6426949536
 H   -0.2549509498    1.8404077712    1.1015531996
 H    0.5701873415   -0.4705280095    0.7051709329
 H   -2.0488163492    0.0203921100   -0.8012507324
 H   -1.4580036357   -1.5544616642   -0.2944017110
 H   -1.4813176809   -0.7605196634    2.1156567867
 H   -2.2705890658    0.7451537279    1.5996936026
 H   -3.4306026598   -2.0860367793    1.1392313067