23

 C   -0.7137584795    1.1661552968    0.0236197915
 C    0.1480855403   -0.0824502856   -0.0768682914
 C    1.5584084760   -0.0108619901   -0.7231580105
 C    2.0315903459   -1.0888835216    0.2869855721
 C    0.8105803096   -0.7407904027    1.1795244867
 C    1.1035664237    0.1656440053    2.3885794378
 C   -0.0075107497   -0.2105913208    3.3787844858
 C   -0.1540558961   -1.7063289969    3.0933595644
 O    0.0852525774   -1.8545744754    1.6974360878
 H   -0.1725528786    2.0040519856    0.4768682411
 H   -1.0399734045    1.4927366820   -0.9702221450
 H   -1.6150416031    0.9840818195    0.6199761780
 H   -0.4222801691   -0.8824485081   -0.5623579475
 H    1.6374593681   -0.2427511005   -1.7873148126
 H    2.0374882954    0.9569951871   -0.5422880552
 H    1.9238121627   -2.0994062234   -0.1153932196
 H    3.0265972438   -0.9843205209    0.7285097781
 H    2.0828106965   -0.0912818921    2.8095218707
 H    1.1237842960    1.2277119867    2.1366018138
 H    0.2452445424    0.0044646935    4.4200582121
 H   -0.9365615872    0.3162255253    3.1368702557
 H    0.5818877997   -2.2882554945    3.6708260973
 H   -1.1493192298   -2.1033190393    3.3182858691