21

 C   -0.0639681538    1.6011248003    0.0514068417
 C    0.0327092304    0.0951455760    0.0482321368
 C    1.3316162762   -0.6487205128   -0.2230906366
 O    2.5225908817    0.0946741366   -0.1032447809
 C    2.8446336700    0.0631468267    1.2833598517
 C    3.6644761203    1.2686749957    1.6753448688
 O    1.5983218573    0.0473912639    1.9675755979
 C    0.7182802152   -0.7043236601    1.1461731412
 C    0.1056172881   -1.9043483489    1.8115034868
 H    0.8259127817    2.0525139866    0.4900262460
 H   -0.1734816464    1.9853023529   -0.9680508706
 H   -0.9316777730    1.9320188844    0.6315592702
 H   -0.8363868734   -0.4145310723   -0.3654912756
 H    1.3804636032   -1.4885780356   -0.9097720137
 H    3.3861039615   -0.8757705110    1.5017965010
 H    3.1193502181    2.1879215834    1.4493724619
 H    3.8822633831    1.2360917680    2.7458195776
 H    4.6082659679    1.2686617203    1.1242160314
 H   -0.5333122467   -1.6004473846    2.6475293159
 H   -0.5106306248   -2.4647780128    1.1022521809
 H    0.8794246734   -2.5741092064    2.2013036074