17

 C    0.0341105547    1.4901996978    0.0387423896
 C    0.0256725439   -0.0037410779   -0.0531230036
 C    0.0720240204   -1.0760742186    1.0913919433
 C   -0.3962979197   -2.1245921881    0.0081164193
 C    1.0769050549   -2.2104699753   -0.5007213853
 C    1.2670900665   -0.8688931653    0.2060226940
 O    2.4494024796   -0.2085646986    0.4513593379
 C   -0.9597559427   -0.9007469167   -0.7398776936
 O   -1.9444247346   -0.7000094133   -1.3956268627
 H    0.7388831957    1.8305495998    0.8012765828
 H    0.3394222186    1.9330198307   -0.9149533430
 H   -0.9628465322    1.8702988623    0.2804976142
 H   -0.1657427493   -0.9273510232    2.1334573293
 H   -0.9936602566   -3.0138491314    0.1849986467
 H    1.6283505292   -3.0114206361    0.0033277390
 H    1.2386268536   -2.2628562041   -1.5828230504
 H    2.9760511578   -0.7424541821    1.0567160926