21

 C   -0.3272876393    1.4058665663   -0.0499683072
 C    0.0206858121   -0.0796230362   -0.0116317477
 C    1.2079788391   -0.4924489672   -0.9386511051
 C    2.1288147665   -0.4679662801    0.2934248908
 C    0.8879797553   -0.5112688771    1.2125866505
 O    3.0373090227   -1.5740600757    0.3479513674
 C    3.9582580329   -1.5381775539    1.3361671686
 C    4.8579082645   -2.7493844334    1.2698074581
 O    4.0356829850   -0.6505770656    2.1479686448
 H    0.5608701299    2.0326587275    0.0897985656
 H   -0.7781326643    1.6802432021   -1.0099915193
 H   -1.0398574714    1.6631485089    0.7411661909
 H   -0.8874495838   -0.6711276931   -0.1538520628
 H    1.0991251762   -1.5127386439   -1.3151445872
 H    1.4597027045    0.1705376436   -1.7704235059
 H    2.6972048777    0.4566619295    0.4062737687
 H    0.8962435948    0.1384174977    2.0900954618
 H    0.6745130016   -1.5368430980    1.5257535616
 H    5.3798191716   -2.7758903765    0.3088946802
 H    5.5801947558   -2.7104933736    2.0841960638
 H    4.2625377384   -3.6640392613    1.3402360023