16

 C   -0.0383680926    1.4642131276    0.0598942011
 O    0.2818570207    0.0640730750    0.0680049011
 C    0.7812188400   -0.4120154842   -1.0696567224
 O    0.9783914399    0.2301964201   -2.0722690842
 C    1.0944996792   -1.9184501740   -0.9650494181
 O    0.8619818400   -2.5491436288    0.0406555192
 C    1.6963234347   -2.5207320765   -2.1831913761
 C    2.9262830668   -3.3574534051   -1.9556696311
 N    1.6604050092   -3.9883516424   -2.2841623148
 H    0.8570724453    2.0587479220   -0.1374010256
 H   -0.7830676454    1.6800074330   -0.7100926339
 H   -0.4342568072    1.6809109368    1.0510944069
 H    1.5956289162   -1.9639722006   -3.1056454598
 H    3.6808316113   -3.3767592022   -2.7363140252
 H    3.2961697384   -3.4230445013   -0.9361222673
 H    1.2364717836   -4.3365512194   -1.4229984897