20

 C    0.3929185466    0.4870128241    0.6378636921
 N   -0.0496913132   -0.0567147221   -0.6289825990
 C    0.6715141384   -0.9398318984   -1.1570527113
 O    0.3260153795   -1.4730971884   -2.3535928631
 C    1.1581682875   -2.5131707713   -2.8513268076
 C    0.8129127883   -3.8655294081   -2.2558498170
 C    1.7071781050   -5.0539413670   -2.6716149262
 C    2.0082710404   -5.1671336484   -1.1635603738
 O    1.2275263961   -3.9865736155   -0.8732491397
 H    1.3371272608    0.0543507615    1.0075996219
 H    0.5244440797    1.5716568592    0.5475911980
 H   -0.3790613184    0.3236072898    1.3986742222
 H    1.5999368236   -1.3441823350   -0.7314329631
 H    0.9916717002   -2.5385503676   -3.9334556831
 H    2.2179251709   -2.2872630607   -2.6690157723
 H   -0.2661254654   -4.0401114547   -2.3554413859
 H    1.1953943501   -5.9007967138   -3.1291896002
 H    2.5652118767   -4.7768659686   -3.2889026115
 H    1.5949532283   -6.0558765362   -0.6715659082
 H    3.0558661451   -5.0508111286   -0.8636146421