22

 C   -0.0070421396    1.5373876511   -0.0006669518
 C   -0.0079736243   -0.0088224909   -0.0001122381
 C    0.7600756915   -0.5195045031    1.2408702331
 C   -1.4619557384   -0.5054363446    0.0755191661
 C    0.6420097639   -0.5285905406   -1.2629259223
 C    0.1652493171   -1.3230036797   -2.2856086123
 C    1.2129064022   -1.5043162970   -3.2328437314
 C    2.3060880701   -0.8162785335   -2.7676298015
 N    1.9510907196   -0.2304786275   -1.5773502909
 H    1.0095369106    1.9433887955   -0.0411194892
 H   -0.5542287860    1.9268220544   -0.8643035128
 H   -0.4790841667    1.9244641206    0.9091452637
 H    0.2949368726   -0.1510335099    2.1618929104
 H    0.7660322917   -1.6130842798    1.2723840083
 H    1.8020884242   -0.1816835122    1.2416623110
 H   -2.0459791275   -0.1535183265   -0.7801321773
 H   -1.5070722089   -1.5984891283    0.0919529850
 H   -1.9399793861   -0.1333492235    0.9874148631
 H   -0.8302282441   -1.7329743338   -2.3504838526
 H    1.1649499867   -2.0743111568   -4.1479747164
 H    3.2972125027   -0.6919987341   -3.1736146468
 H    2.5613186988    0.3359983503   -1.0151690070