21

 O   -0.1027919928    1.2439681652   -0.7603425205
 C   -0.0856361499   -0.0834705038   -0.2718322382
 C   -1.4419813047   -0.4886764436    0.2409122977
 C   -2.5026547428    0.3158018556    0.1681233958
 C   -3.8721618984   -0.0363077340    0.6816475293
 C   -4.0878357183   -1.5248747457    0.8910579986
 C   -3.7920604874   -2.4917470095   -0.2305197085
 C   -2.8922928984   -2.4415208000    0.9801412649
 C   -1.4930223688   -1.8623626931    0.8675453593
 H    0.7726556585    1.4475365653   -1.0999008766
 H    0.2207587051   -0.7947317224   -1.0605081610
 H    0.6526493558   -0.1982502738    0.5429555486
 H   -2.3777421426    1.2993790561   -0.2722248319
 H   -4.0432856184    0.4899743993    1.6333137558
 H   -4.6335183232    0.3599052154   -0.0050416244
 H   -4.9372586895   -1.7717245421    1.5213828014
 H   -4.4402758512   -3.3522229976   -0.3557065378
 H   -3.4083803158   -2.0785803668   -1.1580874070
 H   -2.9702129747   -3.2794172903    1.6669369689
 H   -0.8476577919   -2.5520542188    0.3021583813
 H   -1.0461350206   -1.8090337256    1.8721834643