16

 C   -0.1679187672    1.3075910665   -0.0252069977
 N    0.0998528083   -0.1251917177    0.1139879113
 C    1.5328981011   -0.4689317632   -0.1327702267
 C    0.9372221489   -0.4663286258    1.2613788459
 C    0.9938556206   -1.9811196780    1.3122243519
 C    1.3777941850   -2.8776023973    2.4081262010
 O    0.0506633471   -2.8587477052    1.8722546600
 C    1.5838577298   -1.9882171543   -0.1161792054
 O    2.0368113668   -2.8338748557   -0.8269997404
 H    0.6534173923    1.9545288387    0.3235405598
 H   -0.3624472493    1.5300619377   -1.0778692229
 H   -1.0674186787    1.5461349794    0.5497474937
 H    2.2027101203    0.2425300925   -0.5969445633
 H    1.1349860067    0.2405659520    2.0572535786
 H    1.9626285895   -3.7669940967    2.1811204893
 H    1.4842505390   -2.4766420829    3.4150372149