22

 C    0.4717409001    1.6380804117   -0.1765475287
 C    0.2774758041    0.1374800142   -0.2513417445
 C    0.7067467513   -0.6977709655   -1.4219171508
 C    1.3734928776   -0.1270476327   -2.6459380215
 C    2.1064244642   -1.1150853867   -3.5888669785
 O    1.3076114623   -0.7053902570   -4.7165483778
 C    0.4713944748    0.1180252515   -3.8810940315
 N    1.3659159181   -0.8325474130   -0.1185914436
 C    2.7393485876   -0.3924862632    0.0751269861
 H    0.5974623212    1.9570290054    0.8640872430
 H    1.3341116505    1.9987308600   -0.7397473936
 H   -0.4154784589    2.1463129209   -0.5692672320
 H   -0.6258919304   -0.1878020641    0.2661529810
 H    0.0854197359   -1.5631459442   -1.6632381214
 H    1.9874704068    0.7426836797   -2.4145874952
 H    3.1755384938   -0.9382821148   -3.7545999008
 H    1.9541206126   -2.1746094217   -3.3405139042
 H   -0.5448901751   -0.2900333016   -3.7875653046
 H    0.4069751936    1.1493514638   -4.2470117003
 H    3.0337641167    0.5267834293   -0.4507254540
 H    2.9057649138   -0.2308733094    1.1451536387
 H    3.4126662895   -1.1933657625   -0.2478835461