17

 N    0.0965964228    1.4425494468   -0.0292835335
 C    0.0913023956   -0.0097845247    0.0103698422
 C    0.7933467013   -0.5031680100    1.2820661209
 C    0.9845345820   -2.0558964432    1.3028078337
 O    2.3422049398   -2.2253040146    0.9406191682
 C    2.9920845764   -1.1133465115    1.4942648785
 O    2.1364736808   -0.0053588126    1.2718252327
 C    0.0963540468   -0.0405457547    2.4978062862
 N   -0.4569987655    0.2597301634    3.4663173460
 H    1.0513115872    1.7768179863   -0.1106481065
 H   -0.4158791297    1.7800786375   -0.8360706482
 H   -0.9463662117   -0.3620137279    0.0262440738
 H    0.6029276267   -0.5078134198   -0.8311948553
 H    0.7803058914   -2.4603853748    2.3022298008
 H    0.3588939852   -2.5642240290    0.5666400764
 H    3.1638475622   -1.2497525014    2.5757681212
 H    3.9363082986   -0.9463039697    0.9711664431