20

 C   -0.0918612832    1.5928213325   -0.0197740783
 C    0.1266727231    0.0863108855    0.0490597565
 N    0.6621068405   -0.4184756954   -1.2295939954
 C    2.0483815548   -0.1010408782   -1.5609818927
 C    1.6566384271   -1.5033883588   -1.2393657367
 C    2.1708468750   -2.1551298633    0.0459361290
 C    1.2973412362   -1.8209595842    1.2740566519
 C    0.9394277929   -0.3466652022    1.2778357538
 O    1.2513279741    0.4135696338    2.1651290502
 H    0.8609489877    2.1229123530   -0.1031956074
 H   -0.7071663687    1.8394738286   -0.8884941537
 H   -0.5874162522    1.9472442561    0.8862513925
 H   -0.8503184428   -0.4088599299    0.1695939939
 H    2.2284195914    0.2161813936   -2.5848632826
 H    2.6571604367    0.4137936382   -0.8172063478
 H    1.5091476499   -2.1901582133   -2.0700267375
 H    2.2091682438   -3.2404240503   -0.0843071382
 H    3.1990757385   -1.8312242958    0.2396539322
 H    0.3624044088   -2.3931191752    1.2159115486
 H    1.8030317762   -2.0763788847    2.2075034717