23

 C   -0.0282197170    1.6189016470    0.1924305737
 C    1.4678401208    1.2346472111    0.0449416949
 C    1.1693826104    0.0514894972    1.0257777246
 C   -0.0079495507    0.0623257068    0.0067973423
 C   -1.1825960155   -0.8378775941   -0.2743528017
 C   -1.7334779733   -0.4802478397   -1.6766461070
 C   -0.6415147443   -0.4258473033   -2.7672686704
 C    0.4722842392    0.6060672951   -2.4673997971
 C    1.0629334279    0.2574239137   -1.1052004298
 H   -0.3407224868    1.9769603231    1.1780189450
 H   -0.4765372675    2.2262327316   -0.5947101797
 H    2.3259911370    1.9078635386    0.0827773820
 H    1.8464358747   -0.8072143307    0.9802379574
 H    0.9384518445    0.3258022088    2.0593193554
 H   -0.8490264680   -1.8847006178   -0.2672504255
 H   -1.9705914845   -0.7486279804    0.4830014927
 H   -2.5030189882   -1.2046015850   -1.9654621583
 H   -2.2338745589    0.4957781100   -1.6244657894
 H   -0.1861086053   -1.4216595797   -2.8651587097
 H   -1.1059023451   -0.2042122062   -3.7348431480
 H    1.2359788753    0.5755911128   -3.2527716460
 H    0.0478052725    1.6154491114   -2.4885809283
 H    1.7416363830   -0.5999821404   -1.2033124769