21

 C    0.6834384529    1.2427839194   -1.0699157021
 C    0.9437935154   -0.2335239193   -0.7829082009
 C   -0.0557392937   -1.1665104305   -1.4466506562
 O   -1.0646289468   -0.7730208018   -1.9851537805
 C    0.2309087347   -2.6721175879   -1.3365250357
 O    1.5808274498   -3.0277189803   -1.5844162130
 C    1.8579248832   -3.2553412714   -2.9366453371
 C    2.2366676493   -2.1185775584   -3.8527241391
 C    3.2792800103   -3.1072365783   -3.3640719996
 H    0.7770265957    1.4568558594   -2.1385186778
 H   -0.3292837279    1.5243862186   -0.7720703594
 H    1.3951605988    1.8739151337   -0.5306342594
 H    1.9542352574   -0.5428769790   -1.0700384674
 H    0.8913949373   -0.4394216410    0.2971019813
 H    0.0160055514   -2.9780670443   -0.3038374216
 H   -0.4631225437   -3.1996628409   -2.0020391294
 H    1.2730371321   -4.0689523184   -3.3663274827
 H    1.9133836467   -2.1640992564   -4.8868173880
 H    2.2730555702   -1.1185531678   -3.4371046462
 H    3.9738919545   -2.7559385323   -2.6095746986
 H    3.6906250924   -3.8298520131   -4.0593864865