15

 C   -0.1077554901    1.4638824892    0.1682273984
 C   -0.0186293703   -0.0229747760    0.0840519841
 N   -0.1448958672   -0.6595894204   -1.0554111044
 O   -0.0080447605   -2.0157678392   -0.7671192871
 C    0.2134915401   -2.1683345080    0.5484554981
 C    0.2093750596   -0.9481870122    1.1469799214
 O    0.4138291976   -0.5844061060    2.4444071316
 C   -0.1636683831   -1.3465181720    3.4176058823
 N    0.1717914989   -1.1673026523    4.6150947175
 H    0.8240703983    1.8867271998    0.5563426315
 H   -0.3032583093    1.8818243618   -0.8205524006
 H   -0.9094758182    1.7670856735    0.8488830295
 H    0.3628268167   -3.1755463464    0.9022094752
 H   -0.9028011336   -2.0508528219    3.0171789380
 H   -0.3649367988   -1.7790179600    5.2264602244