22

 C   -1.0083644178    1.5698736862    2.1218769265
 C   -0.9842501104    0.3309173361    1.2216413834
 C   -0.8535056146    0.7461010025   -0.2322314626
 C   -1.6282167603    0.1310372103   -1.3166500502
 O   -1.9823939660    1.4145092448   -0.7972864060
 N    0.1771513948   -0.4880062491    1.5648199595
 C    0.1234337767   -1.3076201399    2.7694215606
 C    0.1724665385   -1.9469797642    1.4227857553
 C   -0.9983532648   -2.7512483857    0.9011697363
 H   -0.0657235226    2.1195461814    2.0371538484
 H   -1.8301675767    2.2282461547    1.8292039595
 H   -1.1437016261    1.2867180306    3.1698577355
 H   -1.9426565452   -0.2010634743    1.3401308567
 H    0.1099953051    1.1948441829   -0.4792564313
 H   -1.2347408758    0.1298099917   -2.3324420495
 H   -2.3304197968   -0.6704716625   -1.0912639973
 H    0.9967964848   -1.2730885847    3.4161873702
 H   -0.8271811592   -1.3717359618    3.2999133392
 H    1.1372438763   -2.3246783461    1.0854504484
 H   -1.9553333012   -2.4116268510    1.3044970285
 H   -1.0533936946   -2.7132813413   -0.1919460074
 H   -0.8765907640   -3.8012585705    1.1882332165