14

 O   -0.0025344029    0.0180211008    0.0843362054
 C   -0.0376213979    1.2150710666    0.0243295438
 C   -1.2639734533    2.1467014179   -0.0217919952
 C   -0.5338013073    3.4992355265    0.0269599067
 O   -0.0070132806    3.7043433445    1.3356779438
 C    1.1706675619    2.8811323578    1.3922889412
 C    1.1441848393    2.2033965910    0.0026731804
 O    0.6033121949    3.2691535231   -0.7935540403
 H   -1.8119727728    2.0188370126   -0.9604707363
 H   -1.9391673894    1.9640028305    0.8160811311
 H   -1.0772916097    4.3845849568   -0.2987798793
 H    2.0583765556    3.5109947720    1.5128275102
 H    1.1052683343    2.1732791374    2.2246888700
 H    2.0848878178    1.8296341126   -0.3925269817