15

 N   -0.0155851878   -1.1943426779   -0.1140996789
 C   -0.0582495836   -0.0386944424   -0.0229933336
 C   -0.0936801869    1.3646357581    0.0906960162
 C   -1.1545710606    2.2680072541   -0.0477062089
 C   -0.6842252967    3.5911561868    0.1617009549
 C    0.6666645560    3.4532601090    0.4258742519
 C    2.0864606511    3.8876010031    0.7543847519
 C    2.4270798162    2.3469939410    0.6918133189
 N    1.0004050080    2.1452517244    0.3814382401
 H   -2.1684258781    1.9792634361   -0.2795083672
 H   -1.2705473733    4.4946098313    0.1195726959
 H    2.5893893027    4.4937030105   -0.0025385697
 H    2.2328115402    4.3441799579    1.7358858732
 H    3.0983292647    2.0410192652   -0.1137338724
 H    2.7393850281    1.8908174328    1.6338743977