19

 C   -0.0685183448   -1.2170711244   -0.2450276273
 C   -0.0307038018   -0.0245167427   -0.1035687162
 C    0.0193884939    1.4228413936    0.0727652122
 C    1.4257838955    1.9908689770    0.0848558998
 C    1.7102765655    3.5125101260    0.1250159949
 C    2.9599188474    2.9828735550   -0.6093922761
 C    3.7212925620    2.1928461301    0.4755146732
 C    2.4962348101    1.4029598437    1.0351517296
 O    2.1198397353    1.9465494882   -1.2065503458
 H   -0.1040979523   -2.2699242131   -0.3772518347
 H   -0.5470364173    1.9148608196   -0.7267484158
 H   -0.4676253654    1.6975640087    1.0181937287
 H    1.0479416240    4.0676640584   -0.5408428300
 H    1.8235534034    4.0113867584    1.0915492777
 H    3.5217234716    3.5707363115   -1.3346315187
 H    4.4772832297    1.5404104650    0.0342765745
 H    4.2033795158    2.8382655714    1.2148936828
 H    2.2852937196    1.6099753842    2.0880430312
 H    2.5835075079    0.3241678493    0.8998557299