27

 C   -0.0530422014    1.5621635178   -0.0605197692
 C    0.0226261630    0.0263544072   -0.0347023811
 C    0.6863372548   -0.4667412284   -1.3314089608
 C    0.7317529899   -0.5111949543    1.2359857501
 C    0.0671840008   -0.0122483950    2.5356586323
 C    0.7472654863   -0.5566014635    3.8009013179
 C    0.8095008766   -2.0878312590    3.7986951068
 C    1.4900708864   -2.5965782016    2.5233348209
 C    0.8097928408   -2.0517033568    1.2584232791
 H    0.9491734473    2.0051221479   -0.0052599119
 H   -0.5130248303    1.9076666914   -0.9922383340
 H   -0.6436948681    1.9679916586    0.7642504164
 H   -1.0085771723   -0.3587283063   -0.0198600412
 H    1.7421812705   -0.1709063371   -1.3685134049
 H    0.6395661341   -1.5528345672   -1.4410672791
 H    0.1925368856   -0.0289687967   -2.2052355153
 H    1.7647711668   -0.1252114303    1.2202907400
 H    0.0696864280    1.0810977329    2.5707038221
 H   -0.9892061734   -0.3205593752    2.5328201388
 H    1.7688289747   -0.1553359765    3.8615470007
 H    0.2201551594   -0.1945698074    4.6912615562
 H    1.3381462590   -2.4517774934    4.6872036025
 H   -0.2104905357   -2.4936876878    3.8537047489
 H    2.5437643380   -2.2835536617    2.5287210547
 H    1.4938426228   -3.6925356828    2.5006027497
 H   -0.2109912944   -2.4578040435    1.1943575624
 H    1.3445015908   -2.4200562915    0.3780590282