15

 N    0.0094349534    1.2539158510   -0.0234527047
 C    0.0109814399   -0.0901633981   -0.0350155935
 O    0.9973499751   -0.8079516460   -0.0718073573
 C   -1.3930788183   -0.6967617931    0.0033842732
 N   -2.4105019980    0.0803560415    0.0419095984
 N   -1.3281234050   -2.0524606459   -0.0105548453
 C   -2.5017136061   -2.8885028914    0.0190705013
 C   -2.1427677104   -4.3059875134   -0.0042224395
 N   -1.8667630208   -5.4266578358   -0.0224085756
 H    0.8802614096    1.7555989564   -0.0462775964
 H   -0.8788055883    1.7306075774    0.0081792263
 H   -3.3017781233   -0.4136066983    0.0653328662
 H   -0.3956110570   -2.4436395840   -0.0427982225
 H   -3.1016441687   -2.6986483147    0.9223293495
 H   -3.1568644920   -2.6836329156   -0.8415305800