21

 C    0.0062675797    1.5505495583    0.0270460636
 C   -0.0610196043    0.0171786803   -0.0205885025
 C   -1.5357310841   -0.4242002100   -0.0842386020
 C    0.7389059773   -0.5087932907   -1.2264923479
 C    0.7694732321   -2.0295441710   -1.2630214004
 O    1.1353883439   -2.6490770190   -0.0182742211
 C    0.9166614680   -2.0677602063    1.1872078525
 O    1.0431975868   -2.7302088099    2.1811306366
 C    0.6158995925   -0.5748006943    1.2294932431
 H    1.0432956851    1.9031323977    0.0395905577
 H   -0.4879039441    1.9916860485   -0.8455345387
 H   -0.4902996406    1.9379439414    0.9232995333
 H   -2.0086795682   -0.0824953895   -1.0113182484
 H   -1.6500457697   -1.5112972764   -0.0292456421
 H   -2.0975202116    0.0018048855    0.7533861457
 H    0.3106700373   -0.1496351434   -2.1698391332
 H    1.7637954315   -0.1209632207   -1.1716243558
 H   -0.2083394918   -2.4313233644   -1.5538358536
 H    1.5011757696   -2.3902132262   -1.9910134998
 H    1.5868267644   -0.0847956835    1.3847035074
 H    0.0331017765   -0.3965197863    2.1369659756