21

 C   -0.0514983435    1.2511423721   -0.4121899469
 O   -0.0944915514   -0.1584470511   -0.2914377370
 C   -1.3424535528   -0.6468979733    0.1406395112
 O   -2.3636764406   -0.4616441642   -0.8179272332
 C   -2.7218197900   -1.7194292524   -1.4120062267
 C   -2.3438064885   -1.7495184575   -2.8940989798
 C   -2.0031995978   -2.7370224116   -0.5689971761
 C   -1.2233411429   -2.1420236270    0.3281563485
 C   -0.2953889626   -2.7268154107    1.3397791808
 H    0.9674992882    1.5185054858   -0.7010585999
 H   -0.7517719672    1.6096257831   -1.1760718829
 H   -0.2921731924    1.7429363962    0.5431910606
 H   -1.6384538445   -0.0962966407    1.0512254265
 H   -3.8133397509   -1.8207117931   -1.3182635742
 H   -1.2618894902   -1.6403761791   -3.0084345851
 H   -2.6543218816   -2.6943287640   -3.3531931443
 H   -2.8383661682   -0.9314636071   -3.4256433155
 H   -2.1108775524   -3.8043416198   -0.7212965647
 H   -0.2860595120   -3.8187039873    1.2956165111
 H    0.7233150721   -2.3594330316    1.1749801291
 H   -0.5787000109   -2.4283932366    2.3571532886