17

 O   -1.1898705543    0.3593875243   -0.2170434782
 C    0.0520775089   -0.2714118431   -0.0713915364
 C    1.1363130172    0.5178189203   -0.7748269570
 O    0.8759235240    1.5119994409   -1.4113990861
 C    0.3680310377   -0.4648564731    1.4316586626
 O    1.5478969540   -1.2565500131    1.5663812582
 C    2.4716704085   -0.6190558203    2.4522911041
 C    1.8549942686    0.7167789352    2.7600831447
 C    0.6617055865    0.8047532298    2.1837217627
 H   -1.0249471562    1.1184675191   -0.7999061483
 H    0.0479595528   -1.2781354667   -0.5267608997
 H    2.1672301957    0.1292209017   -0.6843679329
 H   -0.4973833515   -0.9945167068    1.8605121347
 H    2.6123839423   -1.2326709741    3.3562471966
 H    3.4522700627   -0.5374975321    1.9603143077
 H    2.3396625502    1.4643848267    3.3749088356
 H   -0.0358937971    1.6297153315    2.2253541115