20

 C   -0.0312142074    1.3732213976    0.0157291984
 O    0.0977735723   -0.0310755382   -0.0478359928
 C    0.6947124868   -0.5556935196   -1.2279935860
 C    2.1090007260   -0.0252532454   -1.4333923817
 C    0.4549521334   -2.0669735948   -1.1638776776
 C   -0.8602062379   -1.9416081228   -1.8221157815
 C   -0.3363224043   -0.5756341001   -2.4110542873
 C    0.3458352424   -1.4484121138   -3.4712082476
 N    0.2475447337   -2.6296566257   -2.5444007086
 H    0.9385606966    1.8825555835    0.1019230201
 H   -0.5624943995    1.7863472093   -0.8539292450
 H   -0.6154578709    1.5912986282    0.9132845829
 H    2.6620999619   -0.0903742305   -0.4908362858
 H    2.6490709817   -0.6112909702   -2.1793977242
 H    2.1140735300    1.0195186223   -1.7606438412
 H    0.7849886780   -2.7578283886   -0.3992080556
 H   -1.8326351984   -2.3718839570   -1.6282122398
 H   -0.9105557433    0.3160830831   -2.6558547058
 H   -0.2910123563   -1.6493326889   -4.3369346155
 H    1.3525858852   -1.1879047983   -3.8150027952