20

 C    0.1272081316    1.4779234049    0.2537121710
 C   -0.0686581451   -0.0134967294   -0.0064027654
 O   -1.4379205003   -0.3072340754   -0.3321438611
 C    0.7095606286   -0.5151061249   -1.2221822082
 O    0.2178822652    0.0866559303   -2.4020666831
 C    2.2728909470   -0.4319295345   -1.2154502216
 C    2.3202347896   -1.9543271982   -1.3808586734
 N    1.6266551828   -2.5140659931   -0.1931553762
 C    0.8392989343   -2.0515981991   -1.3628450373
 H    1.1599370509    1.6931900758    0.5437240053
 H   -0.1089875239    2.0552354862   -0.6440180153
 H   -0.5194444643    1.8162032986    1.0720598033
 H    0.2450142453   -0.6004012646    0.8656794289
 H   -2.0026158691    0.1272711015    0.3135580369
 H   -0.7451675735    0.0571434518   -2.3156231556
 H    2.6073943623    0.1162816141   -2.0975323285
 H    2.7553891103   -0.0413230735   -0.3161455432
 H    3.0530310635   -2.5406067331   -1.9207100359
 H    1.6834978389   -3.5303019596   -0.2569172820
 H    0.1656451661   -2.7120165377   -1.8945477884