22

 C    0.1571279547    1.4384163141    0.1779229260
 C   -0.1582426022   -0.0190366225   -0.1663216769
 C    0.7840621422   -0.5870113699   -1.2186659466
 O    0.4180464208   -1.9281377194   -1.4775880501
 C    1.1975014068   -2.5454166804   -2.4562429495
 C    2.6696748444   -3.0186974470   -2.1203722056
 C    2.2391336223   -4.4262184787   -2.5429156932
 N    1.1787154430   -4.8141050522   -1.5866817240
 C    0.8302535806   -3.9900695311   -2.7708791767
 H    1.1739457593    1.5456436168    0.5718709699
 H    0.0741771442    2.0848453538   -0.7030287307
 H   -0.5328378542    1.8215017831    0.9353002150
 H   -0.0935549131   -0.6456741467    0.7303008819
 H   -1.1859668265   -0.1096995814   -0.5362960556
 H    0.7281081072    0.0099445856   -2.1466844870
 H    1.8275909290   -0.5328471015   -0.8654784199
 H    1.2083831878   -1.9460969080   -3.3806346344
 H    3.4237850274   -2.5562681248   -2.7600616954
 H    2.9583297183   -2.9382936039   -1.0700966029
 H    2.8199248323   -5.1704544768   -3.0726035673
 H    0.9004734180   -5.7686940495   -1.8148970849
 H    0.0917426477   -4.3344910196   -3.4844299422