18

 O    0.1163738662    1.1748986771   -0.6270058907
 C    0.0133476225   -0.2131215262   -0.4062241136
 C   -1.3139823858   -0.5443890635    0.2853569095
 N   -2.4345017399    0.0023653793   -0.5292730740
 C   -2.8657557831   -1.0349802228   -1.4824301925
 C   -2.2183683869   -2.3302813886   -0.9987007283
 O   -2.1059202389   -3.3772191597   -1.5841682018
 C   -1.5969580963   -2.0542055440    0.3690778298
 O   -0.4966980258   -2.8790088450    0.6235997999
 H   -0.7561644274    1.4405689992   -0.9513923400
 H    0.0946158316   -0.7821545688   -1.3498551518
 H    0.8503695145   -0.5229315147    0.2239668166
 H   -1.3271911590   -0.0560874817    1.2624272118
 H   -3.2018907264    0.2727699924    0.0717401511
 H   -3.9552031697   -1.1327918062   -1.5268990959
 H   -2.5228706207   -0.8277235927   -2.5033625289
 H   -2.3980239049   -2.2116382773    1.1168231365
 H   -0.5792456802   -3.6291300667    0.0147172825