17

 O    0.1564272519    1.4933565522    0.0691567401
 C    0.0294454794    0.0845051724    0.0228558094
 C    0.6128159330   -0.4650723123   -1.2186051120
 N    1.0956723926   -0.9097645521   -2.1696059575
 C    0.7129505767   -0.5292288285    1.2639528024
 N    1.9532592545    0.2065212166    1.5945663471
 C    1.5213868388    0.4239112018    3.0010576529
 C    0.0972198573   -0.0920026559    2.6387309375
 O   -0.9509673231    0.8318228353    2.6007219893
 H    1.0736268659    1.6260610094    0.3798380793
 H   -1.0392484909   -0.1521939667    0.0430175312
 H    0.8188826819   -1.6131617750    1.1493669036
 H    2.8233736051   -0.2925040232    1.4566786645
 H    2.0386529109   -0.2025073363    3.7368836681
 H    1.5722385706    1.4690032010    3.3230899400
 H   -0.2469180988   -0.9240617932    3.2555166045
 H   -0.7440330357    1.4869550545    1.9169805397