15

 O   -0.0010258950    0.0287738079    0.0239949706
 C   -0.0408768724    1.2194263738    0.0526632953
 C   -1.1424838787    2.2856212504    0.0297069397
 C   -1.5105434582    2.6377136032    1.4854714552
 C   -0.1465066930    3.0135851227    2.1213674474
 C    0.7565234809    3.2983722860    0.9244962676
 C    0.0176586903    3.2420998774   -0.3363869921
 N    1.0658953794    2.1578527395   -0.0279186878
 H   -1.9770436792    2.1341898243   -0.6529767708
 H   -2.1965814417    3.4906204367    1.4968665889
 H   -2.0002646832    1.8028830501    1.9930418038
 H   -0.2194573793    3.8997011781    2.7582483156
 H    0.2615186039    2.2047856529    2.7357895670
 H    1.6216647468    3.9415663537    1.0416762667
 H    0.1226338295    3.8685974732   -1.2112276170