23

 C   -0.5024409688    1.4619064253   -0.1855085827
 C   -0.2885738603   -0.0530949968   -0.2329757655
 C   -1.4908298367   -0.8484049727    0.2846589806
 O   -2.6792919270   -0.5455118919   -0.4552025284
 C   -1.2239075377   -2.3553038611    0.3019889937
 O   -2.2772177539   -3.0183898149    0.9628620728
 C   -2.8824919218   -4.1338935478    0.3234432911
 C   -4.3530424847   -3.8230500080    0.0675285658
 O   -4.5177881851   -2.7409945945   -0.8207851020
 H    0.3543839412    1.9946047259   -0.6079375088
 H   -1.3962806933    1.7456880193   -0.7469309649
 H   -0.6366838638    1.8058070941    0.8456758754
 H   -0.0733215008   -0.3693662281   -1.2647194867
 H    0.5939328676   -0.3273503091    0.3580006353
 H   -1.7259601941   -0.5371028488    1.3092485406
 H   -2.5108241722   -0.7492090809   -1.3836716647
 H   -1.1125830976   -2.7176514870   -0.7318473128
 H   -0.2720672620   -2.5498428039    0.8208622546
 H   -2.3814018850   -4.3523489976   -0.6292726893
 H   -2.7837541523   -5.0162568376    0.9721470457
 H   -4.8348857584   -4.6971749796   -0.3871636683
 H   -4.8483163233   -3.6370323580    1.0343228122
 H   -4.0707964701   -1.9739373665   -0.4287028737