17

 C   -0.1187746705    1.5239676014    0.0806284705
 C    0.0100366325    0.0263874972    0.0057455903
 C   -0.8124639729   -0.9030469098    0.8488896619
 N    0.6079553638   -0.7410946397    1.1229093958
 C    1.4338918502   -1.8338154101    0.5399468266
 C    1.1171712007   -1.9400667182   -0.9635088530
 C    0.4483396508   -0.5960643766   -1.2916794190
 O    0.3448618778   -0.0920127616   -2.3813121649
 H    0.8417979721    2.0086735623   -0.1192277075
 H   -0.8311251522    1.8737875973   -0.6721205201
 H   -0.4628154081    1.8358532999    1.0694499273
 H   -1.4784514908   -0.4616022126    1.5851791414
 H   -1.1696735325   -1.8362897586    0.4181911075
 H    2.4815220529   -1.5589040231    0.6935728962
 H    1.2483715208   -2.7583631945    1.0935097542
 H    2.0032254012   -2.0713537747   -1.5870713181
 H    0.4299790044   -2.7559897885   -1.2128814492