17

 C   -0.0393226094    1.3863683842   -0.0293970192
 N   -0.0035874604   -0.0674344041   -0.0188436598
 C    0.5820079066   -0.6192949936    0.9626612685
 C    1.2958082708   -0.0833011875    2.2024053851
 N    1.7576262844   -1.2587226166    2.9527260282
 C    1.3764551825   -2.2670800285    2.2640987380
 N    0.6883359198   -2.0019443861    1.0937736055
 C    0.1511979713   -2.9482116358    0.1440454251
 H    0.9676546486    1.8291621152   -0.0653037073
 H   -0.5832233958    1.7291242099   -0.9131430824
 H   -0.5454312723    1.8008913590    0.8557747239
 H    2.1420962262    0.5603639378    1.9301739145
 H    0.6249247134    0.5305795033    2.8169613094
 H    1.5601447595   -3.3004008851    2.5424576004
 H    0.3803425179   -3.9618100028    0.4797084520
 H   -0.9336416862   -2.8322601749    0.0552453303
 H    0.5866013330   -2.7871912044   -0.8471137920