18

 C   -0.1920142186    1.5538391179   -0.2631680588
 C    0.1702420413    0.0646353551   -0.0149224955
 C   -1.0581931663   -0.5664564869    0.6025487276
 O   -1.8491469111   -1.2887960798    0.0439931128
 C    0.7245648748   -0.6043420186   -1.2655494181
 C    0.5617402839   -2.0707668142   -1.5571050473
 N   -0.1299315422   -1.0842980883   -2.3791900158
 C    2.0207334269   -0.0444113996   -1.7602040439
 O    2.7278542621    0.7101612430   -1.1383382373
 H    0.7043890245    2.1064178923   -0.5456914284
 H   -0.9354163964    1.6420474868   -1.0609387530
 H   -0.6054335263    2.0115116320    0.6412623347
 H    0.9596766431    0.0539910306    0.7476963617
 H   -1.2328266373   -0.2540612088    1.6567586598
 H    1.3687132583   -2.6062164648   -2.0508586230
 H   -0.0153926735   -2.6535238080   -0.8483420874
 H   -1.0979646711   -1.0464241160   -2.0645396808
 H    2.2928767580   -0.4124009628   -2.7735030872