17

 C   -0.0963394512    1.5592597652    0.0122326367
 C    0.0292001720    0.0631915572   -0.0228772473
 C    0.7421133323   -0.7793239851   -1.1089479114
 N    1.6143666055   -1.3072660360   -0.0629435186
 C    0.9723362652   -0.6595695428    0.9847965603
 O    1.1184844810   -0.7024695701    2.1755027966
 C   -0.6118395736   -1.4818062876   -1.3524505768
 C   -1.1830525843   -2.0794171743   -0.1330595031
 N   -1.3156788083   -0.6214997149   -0.3127212424
 H    0.8881988311    2.0368992112    0.0137139508
 H   -0.6679405430    1.9188417956   -0.8479889943
 H   -0.6253627181    1.8603887958    0.9221579284
 H    1.2403097774   -0.3460816988   -1.9753963552
 H    2.1936288669   -2.1361626825   -0.0389060976
 H   -1.0459470967   -1.6232503958   -2.3369446132
 H   -2.1371236370   -2.5875144744   -0.2368158273
 H   -0.5447631092   -2.4820508828    0.6475704244