19

 C   -0.0559678942    1.2906630815    0.0119229194
 O    0.0586075832   -0.1257456287   -0.0716768181
 C    0.5865906865   -0.7328980555    1.0068306076
 N    0.7451625649   -1.9804544356    1.0304944433
 C    1.3312067580   -2.5848756691    2.2223143502
 C    0.2740981186   -3.4267225288    2.9456543581
 C    2.5111793933   -3.4491444287    1.7399109682
 O    2.0996187233   -4.3993719818    0.7804680606
 H    0.9267838478    1.7674969963    0.1089172557
 H   -0.5200273310    1.6158572715   -0.9196483021
 H   -0.6904768558    1.5930610100    0.8536643933
 H    0.8505867047   -0.0538769279    1.8328016216
 H    1.7248637178   -1.8196311341    2.9145968289
 H   -0.0682163585   -4.2349912113    2.2956369673
 H    0.6955032343   -3.8680780049    3.8546351855
 H   -0.5870825764   -2.8134383994    3.2256424850
 H    3.2948193943   -2.7855279671    1.3383195252
 H    2.9409826642   -4.0027151581    2.5822503805
 H    1.5476031350   -3.9064025385    0.1580656699