19

 C   -0.3626701580    1.4770641568   -0.0080224937
 C    0.1168816480    0.0177291545    0.0764745867
 C    0.7832558930   -0.4592310307   -1.1825909728
 C    2.1197389866   -0.6661633236   -1.3808280469
 C    3.3190894753   -0.5551171640   -0.4948354564
 O    3.1764898452   -1.2539531190    0.7387611357
 O    2.3490079673   -1.0855993353   -2.6641090057
 C    1.1455512978   -1.1351387776   -3.2885546384
 C    0.1538598598   -0.7679489872   -2.4377159802
 H    0.4771411948    2.1557863899   -0.1869878930
 H   -1.0773841694    1.6133161530   -0.8260894385
 H   -0.8529260271    1.7804629287    0.9224141352
 H    0.8140815114   -0.0989252794    0.9112147832
 H   -0.7431710866   -0.6271611460    0.2978339704
 H    4.1961450579   -0.8974962762   -1.0631570223
 H    3.5048878072    0.4853673965   -0.2064832347
 H    2.8990505981   -2.1520506849    0.5282534640
 H    1.1646698149   -1.4498060369   -4.3191355850
 H   -0.9010655463   -0.7243096488   -2.6632887574