17

 C    0.0894791710    1.4770055508   -0.0625456288
 C    0.0748248036   -0.0246548657   -0.0183277050
 O    1.0808644410   -0.7044766158   -0.0308520434
 C   -1.2735407756   -0.7658690900    0.0229315433
 O   -1.0608101161   -2.1283363098   -0.2235009929
 C   -1.9559938922   -0.6109139122    1.4202770270
 O   -2.2685452484    0.7160115053    1.7286473275
 C   -3.2209506122   -1.4546213718    1.4450603760
 O   -4.2866418453   -0.9476718373    1.7071757315
 H    1.1134946863    1.8428539209    0.0191915768
 H   -0.3418112506    1.8110671376   -1.0140731751
 H   -0.5452755791    1.8823565868    0.7292543021
 H   -1.9458242069   -0.3329637551   -0.7320890441
 H   -0.0924185491   -2.2324680186   -0.2021015000
 H   -1.2592513874   -1.0406472562    2.1603306244
 H   -3.2321349788    0.7279579163    1.8642330774
 H   -3.1099593602   -2.5247719050    1.2073080337