16

 O    0.0243141867    1.3822136116    0.1102500191
 C   -0.0462736075   -0.0251373279    0.0402862186
 C   -1.4611420214   -0.5552706458   -0.2298647524
 C   -1.1483549876   -2.0163792788   -0.6661912521
 C   -0.5115186737   -1.3212878168   -1.9160861101
 C   -1.6514940124   -0.2485700228   -1.7432149937
 C    0.6153112567   -0.5553159113   -1.2605080962
 O    1.7224628727   -0.2870930303   -1.6495934947
 H    0.9134434944    1.6291219455   -0.1744256249
 H    0.4000637557   -0.4928124786    0.9321340552
 H   -2.2268150320   -0.3240545442    0.5086385905
 H   -0.5026979399   -2.6282571182   -0.0291636290
 H   -2.0497873865   -2.5717353428   -0.9316850072
 H   -0.3040231352   -1.8282650452   -2.8556879631
 H   -2.6018878470   -0.6179785695   -2.1332168755
 H   -1.4618455129    0.7702659151   -2.0854187146