20

 C    0.1883827747    1.4190529485    0.2959206183
 C    0.2321850696   -0.1008926913    0.1168452293
 C    0.5832301480   -0.5205022292   -1.3185975337
 N    1.9219987061   -0.1200358048   -1.7350789681
 C    2.8784759242   -1.1002782359   -1.6842327327
 O    4.0590937052   -0.9563624099   -1.9089975017
 C    2.1485018246   -2.3887133162   -1.2901841028
 C    0.6665474027   -2.0587773628   -1.5284123514
 O   -0.2520608272   -2.7101465104   -0.6744960917
 H    1.1632525573    1.8780477186    0.0982172257
 H   -0.5420957366    1.8789897778   -0.3798776374
 H   -0.0940567236    1.6851997867    1.3185680947
 H    0.9595022491   -0.5378878386    0.8110533253
 H   -0.7385405410   -0.5384638860    0.3671943558
 H   -0.1613230574   -0.0889454583   -1.9991031077
 H    2.1908530105    0.8382458897   -1.8929563210
 H    2.5241942401   -3.2380140376   -1.8641105764
 H    2.3297692913   -2.5875540050   -0.2277896745
 H    0.4236415226   -2.2641362835   -2.5815242359
 H   -0.2019798101   -3.6553301319   -0.8457792941