14

 N   -0.0132264818   -1.1626372389   -0.0610417542
 C   -0.0308506984   -0.0099279986    0.0098409765
 C   -0.0168158626    1.4466269533    0.1001487558
 C    1.4108355574    2.0017083492   -0.0839584441
 N    1.4209270819    3.4491896955    0.0187536028
 C    1.9670605416    4.2710819367    0.9348809274
 N    1.6977531309    5.5153300370    0.6100838218
 N    0.9657983076    5.4429842113   -0.5337811845
 N    0.7926505663    4.2174871611   -0.8992888290
 H   -0.6706637811    1.8702578876   -0.6681324810
 H   -0.4156143854    1.7527430790    1.0730920921
 H    2.0817175463    1.6061710259    0.6809846355
 H    1.8021172359    1.7167242473   -1.0630965460
 H    2.5358329815    3.9365635336    1.7872579070