17

 O    0.1404450979    1.3645446281   -0.1112467079
 C    0.0175403733   -0.0375901844    0.0414404357
 C   -1.4016539145   -0.5171579256    0.0896947754
 C   -2.5077805642    0.2335157388    0.1477524356
 C   -3.7810347577   -0.5789871520    0.1541688691
 C   -3.2440162893   -1.9676136904   -0.1863046860
 O   -3.8164367795   -2.8792223143   -0.7254966666
 C   -1.7366124513   -1.9913109780    0.1194961668
 O   -1.0257475635   -2.7806577861   -0.8053503949
 H   -0.1996668410    1.5913286482   -0.9831187932
 H    0.5512145818   -0.5890150424   -0.7478625288
 H    0.5258188973   -0.2855539311    0.9829493911
 H   -2.5001068904    1.3154405473    0.1993119766
 H   -4.2747726506   -0.5961640277    1.1365939093
 H   -4.5377153895   -0.2611484392   -0.5712076120
 H   -1.5965551150   -2.3878437398    1.1442150778
 H   -1.6677927438   -3.4136732714   -1.1584312478