22

 C    0.0899930003    1.6159837748   -0.0238108314
 C    0.0086664203    0.0868377700   -0.0173003870
 C    0.6134735494   -0.5246576388    1.2523856595
 C    0.6937982381   -2.0589270682    1.2575364132
 C   -0.6855610110   -2.7269802561    1.1258930983
 O    1.5250827352   -2.4324840038    0.1585067785
 C    1.3832279673   -2.5268035034    2.5494088896
 O    1.6207226129   -3.9275684403    2.4139529760
 H    1.1293730465    1.9579592819    0.0354313792
 H   -0.3455070834    2.0336535191   -0.9370482124
 H   -0.4475825676    2.0484086224    0.8281193978
 H   -1.0395939089   -0.2178933435   -0.1170548902
 H    0.5355542179   -0.3196858101   -0.8866026890
 H    1.6336199736   -0.1388962813    1.3758244704
 H    0.0421511355   -0.1961017683    2.1310459287
 H   -1.1142026739   -2.5212739062    0.1430812873
 H   -0.5896254844   -3.8099866064    1.2397062490
 H   -1.3786355970   -2.3643553502    1.8930776954
 H    1.7959765927   -3.3420210233    0.3372797206
 H    2.3304322815   -1.9824039134    2.6646292885
 H    0.7495202171   -2.3165878108    3.4238252990
 H    2.2635823279   -4.1963809841    3.0751498289