15

 N   -0.0627148468    1.3852738575   -0.2571932142
 C    0.0220161390    0.0220617043   -0.0569110206
 N   -1.0145756475   -0.7744146509   -0.0223542793
 O   -0.4949964111   -2.0455045363    0.1038616019
 N    0.8654987281   -2.0168091999    0.1587491386
 C    1.2169522523   -0.7641525405    0.0640603883
 C    2.6211628662   -0.3140071549    0.0820886000
 C    3.4773548894   -0.6104162414    1.2740851111
 N    3.7049907485   -1.3003190408    0.0040480602
 H    0.5929001654    1.9305199597    0.2843277839
 H   -1.0052557354    1.7421430046   -0.1750044865
 H    2.8041725518    0.6001916162   -0.4780804454
 H    4.2523400119    0.0938207757    1.5639047490
 H    3.0111407109   -1.1540901698    2.0909840450
 H    3.3005986674   -2.2342393535    0.0366873882