17

 O   -0.4425174804    1.6330122964    0.6283080952
 C   -0.4214298282    0.5691605045   -0.2458396493
 C   -0.0870106203   -0.8082096162    0.1767135786
 C   -1.5438803160   -0.5116931833   -0.2112265921
 C   -2.5177139021   -0.3734854456    0.8785941271
 O   -2.2187271954    0.0515599074    1.9892107655
 C   -3.9547982498   -0.7152735967    0.6026013267
 C   -4.6548963825   -0.1371741203   -0.5635060642
 O   -4.2582670213   -1.5008322610   -0.5508406331
 H   -0.8593245254    1.3212583669    1.4503652082
 H   -0.1317496840    0.8914229449   -1.2407033764
 H    0.4654287185   -1.4563642748   -0.4942208182
 H    0.0838467798   -0.9715269899    1.2359622011
 H   -1.9130239639   -0.9134935955   -1.1456525635
 H   -4.5320442896   -0.9382117382    1.4977859561
 H   -5.7251471949    0.0467734744   -0.4899639995
 H   -4.1098912345    0.5064791570   -1.2516724822