18

 C    0.0638566260    1.5209862606   -0.1244207942
 N   -0.0116279642    0.0631237504   -0.0769547681
 C   -1.1718724290   -0.5178914946    0.7351656072
 C   -0.3714433184   -1.8057560469    1.0334543560
 C   -0.3072194448   -1.6865609437    2.5558528807
 O    1.1039177139   -1.7857367797    2.9175407920
 C    1.8168114324   -1.0256667724    1.9073950151
 C    0.6010140436   -0.5878851229    1.1171080033
 C   -0.5475147301   -0.2339306172    2.1390838378
 H    1.0593283131    1.8196628550   -0.4685193731
 H   -0.6639282985    1.8878633733   -0.8551216641
 H   -0.1321431582    2.0199113900    0.8390304401
 H   -2.2020143497   -0.4074681621    0.3972203714
 H   -0.2203975378   -2.6600157401    0.3765717021
 H   -0.8833399294   -2.2607955679    3.2783018800
 H    2.3766842962   -0.2112078612    2.3790526424
 H    2.5037628875   -1.6780088573    1.3574795589
 H   -0.6128788227    0.6556107267    2.7621236525