20

 C    0.0146757344    1.5608078109    0.0229959302
 C    0.1005579158    0.0500891548    0.0866299306
 C    1.3269011167   -0.7802857265   -0.2014534594
 C    2.5963210128   -0.0857410101    0.3339887835
 C    1.9515993819   -0.0879220297    1.7687155137
 C    0.6960475322   -0.7716881442    1.2014048248
 C   -0.0597435844   -1.8451345754    1.9314423374
 C    3.8033449231   -0.8900737286    0.2320211453
 N    4.7588430457   -1.5362611874    0.1492002032
 H    0.8962273618    2.0566608310    0.4381130205
 H   -0.0960022901    1.9004822348   -1.0124115374
 H   -0.8536794898    1.9211160868    0.5849141596
 H   -0.7865608041   -0.4354360753   -0.3183909016
 H    1.3405267254   -1.5631653431   -0.9502420995
 H    2.8027817950    0.9016361489   -0.0918107604
 H    2.5041777745   -0.7363057815    2.4506602084
 H    1.8254658207    0.8917292855    2.2387321595
 H   -0.6184943193   -1.4299410335    2.7791773485
 H   -0.7814676153   -2.3376749457    1.2718119300
 H    0.6156451830   -2.6136358417    2.3239650630