19

 O    0.0015522782    0.1238654794    0.6022312938
 C    0.0209322595    1.2147636126    0.0901573645
 O   -1.1492221238    1.7392424192   -0.3492019630
 C   -1.2265596813    2.9866519176   -1.0587024866
 C   -0.1506230024    3.9798215279   -0.6513484580
 C    1.2135156730    3.3185305122   -0.8423277063
 C    1.2725366574    2.0391267008   -0.0253647312
 C    2.1266309189    2.0020929757    1.2426306891
 C    2.5650873505    1.2495087621    0.0295306707
 H   -1.1578334959    2.7721814375   -2.1337235360
 H   -2.2316874411    3.3658132204   -0.8567298593
 H   -0.2496774282    4.8826683880   -1.2630821539
 H   -0.2905627187    4.2724456625    0.3959666280
 H    1.3561133646    3.0925291932   -1.9080504635
 H    2.0297288953    3.9884236647   -0.5530957065
 H    2.6425355819    2.9197137219    1.5048521488
 H    1.7372014719    1.4286433442    2.0747072596
 H    2.4688135936    0.1710744086    0.0476773594
 H    3.3931683465    1.6406235612   -0.5522445296