21

 C   -0.0324527549    1.5977635082    0.2320106986
 C    1.5252967459    1.6304745928    0.2156022988
 C    1.5574019881    0.0959112711   -0.0564337308
 C   -0.0058317037    0.0630395187   -0.0397710540
 C   -0.3039644331   -0.5546837686   -1.4308138139
 C   -0.0387793913    0.4182085636   -2.5991250568
 C    1.5205364699    0.4511919693   -2.6157490347
 C    1.8514831395   -0.5091928164   -1.4538632247
 O    0.7925355202   -1.4810531828   -1.5598316944
 H   -0.4660759047    1.8547702312    1.2010917437
 H   -0.5280859736    2.2120488449   -0.5228260802
 H    1.9787554631    2.2648281976   -0.5490856487
 H    1.9680162717    1.9056952517    1.1755271533
 H    2.0589005869   -0.4894673417    0.7164531438
 H   -0.4656869466   -0.5424279858    0.7434685560
 H   -1.2438848903   -1.1037182585   -1.4963863763
 H   -0.4340642136   -0.0039061586   -3.5258791229
 H   -0.4930234494    1.4015330069   -2.4655348284
 H    1.9134815946    0.0458704849   -3.5509556806
 H    1.9355210448    1.4528967315   -2.4913115983
 H    2.8121085763   -1.0181103100   -1.5398357796