19

 O   -0.1933367882    1.3255813563   -0.1631317550
 C   -0.0257551256   -0.0592170683    0.0448604020
 C   -0.5463009697   -0.6287299719    1.3507184075
 C   -1.3306863509   -0.8100839781    0.0605988214
 O   -2.4988301505   -0.0649890830   -0.1058579312
 C   -1.4176638512   -2.1799086842   -0.5792699949
 C   -0.0741973013   -2.8108336186   -0.8246582721
 C    1.0789888031   -2.1427915480   -0.8426971357
 C    1.1983023108   -0.6586510446   -0.6182269139
 H    0.2834141741    1.7994915994    0.5262105655
 H   -0.0283917818   -1.4790620743    1.7826671076
 H   -0.9663993207    0.0758634616    2.0612656938
 H   -2.2132366306    0.8544262608   -0.2035245259
 H   -2.0426562113   -2.8398831945    0.0369674954
 H   -1.9548047557   -2.0674889792   -1.5312170037
 H   -0.0723336179   -3.8807720601   -1.0169160395
 H    2.0037302566   -2.6754705994   -1.0489031470
 H    1.3416295953   -0.1477781761   -1.5809109604
 H    2.0986948356   -0.4372856377   -0.0261535239