18

 C   -0.0126268428    1.5715950385    0.0286340186
 C   -0.0630510118    0.0811434812   -0.0638640412
 C    0.6806364371   -0.8566106315   -1.0908375631
 C    1.7196107118   -1.0997178674    0.0205616731
 N    0.6383788452   -0.7798197070    1.0241518265
 C   -0.4303335800   -1.7799266350    0.7411949932
 C   -0.4531045166   -1.8641335014   -0.8137574468
 C   -1.3039110951   -0.8683992499   -0.0402027771
 O   -2.6533926024   -0.6579358474    0.0726442830
 H    1.0227171995    1.9280983299    0.0563147411
 H   -0.5074398001    2.0348885527   -0.8322758617
 H   -0.5140108600    1.9153134522    0.9389387624
 H    0.9244928966   -0.5882621645   -2.1192964180
 H    2.1714303811   -2.0908713016    0.1206277148
 H    2.4956406276   -0.3303799441    0.0656588540
 H   -0.6665129872   -2.6112019239    1.3921895709
 H   -0.7336828313   -2.7658276940   -1.3410415689
 H   -2.9997790816   -0.4182016669   -0.7942039707