17

 C   -0.1129877275    1.6567761948    0.1801033334
 N   -0.2326131272    0.3139633563   -0.3815262826
 C   -0.2363840842   -0.7905728264    0.5786385096
 C   -1.4869951656   -0.3823095534   -0.1175601493
 C    1.3235377277    2.0753140280    0.1959354943
 N    1.8882390955    2.9932047494    0.9621541247
 C    3.1830271607    2.9845395443    0.5356830326
 N    3.4558453489    2.1244685831   -0.4316914909
 N    2.2448464690    1.5535622164   -0.6372801363
 H   -0.6887579791    2.3420166878   -0.4553456873
 H   -0.5187693864    1.7490401545    1.2001433623
 H    0.2977406447   -1.6844430380    0.2714365974
 H   -0.1469848888   -0.5441640859    1.6347093930
 H   -2.2393290266    0.1358302130    0.4741319494
 H   -1.8802104515   -0.9723626738   -0.9399042599
 H    3.9445483352    3.6256287859    0.9540575333
 H    2.1113554553    0.8233338940   -1.3179170136