12

 O    0.0385613037    1.3858760743   -0.3033208247
 C    0.0551452209    0.0987733142    0.2830426273
 C   -1.3242139973   -0.5137885464    0.2669035350
 O   -1.7621686808   -1.0322235173   -0.9950896447
 C   -1.5683929700   -1.9592907490    0.0729333007
 C   -0.4777088920   -2.9018239505   -0.0686024925
 N    0.3761376689   -3.6750422785   -0.1626042278
 H   -0.1863140211    1.2762507799   -1.2339979941
 H    0.7656984590   -0.5756329013   -0.2138977042
 H    0.3837144483    0.2333952478    1.3189485926
 H   -2.0919326397    0.0450331322    0.8027020593
 H   -2.4794548898   -2.3957777653    0.4780120131