16

 C   -0.0319962881    1.5481737996    0.0035342997
 C    0.0019260532   -0.0043229155    0.0017930283
 C    0.7444107700   -0.5297596527    1.2603638048
 C   -1.3882185557   -0.5082565934    0.0273689805
 N   -2.4784955268   -0.8873202602    0.0742399708
 C    0.6640864358   -0.4911062467   -1.2120137333
 C    1.2453325492   -0.8719285404   -2.2014854941
 C    1.8940232729   -1.3035897202   -3.3170662024
 C    2.4704694992   -1.6857504927   -4.3062854664
 H    0.9915655790    1.9299439972   -0.0102592109
 H   -0.5607689250    1.9255448173   -0.8734928506
 H   -0.5369397309    1.9075058765    0.9038387751
 H    0.2411503175   -0.1750334876    2.1634326820
 H    0.7643792985   -1.6209343058    1.2715767493
 H    1.7717692056   -0.1581478446    1.2527556179
 H    2.9751828257   -2.0234861406   -5.1775190807