18

 N    0.0186166509   -1.1340185166   -0.1095794087
 C    0.0037772389    0.0224098448   -0.0637425015
 C   -0.0249166542    1.4622982610   -0.0068777645
 C    0.4575356808    2.2015427524   -1.2563065186
 C    1.3129123728    2.2007170340   -0.0231401844
 C    1.4294740679    3.4508077944    0.8479204202
 C    0.5673691565    3.3751858221    2.1222435329
 C   -0.8348665670    2.9079978317    1.8187282315
 C   -1.1077228607    2.0450798618    0.8411267325
 H    0.7614534686    1.5990437332   -2.1045187176
 H   -0.0788685919    3.1117494623   -1.5023598351
 H    2.1879512578    1.5610474675   -0.0547511907
 H    2.4788268663    3.6106033402    1.1139473575
 H    1.1183618224    4.3284392521    0.2707902847
 H    1.0285076119    2.6921674825    2.8498461795
 H    0.5421219474    4.3562082633    2.6077656146
 H   -1.6448660234    3.2987873193    2.4283263604
 H   -2.1231563650    1.7169677342    0.6408781673