18

 C   -0.6268713198    1.3564383242   -0.5042634621
 O   -0.8796251709   -0.0270465250   -0.5904699126
 C   -0.4924633547   -0.7298217955    0.5664648752
 C   -0.7874038401   -2.1875623175    0.3379118644
 C   -0.6248966911   -2.8952436234   -0.9723769397
 C   -1.9992157747   -2.8166085554   -0.3277702347
 N   -2.3706129689   -3.9360394815    0.5123597099
 C   -1.5199710943   -3.9519823365    1.4561284150
 O   -0.5632927838   -2.9826500265    1.4998990272
 H   -0.9539526651    1.8052628127   -1.4447896661
 H   -1.1823351900    1.8203022904    0.3252349087
 H    0.4445922876    1.5653231351   -0.3614373848
 H    0.5821963040   -0.5852443481    0.7727621948
 H   -1.0467448844   -0.3764157783    1.4520644682
 H   -0.4667035377   -2.2476077230   -1.8261492011
 H   -0.1219385988   -3.8562867150   -0.9972486937
 H   -2.7984386698   -2.2692889647   -0.8104606622
 H   -1.4692160877   -4.6734634120    2.2621803933