19

 C    0.2705211318    1.4763302579   -0.0700073503
 O   -0.0874155352    0.1142550938    0.0511234547
 C    0.6087028286   -0.5769007041    1.0796546750
 C   -0.0796623513   -1.9462204047    1.2180095791
 C   -1.5185787019   -1.8327551247    1.6803010349
 O   -2.0365137601   -2.5927751841    2.4583873318
 C    2.0409489299   -0.7218095512    0.7980217342
 C    3.2144006511   -0.8558734605    0.5616325529
 C    4.6326634694   -1.0196112578    0.2782888874
 H    1.3321061514    1.5944992352   -0.3238783726
 H   -0.3406072447    1.8944405639   -0.8727448446
 H    0.0681772685    2.0303052149    0.8595983473
 H    0.4950797484   -0.0198429078    2.0270680891
 H   -0.0762002305   -2.4142398157    0.2249402276
 H    0.4682119378   -2.5961898028    1.9033367622
 H   -2.0818184523   -0.9857563063    1.2342807429
 H    5.0199543930   -1.9390042408    0.7306846196
 H    4.8153690683   -1.0789995210   -0.8000596716
 H    5.2189960278   -0.1821087540    0.6713997604