14

 O   -0.2334852487   -0.1037035113    0.0195587904
 C   -0.1369489339    1.0912767423    0.1156935733
 C   -1.2113037281    2.2070479661   -0.1125647526
 N   -0.5892912441    3.5310237831    0.1345605312
 C    0.6019850667    3.2097739051    0.4411204587
 C    1.9983880538    3.6654357407    0.8492505619
 C    2.3604483444    2.1288851867    0.8576735996
 N    0.9570949359    1.8758776175    0.4602538219
 H   -1.5937969393    2.1437844372   -1.1366354736
 H   -2.0580913819    2.0447443524    0.5623999468
 H    2.5260554703    4.2621651793    0.1038322383
 H    2.0567294096    4.1599647438    1.8199842906
 H    3.0899906164    1.8128576172    0.1091983975
 H    2.6203376490    1.7116676999    1.8327055760