18

 C   -0.0484185085    1.5385589041    0.1034382090
 C   -0.0145580812    0.0199497451   -0.0207211179
 C   -1.3865977028   -0.5724491751   -0.3333164680
 C    1.1231947175   -0.5821824634   -0.9401395130
 C    1.7132798660   -1.2781686709    0.2873396582
 O    2.0318034332   -0.2685653499    1.2467560816
 C    0.6719621797   -0.7104672583    1.1724547211
 C    0.0546215259   -1.2251123528    2.3552539613
 N   -0.4976507189   -1.6273985228    3.2886702791
 H    0.9317566424    1.9268743907    0.3903462078
 H   -0.3331007026    1.9935131806   -0.8514380721
 H   -0.7797105208    1.8550531878    0.8550887461
 H   -1.7547945034   -0.1904978327   -1.2909932776
 H   -1.3515733613   -1.6651261435   -0.3962424561
 H   -2.1141956591   -0.3051851483    0.4400466455
 H    0.7302970800   -1.2762166927   -1.6862011916
 H    1.7950429853    0.1335766131   -1.4187209940
 H    2.2440204085   -2.2194754609    0.3674502506