18

 C   -0.0925448509    1.3671734575    0.8329755841
 O   -0.0927167927   -0.0288824050    1.0319806728
 C    0.8571182091   -0.6958634079    0.2357448235
 C    0.7405810148   -2.1599401644    0.5181633230
 C   -0.4603683447   -2.9605168196    0.8511510812
 C    0.7554091918   -2.9692730925    1.7952085603
 C    1.8528685467   -3.7272169327    1.1287780613
 N    2.6603700986   -4.6216273131    1.4693150105
 O    1.7465344842   -3.0247639900   -0.0800773091
 H   -0.3326347417    1.6285793331   -0.2090217260
 H   -0.8568718403    1.7876789284    1.4899947320
 H    0.8813346149    1.8133933844    1.0857992121
 H    0.6788783360   -0.5082684965   -0.8376739799
 H    1.8817204270   -0.3564504299    0.4608099290
 H   -1.2992609211   -2.3926034959    1.2386246974
 H   -0.7066601221   -3.8424529057    0.2684795468
 H    0.6998261583   -2.6782723950    2.8330914534
 H    3.3039439021   -4.8464979852    0.7087495077