18

 O    0.1108574540    1.3373743635    0.3168016023
 C    0.0593233809   -0.0321861978   -0.0362889489
 C   -1.3842531783   -0.5402586132   -0.1042720971
 C   -2.1507511299    0.0342319164   -1.2960046637
 O   -2.2232831727    1.4610333404   -1.2628126374
 C   -1.5690853670   -2.0723974747    0.1093041070
 C   -2.1654908894   -1.6868434902    1.4849540811
 O   -2.5207586622   -2.2773877311    2.4652380933
 N   -2.1051023127   -0.3350715801    1.1770197327
 H   -0.4429232840    1.8019353308   -0.3268910981
 H    0.5661560288   -0.2315676381   -0.9948835251
 H    0.6032038743   -0.5750469254    0.7443719563
 H   -1.6349405576   -0.2188914913   -2.2282766226
 H   -3.1577034956   -0.4019733533   -1.3332691897
 H   -2.8280856712    1.6974296964   -0.5500813432
 H   -2.2618461164   -2.5713541651   -0.5717617597
 H   -0.6456712954   -2.6508239724    0.1781439354
 H   -1.9478691657    0.4270545053    1.8244852775