16

 C    0.0516153539    1.5709101797    0.0956620827
 C    0.0056837942    0.0428355094    0.0172396202
 C   -1.4214061408   -0.5076027948   -0.0810728196
 C   -1.4685132499   -2.0430013158   -0.1705554932
 C   -2.8857712095   -2.5655648458   -0.1541265115
 O   -3.3784014992   -3.2667874258   -0.9996962188
 H    1.0814042941    1.9346032072    0.1638391930
 H   -0.4044950668    2.0268723858   -0.7899439170
 H   -0.4908125674    1.9394095256    0.9733665356
 H    0.5849220831   -0.2994566726   -0.8498681781
 H    0.4971415191   -0.3876795347    0.8997035478
 H   -2.0010729829   -0.1750939205    0.7909607558
 H   -1.9193235982   -0.0790669624   -0.9604724618
 H   -0.9698833300   -2.4106412538   -1.0723142808
 H   -0.9506214278   -2.4679092287    0.7023718838
 H   -3.4804550618   -2.2375813428    0.7323984318