18

 C   -0.0823390481    1.4395628122   -0.0055958945
 N   -0.0040488058   -0.0031648946    0.0285211611
 C    0.0015572746   -0.8343372091   -1.0463128897
 N   -0.0943500430   -0.3521841667   -2.3559424969
 N    0.0202418610   -2.1063355769   -0.6967576031
 C    0.0298838275   -2.0865670778    0.6728655721
 O    0.0481465848   -3.2389947868    1.3888230340
 C    0.0318508631   -0.8166174701    1.1774258651
 C    0.0673520047   -0.2965747912    2.5704801106
 H    0.8992136776    1.9116910525    0.1270265140
 H   -0.4953892547    1.7444714335   -0.9695185248
 H   -0.7443752555    1.7985688139    0.7866894985
 H    0.7000187281    0.2152397639   -2.6332021599
 H   -0.1681368974   -1.1402697476   -2.9881194876
 H    0.0631136565   -3.9529812806    0.7411089340
 H    0.9413211379    0.3390171575    2.7667943533
 H   -0.8246093322    0.2875690168    2.8354582391
 H    0.1163079709   -1.1445451090    3.2577958649