14

 C    0.0254605766    1.3760007800    0.0162099216
 O    1.3010485014    1.9201433872   -0.0067736484
 C    2.0803725244    1.6446111891    1.1744318319
 C    1.8724783788    0.2032942652    1.5047235179
 C    0.9184156864   -0.4988588128    0.8553280066
 O    0.9375778311   -1.7856203996    1.2631117391
 C    1.9564084173   -1.7978053203    2.1865187792
 N    2.5364277356   -0.6587710329    2.3704137161
 O    0.0266231305   -0.0765736692   -0.0408479765
 H   -0.5228934683    1.6579439164    0.9276254153
 H   -0.4936170145    1.7024088604   -0.8838215657
 H    3.1148591257    1.8716205471    0.9022580792
 H    1.7874284149    2.3212514671    1.9912035030
 H    2.1640224602   -2.7485113678    2.6485721005