22

 C    0.0783168908    1.5672585369   -0.0480152017
 C   -0.0015543724    0.0391593910   -0.0743095385
 C   -1.4282940898   -0.4869361719    0.1328456032
 C   -1.5086343178   -2.0093477590    0.0555034894
 C   -2.9220096288   -2.6710357917    0.0316535783
 N   -2.5882576224   -3.1958248651   -1.2934649085
 C   -3.3263755869   -3.9897496154   -2.2388854867
 C   -1.3398404659   -2.6296306654   -1.3547584828
 O   -0.4943134064   -2.6320296295   -2.2152139780
 H    1.1067806234    1.9134850192   -0.1891415139
 H   -0.5323887199    2.0096173427   -0.8430350501
 H   -0.2805075774    1.9699116840    0.9063113239
 H    0.3813746604   -0.3438195941   -1.0264724546
 H    0.6495845466   -0.3765176119    0.7062403117
 H   -1.8110135548   -0.1513339614    1.1063412227
 H   -2.0932822034   -0.0517945103   -0.6260703491
 H   -0.8368722418   -2.4715851404    0.7859382991
 H   -3.1013282119   -3.4439150806    0.7878997344
 H   -3.7599880378   -1.9632432848    0.0298710847
 H   -4.2539193866   -3.4919422397   -2.5487712625
 H   -2.6923641758   -4.1305736251   -3.1177497170
 H   -3.5834408918   -4.9735426676   -1.8269149941