17

 C    0.0691863476    1.3748125245   -0.1140735840
 O    0.0170208029   -0.0230276274    0.1410850701
 C   -1.2439487467   -0.5682838658    0.0735322963
 C   -1.4109616682   -2.1126581636    0.0599384786
 C   -2.8546645437   -1.8080386794   -0.4544726351
 C   -3.3987485622   -0.9471621213    0.6699927687
 C   -2.3695028568   -0.1531244075    1.0181974455
 C   -2.1437585518   -0.6371966971   -1.2562320212
 O   -2.1999236711   -0.1270987609   -2.3249023730
 H    1.1248036973    1.6527478066   -0.1117245203
 H   -0.3685769707    1.6166066604   -1.0895434279
 H   -0.4486856650    1.9514787461    0.6644717993
 H   -0.7725899954   -2.6032222461   -0.6810225445
 H   -1.3534385622   -2.5959205454    1.0378841232
 H   -3.4835676471   -2.5559406088   -0.9276564037
 H   -4.4283043482   -0.9130124644    0.9973347532
 H   -2.3451163287    0.6801299900    1.7054848949