20

 C   -0.0144153042    1.3748817639   -0.0932559653
 O   -0.0534223165   -0.0351392502    0.0547540227
 C    0.6590794543   -0.5578270980    1.1461682764
 C    0.1853434377   -0.0372111037    2.5011433447
 C    0.7169504423   -2.0854863255    1.1137075007
 N    1.4599320620   -2.4806488913   -0.1047600994
 C    2.2077421665   -2.0853871116    1.1130139312
 C    2.2589973403   -0.5534642006    1.0121924356
 O    2.7923701121   -0.0370016936   -0.1707252234
 H    1.0140458548    1.7522935942   -0.0910214864
 H   -0.4700635042    1.5949225214   -1.0620705077
 H   -0.5940739751    1.8914182764    0.6847247447
 H   -0.8922687895   -0.1944456649    2.6166979884
 H    0.6975298398   -0.5638685618    3.3123062071
 H    0.3931173232    1.0304805640    2.6161203100
 H    0.0270754601   -2.7717050214    1.5907229950
 H    1.4544229744   -3.4977535051   -0.1535450666
 H    2.9051868171   -2.7628194796    1.5896628346
 H    2.7524606626   -0.0572518973    1.8507189442
 H    2.3921749624   -0.5707902651   -0.8732206065