15

 C   -0.1147738584    1.5701388263    0.0231274307
 C    0.0574860396    0.0777368569    0.0680731232
 C   -1.1532664723   -0.8616623224    0.2454005402
 O   -0.4355016427   -1.6623028679    1.2201157301
 C    0.7190269557   -0.8097846201    1.1525589923
 C    1.7013178504   -1.2115743417    0.0458085882
 O    0.9767258210   -0.4223400122   -0.9329424286
 H    0.8519080857    2.0754566091    0.1007620442
 H   -0.5730764302    1.8652824410   -0.9276164851
 H   -0.7608939524    1.9151391739    0.8359856382
 H   -2.0451438860   -0.4025641117    0.6911968153
 H   -1.4295503495   -1.4278962126   -0.6503766196
 H    1.0895993460   -0.5070473055    2.1338896841
 H    2.7264697990   -0.8402366186    0.1728540384
 H    1.7160198342   -2.2800071545   -0.1938245517