18

 C    0.0108418008    1.2653790290    0.0958020582
 C   -0.0737077393   -0.2390091690   -0.2221187043
 C    0.6897169605   -0.6136489887   -1.4072921356
 C    1.3358128554   -0.9049040828   -2.3824369985
 C    2.0780889565   -1.2468561627   -3.5649680582
 C    3.3312944363   -2.0921607339   -3.4692272654
 N    2.1249963922   -2.6331830418   -4.0382669318
 C    1.4145465962   -3.6831230333   -3.4705865770
 O    1.9147684997   -4.6852212941   -3.0255814292
 H    1.0460362632    1.5676414193    0.2749693117
 H   -0.3765072733    1.8611371338   -0.7349727189
 H   -0.5761840179    1.4964272696    0.9892120062
 H    0.2881422847   -0.8183269136    0.6366468378
 H   -1.1235515834   -0.5275506351   -0.3604445864
 H    2.0335873224   -0.5156691198   -4.3695055629
 H    4.1470275376   -1.9035918678   -4.1613851887
 H    3.6173440544   -2.4521953603   -2.4852792635
 H    0.3233976040   -3.5226744788   -3.5430428735