16

 C    0.0361628598   -1.1717142488   -0.0163876326
 C    0.0052047025    0.0313776949    0.0018673234
 C   -0.0583317400    1.4620170943    0.0274269324
 C   -1.0339805033    2.2922091376    0.9014587493
 N   -0.8569779283    3.4245012672   -0.0735499196
 C    0.6126281693    3.7018130215   -0.0562763025
 C    0.9128384840    2.9782219177   -1.3352496187
 C    1.2473655832    2.3111012089   -0.0124680982
 C   -0.5074623530    2.4008480778   -1.1676545256
 H    0.0680820836   -2.2328467262   -0.0324707256
 H   -2.0604854403    1.9191543861    0.8512120884
 H   -0.7543588113    2.5109522981    1.9356526133
 H    1.0432407873    4.5933883137    0.3798053163
 H    1.5178269074    3.2377544016   -2.1920337582
 H    2.2091982243    2.0826447572    0.4240922730
 H   -1.2509610052    2.1490950681   -1.9204848251