18

 C   -0.7973773911    1.2271674916    0.0167517467
 C    0.1894198364    0.0632042783    0.0012251340
 C    1.1557496454    0.0615520992   -1.2337790481
 C    2.3563832833   -0.6559331718   -0.6955450008
 C    3.5054089645   -1.3029984582   -0.9968041994
 O    4.1150704226   -1.7061033121    0.1415656660
 N    3.3467613187   -1.3139205611    1.2504189042
 C    2.3235872264   -0.7001166074    0.7241815872
 C    1.1049253897   -0.0155860126    1.2670775733
 H   -0.2704925532    2.1874775174    0.0605353516
 H   -1.4221364425    1.2296556951   -0.8825919280
 H   -1.4638552396    1.1721902017    0.8837356666
 H   -0.3750100550   -0.8766758143   -0.0397528246
 H    0.6970831765   -0.4110830971   -2.1069996939
 H    1.4074625700    1.0910373255   -1.5228289531
 H    4.0192894481   -1.5656888229   -1.9084218371
 H    1.3618785446    0.9906574582    1.6234817589
 H    0.6317204553   -0.5431178896    2.0987735065