14

 N   -0.0723413268    1.2587807037   -0.0632696915
 C    0.0026299900   -0.0051341588    0.0051306770
 C   -1.2628665057   -0.9104638485    0.0266742977
 C   -0.6358419742   -2.2653270361   -0.0158106084
 C    0.7271090462   -2.1663572556    0.0015651496
 N    1.1344699038   -0.8332139559    0.0781693280
 N    1.3107424128   -3.3769522218   -0.0174889406
 N    0.3374150715   -4.2686912829   -0.0500852572
 N   -0.8408464267   -3.5983932893   -0.0406507613
 H    0.8488258915    1.6990483219   -0.0635297951
 H   -1.8405875154   -0.7126001703    0.9356019337
 H   -1.9027932969   -0.6665261889   -0.8261929477
 H    2.0593635621   -0.5064893229   -0.1463259564
 H   -1.6951998522   -4.1312902047   -0.0628820177