17

 C   -0.0113566609    1.4784866506   -0.0166931543
 C    0.0016459252    0.0241129209   -0.0352332588
 C    0.0160092177   -1.1793762980   -0.0433547622
 C    0.0104280258   -2.6466970304   -0.0681665594
 O   -1.3064147938   -3.1690955916   -0.2310877732
 C    0.8115920774   -3.1817956097   -1.2771027732
 N    0.8136846145   -4.6338681299   -1.2596147427
 C    0.5941812230   -3.1529500308    1.2035990387
 N    1.0153055009   -3.5062661106    2.2195041599
 H    0.7673847257    1.8871395966   -0.6691947168
 H   -0.9749778546    1.8675282120   -0.3623351325
 H    0.1627699662    1.8606943235    0.9945594677
 H   -1.8566011573   -2.8263333522    0.4823052898
 H    0.3556780319   -2.7153466274   -2.1647886248
 H    1.8385861416   -2.8156584886   -1.1949126384
 H   -0.1218437189   -4.9824533266   -1.4372803887
 H    1.4229234556   -4.9964720980   -1.9836537712