20

 C    0.2243877401    1.1635159015   -0.4063788422
 N   -0.0319701373   -0.1613354825    0.1579151089
 C    0.5451036337   -0.3181691541    1.5003587309
 C   -1.3990660056   -0.5920568850    0.0658291166
 C   -1.8661004939   -1.0886069034   -1.3162648814
 C   -1.5393840585   -2.0964555409   -0.2759910960
 O   -0.3706267661   -2.8330584742   -0.3332776661
 C   -2.4453214916    0.0120239580    0.9217399892
 O   -2.2710932960    0.9155308206    1.7058603325
 H    1.3053900292    1.3306472539   -0.4518431674
 H   -0.1705606938    1.2134415573   -1.4248717515
 H   -0.2289287385    1.9713919608    0.1852284396
 H    0.1273469466    0.3868383965    2.2294342201
 H    0.3677326697   -1.3386944788    1.8496344653
 H    1.6269438039   -0.1619707746    1.4381033164
 H   -2.9030101281   -0.9166043614   -1.5847050717
 H   -1.1526355350   -0.9533589856   -2.1213600491
 H   -2.3459538217   -2.6518563097    0.1916015947
 H    0.3355709660   -2.1736767185   -0.4435748123
 H   -3.4554032130   -0.4468393198    0.7910458734