14

 O    0.3923691955    1.3311222171   -0.2552857701
 C    0.1290636553   -0.0170609390    0.0403796614
 C    0.7623766351   -0.5306889924    1.3169134008
 C   -0.0754604154   -1.2839075684    2.0357199047
 C   -1.4348162268   -1.4229952954    1.3820808307
 O   -2.5306434080   -1.2966782444    2.2524556472
 C   -1.3412475156   -0.2659856945    0.3846477622
 O   -2.2490211598    0.4767746023    0.1048710006
 H   -0.4671641643    1.7545952625   -0.3888633521
 H    0.4153422761   -0.6515310079   -0.8175626886
 H    1.7917609593   -0.3038379842    1.5670526660
 H    0.1531217203   -1.7769806376    2.9728924204
 H   -1.5038024113   -2.3768506115    0.8289319999
 H   -3.1038575606   -0.6158007467    1.8732441668