18

 C   -1.0557023705    1.0916723864   -0.0330313682
 C   -0.0577187019   -0.0522011601   -0.0276363737
 N    1.2143804418    0.2097791070   -0.7630323121
 C    2.0308976262   -0.4448052557    0.3024531672
 C    3.2670614309    0.2217860655    0.6727133462
 C    4.2891560437    0.7608993463    1.0047907730
 C    0.7947333850   -0.3175038320    1.2176748956
 C    0.7012076825    0.1988795842    2.5773529738
 O    0.4791239756   -1.1933000007    2.2664392179
 H   -0.5750318435    2.0212031574    0.2838410268
 H   -1.4629652656    1.2447284115   -1.0378965580
 H   -1.8947707694    0.8759041931    0.6375347803
 H   -0.5491012104   -0.9890735234   -0.3328220026
 H    1.2867865425   -0.2388129464   -1.6696901222
 H    2.2280150886   -1.5109357061    0.1137784592
 H    5.1921484890    1.2432542622    1.2873116742
 H    1.6144438030    0.4112113920    3.1294665820
 H   -0.1837381575    0.7490279588    2.8915128307