15

 C   -0.0736263813    1.4951545968   -0.0969333161
 N    0.2263289849    0.0817188379    0.0679360255
 C    0.6853376723   -0.6601212067   -0.9844879777
 C    0.6763929303   -2.0304756825   -1.1432701354
 O    1.3207807481   -2.2896002001   -2.3516352347
 C    1.6493964192   -1.0834477526   -2.8195852550
 N    1.3077747729   -0.0778685559   -2.0736301824
 C    0.1776666568   -3.0744880676   -0.3661526417
 C   -0.2772519821   -3.9431321313    0.3389031599
 H    0.7766323226    1.9905877214   -0.5678302784
 H   -0.9624336358    1.6816676992   -0.7172832873
 H   -0.2346693496    1.9371390390    0.8890995989
 H   -0.3777059749   -0.4270858247    0.6956192403
 H    2.1632202637   -1.0499820875   -3.7681042131
 H   -0.6645824571   -4.7143626354    0.9569360172