19

 C    0.1465367867    1.4687352664    0.3276775937
 C    0.0022588245    0.0186947852   -0.1683340552
 C   -1.3986068624   -0.5053525992   -0.0782011626
 C   -2.1761631412   -0.9216849413   -1.0756524890
 C   -3.5309907934   -1.3644601802   -0.5637870935
 N   -3.3237904870   -1.4223437945    0.8912498582
 C   -2.1386775514   -0.6216620380    1.2348595625
 C   -4.5956675252   -0.4160030528   -0.9692727924
 N   -5.4388768198    0.3233873180   -1.2521766384
 H    1.1817874260    1.8066593530    0.2259538351
 H   -0.4910470257    2.1449433355   -0.2498078009
 H   -0.1316388550    1.5632558064    1.3819017795
 H    0.3466170901   -0.0515888918   -1.2054410768
 H    0.6643890371   -0.6260189290    0.4261570126
 H   -1.9273574750   -0.9384528248   -2.1286866162
 H   -3.8210046098   -2.3510143503   -0.9524362347
 H   -4.1496257786   -1.1531339732    1.4092993842
 H   -1.5389358665   -1.1319997260    2.0016436862
 H   -2.3818621537    0.3770433067    1.6344265880