21

 C   -0.0849457608    1.5677894344    0.1065657871
 C    0.0788027993    0.0813334276    0.0415492126
 N   -0.8414402254   -0.8594454319    0.7240811051
 C    0.6164558002   -0.8951120610    1.0159790591
 C    1.3575858099   -1.6585435830   -0.1316484768
 C    2.6934448047   -2.3160971214    0.0128478422
 N    0.3317593857   -2.1048846942   -1.1103109808
 C    0.8122865478   -0.6966412360   -1.1228488525
 C    1.4041634309   -0.0612116108   -2.3425513947
 H    0.8308236769    2.0870855756   -0.1967593584
 H   -0.8941191956    1.9117697030   -0.5489651108
 H   -0.3230646654    1.8867953844    1.1273219561
 H   -1.2667853719   -0.3310299078    1.4885067660
 H    1.0011032911   -0.7414573867    2.0173279337
 H    2.6071285226   -3.2812936234    0.5265763875
 H    3.1542887149   -2.4982724781   -0.9642194590
 H    3.3808791585   -1.6911726278    0.5947015555
 H    0.8452268907   -2.5794206237   -1.8561404413
 H    0.6309928260    0.1821223015   -3.0814454500
 H    1.9334252845    0.8663196851   -2.0982335343
 H    2.1224595954   -0.7341196359   -2.8237608165