17

 C   -0.0095286590    1.4087221308    0.0675265464
 C    1.2976484760    0.6903476764    0.0050739393
 C    1.9857370499    0.3677515247    1.3012262209
 C    1.1987029771   -0.4633125016    1.9945561450
 C    1.0309382700   -1.2048464332    3.2846451818
 C   -0.4063033474   -1.8292125909    3.0906160276
 N   -0.9213730476   -1.4434702356    1.7601985423
 C   -0.0236601050   -0.7159483367    1.2256922772
 N    0.0181138133   -0.0690024363   -0.0384666629
 H   -0.3020883029    1.8407901915    1.0209140307
 H   -0.4011967023    1.9100222207   -0.8127777307
 H    1.8722792015    0.7157551117   -0.9168240402
 H    2.9539119098    0.7697218171    1.5703841018
 H    1.7940179931   -1.9786727667    3.4159814376
 H    1.0815780898   -0.5546108512    4.1631870549
 H   -0.3918540843   -2.9222145281    3.1647693298
 H   -1.1030599621   -1.4740094125    3.8582400384