18

 O   -0.3165262164    1.5451514479   -0.4818127078
 C   -0.0556931962    0.1946019474   -0.2196458640
 C   -1.3322719101   -0.6123846990    0.1380194454
 C   -1.0813290527   -2.0914413831    0.1155371121
 C   -1.5864856849   -2.9158369398    1.0232072521
 C   -2.4505534829   -2.4310304294    2.1384778509
 O   -2.4458963946   -1.0127308874    2.3372113278
 C   -1.9135186094   -0.1332579166    1.4578664515
 N   -1.9031364352    1.1080894229    1.7372254263
 H   -0.8166590563    1.8586624722    0.2936130059
 H    0.3748217707   -0.2379119071   -1.1308107995
 H    0.6817781541    0.0570513446    0.5894933011
 H   -2.0671924166   -0.3592820580   -0.6416995663
 H   -0.4655930795   -2.4695403592   -0.6961828522
 H   -1.4130513043   -3.9870781450    0.9859439333
 H   -3.4950053199   -2.7378355625    1.9816376977
 H   -2.1345776359   -2.8670636145    3.0941168741
 H   -2.3152030500    1.2821145266    2.6540365914