21

 O    0.0155485688    1.2786088486   -0.2808237664
 C   -0.0449912018   -0.0974321640   -0.0582436477
 C   -0.3265088954   -0.5558824554    1.3529983443
 O   -0.5809694896    0.4752539253    2.2798388881
 C   -1.3750478518   -0.7567726100    0.2816603050
 C   -2.6655218859    0.0156966784    0.2700802031
 C   -3.5528745874   -0.0361036467   -1.0081631754
 C   -4.8030952352   -0.0700455789   -0.0881714392
 C   -3.8829511214   -0.5223899119    1.0777891414
 H   -0.1844859248    1.6938027348    0.5698018063
 H    0.6680536803   -0.6376329139   -0.6738553386
 H    0.1758841884   -1.4269437684    1.7687334732
 H    0.2512175607    0.6844925837    2.7184956407
 H   -1.4736127755   -1.7894584307   -0.0485480659
 H   -2.4827326364    1.0578534440    0.5401965193
 H   -3.4564224390    0.7824224639   -1.7252030191
 H   -3.4222474724   -0.9831632942   -1.5426160796
 H   -5.2070893005    0.9323941828    0.0813656513
 H   -5.6260770029   -0.7300288980   -0.3723204182
 H   -3.8513430317   -1.6138601949    1.1629061809
 H   -4.0569220368   -0.1022832644    2.0712728365