17

 C   -0.1377512806    1.5071612142    0.3574320600
 C   -0.1221160645    0.0455232598    0.0872425538
 C   -0.9674996108   -0.7913763138   -0.5765098768
 C   -0.3883619083   -2.0986126257   -0.5044152215
 C    0.7639077090   -1.9654470335    0.2002550307
 N    1.7299870401   -2.8819583615    0.6043681523
 C    2.9818190920   -2.9795713583    0.0281481212
 N    3.3237997751   -2.3143770832   -0.9985313087
 O    0.9363737647   -0.6580163979    0.5746630137
 H    0.7376342886    2.0030581595   -0.0768031987
 H   -1.0351062054    1.9538915288   -0.0764872986
 H   -0.1340278172    1.7192149621    1.4327375639
 H   -1.8869597817   -0.5086625718   -1.0652071021
 H   -0.7661056090   -3.0152984588   -0.9282838917
 H    1.6030984403   -3.3491133968    1.4882979569
 H    3.6078682047   -3.7060846862    0.5622056507
 H    4.2728662531   -2.5564561070   -1.2730233153