11

 O    0.1025824055    1.3373062155    0.1713469495
 C    0.0760132714    0.0102460138    0.0569753197
 N    0.0709877660   -0.7101204167   -1.0347927288
 N    0.0394515808   -2.0815854249   -0.6924365285
 C    0.0278226031   -2.0644162934    0.5975979293
 O    0.0000221326   -2.9505866532    1.6331182438
 C    0.0067917343   -2.1414053674    2.7374926314
 N    0.0351756301   -0.8683838039    2.5269131390
 N    0.0486677497   -0.8171443139    1.1454875706
 H    0.1180921029    1.6942706211   -0.7273940811
 H   -0.0119463265   -2.6240712069    3.7009199251