18

 C    0.0103645807    1.3542329011   -0.0704427528
 O    0.0263870322   -0.0703930625    0.0201420253
 C    0.6840748811   -0.5689085573    1.1046999129
 O    1.2169578321    0.1432382693    1.9312685922
 C    0.6584059458   -2.0197072075    1.1084841559
 C    1.1949645704   -2.7748973815    2.0910453968
 N    0.9698191977   -4.1184988224    1.9209936291
 C    0.4982396434   -4.3366047499    0.5388377131
 C   -0.0300262553   -2.9396369281    0.1141531841
 H    1.0265263647    1.7532302513   -0.1357788896
 H   -0.5488711536    1.5903300910   -0.9767626246
 H   -0.4769428284    1.7959515653    0.8032326606
 H    1.7157880288   -2.4123373381    2.9675135524
 H    1.6240687662   -4.7763390845    2.3165172671
 H    1.3324491695   -4.6505559688   -0.1041677867
 H   -0.2674095721   -5.1157521907    0.5063181645
 H   -1.1214103822   -2.8834828876    0.2148952746
 H    0.2042429490   -2.7096250494   -0.9277750248