14

 O   -0.3814059305    1.0711562018    0.0716662276
 C    0.1358051651   -0.2457309966   -0.0719971878
 C    0.9687864779   -0.3681105910   -1.2759715553
 N    1.5903798856   -0.3748046942   -2.2487395165
 C    0.8816052682   -0.7364968705    1.1831561288
 N    1.7667001174   -1.6309432898    1.0798121725
 N    0.3895338851   -0.1162411755    2.3399607005
 C    0.7727078979   -0.3939362794    3.6314535586
 O    1.5857379005   -1.2277927416    3.9556560715
 H    0.3330951566    1.6987465016   -0.0931174807
 H   -0.7454413428   -0.8870916061   -0.1972530512
 H    2.1270331799   -1.8997531947    1.9963563770
 H   -0.2765568534    0.6289059419    2.1833853771
 H    0.2391706225    0.2453411340    4.3591694181