18

 C   -0.1100084756    1.5745914533    0.0256123568
 C    0.0185802251    0.0465585076    0.0161569284
 C    1.1360932971   -0.6076480758   -0.8968451927
 C    1.7305618162   -1.3036969637    0.3307991267
 C    2.1522815923   -0.2612919947    1.3410537322
 C    0.7024910131   -0.6468133655    1.2322604331
 O    0.0056506389   -1.2263599855    2.2682366256
 C   -1.2842214306   -0.5568464497   -0.2581223904
 N   -2.3228717376   -1.0084823166   -0.4898765788
 H    0.8581835051    2.0407816608    0.2246716693
 H   -0.4723999287    1.9388310925   -0.9399407274
 H   -0.8168497097    1.9023816030    0.7939635706
 H    0.7191614006   -1.2885789389   -1.6387751309
 H    1.7871611859    0.1167080692   -1.3958823256
 H    2.1109860755   -2.3161254260    0.3566789302
 H    2.6278475544   -0.6616114624    2.2306009450
 H    2.5324156076    0.7054041086    1.0199854296
 H   -0.1115216295   -0.5764278163    2.9702859582