15

 C   -0.5214328222    1.5145721232   -0.0067416294
 C    0.1844374390    0.1834422278    0.0114216656
 O    1.0670977528    0.0622556640   -1.1318565968
 C    2.2056962190   -0.4903090862   -0.6280735978
 C    3.3941249405   -1.0107033735   -1.0052889301
 O    4.0873881810   -1.3403623729    0.1389678440
 C    3.3168064929   -1.0211572758    1.2357480920
 C    2.1570331235   -0.4968898925    0.7823895441
 O    0.9862464941    0.0513247435    1.2116328863
 H    0.2115076800    2.3241195474    0.0226959412
 H   -1.1203890506    1.6026285905   -0.9165926487
 H   -1.1823183734    1.5940936213    0.8599975139
 H   -0.5153828439   -0.6647748927   -0.0166708345
 H    3.8898856895   -1.2083859510   -1.9380590040
 H    3.7471646278   -1.2276885830    2.1985843442