15

 O    0.3674150900    1.5540038477    0.0211574670
 C    0.0446964662    0.1948084588   -0.0357146853
 C    0.3194786470   -0.4037900227   -1.3473828605
 C    0.5510995711   -0.9069343594   -2.4138167482
 C    0.8262852951   -0.5780879604    1.0500218612
 O    1.5784689639    0.0281109099    1.7757983893
 C    0.6077674529   -2.0571585515    1.1479615354
 C    1.7529268731   -2.9207798344    1.5077914710
 O    0.7481281210   -2.6118591703    2.4550493074
 H    1.0495270458    1.6221078383    0.7110385057
 H   -1.0270104865    0.0520975100    0.1917627077
 H    0.7501814157   -1.3374045912   -3.3645206388
 H   -0.1982368734   -2.4711639160    0.5460554037
 H    1.7662830256   -3.9452307574    1.1399547186
 H    2.7177019624   -2.4497592814    1.6831605858