19

 O   -0.0415273672    1.3916965186    0.0737737954
 C   -0.0131609983   -0.0259190976   -0.0511285977
 C   -1.4266033057   -0.5305501405    0.0204151851
 C   -2.2870420693   -0.4420016504    1.3126525775
 C   -3.0651791428   -1.6157006218    0.6978103196
 C   -3.3653815613   -1.2970215745   -0.8237019560
 C   -2.4507996209   -0.0799208273   -1.0461961284
 O   -2.4854928566   -2.3892838901   -1.2419127704
 C   -1.7937957451   -2.1010063040   -0.0259175230
 H    0.8620437699    1.7163489397    0.0163074486
 H    0.4361267758   -0.3330459974   -1.0101460179
 H    0.5880154062   -0.4807775116    0.7536046784
 H   -1.7391833131   -0.7657802483    2.2033350548
 H   -2.7966766969    0.5027020972    1.5174242647
 H   -3.7469065556   -2.2734258493    1.2336772292
 H   -4.3577119110   -1.3384414199   -1.2702098424
 H   -2.8985023119    0.8881018126   -0.8112083767
 H   -2.0637025954   -0.0717487937   -2.0675110524
 H   -1.0787828806   -2.8511615917    0.3110963516