18

 N   -0.0565186705    1.3139421187   -0.1881523145
 C   -0.0140202592    0.0706976258    0.0344841913
 C   -1.2638688127   -0.7829964033    0.0483462137
 C   -1.1174849858   -1.9622518501    0.9853688833
 C   -1.6285494259   -1.9275066035    2.4043699709
 C   -2.2642177636   -2.8328714583    1.3623400636
 O    0.1054219803   -2.6288611088    0.7525244338
 C    1.1734672065   -1.7720618442    0.9984097316
 O    1.1697360604   -0.6076423633    0.1679637043
 H    0.8907140571    1.6991604857   -0.1987464433
 H   -2.1182347952   -0.1527650557    0.2975769878
 H   -1.4113548257   -1.1635059793   -0.9709636711
 H   -1.0199875787   -2.4042712851    3.1645103477
 H   -2.1755560317   -1.0528826749    2.7389788974
 H   -3.2473397227   -2.5800315629    0.9803690832
 H   -2.0619415663   -3.8950181681    1.4392303442
 H    1.1752774121   -1.4434554928    2.0493722014
 H    2.0930984515   -2.3078575498    0.7598706647