15

 N    0.0715700908    1.4374934801    0.1435206490
 C    0.0580416554    0.0342761059    0.0228685223
 C   -1.0187145601   -0.8125659901   -0.0110322631
 O   -0.6490578387   -2.1463533310   -0.0335569443
 C    0.7069909980   -2.1336579005   -0.0323333134
 C    1.1898343833   -0.8417993873    0.0092851203
 N    2.5617401444   -0.9181255615    0.0132602789
 C    2.9163652509   -2.2561309260   -0.0101689738
 C    1.7842994235   -3.0498620817   -0.0455447540
 H    0.6387989953    1.8749850050   -0.5750011312
 H   -0.8618640739    1.8268875308    0.0848953761
 H   -2.0796468192   -0.6248406782   -0.0056512950
 H    3.2059305308   -0.1556599833    0.1185814821
 H    3.9557964724   -2.5427510505   -0.0041448100
 H    1.7634925673   -4.1266956318   -0.0791338039