14

 N    0.0126969093    1.3855740977    0.1378135862
 C   -0.0029010685   -0.0144899457    0.0468602385
 N   -1.1165277520   -0.6652002967    0.1364113331
 N   -1.0188145911   -2.0046810213    0.1147275644
 C    0.1451414824   -2.7653282061   -0.0810789826
 O    0.0706004563   -3.9719835818   -0.1655014149
 N    1.3214266598   -2.0338907421   -0.1351220389
 C    1.2592327418   -0.7364272577   -0.0619101668
 N    2.4019253437    0.0064128323   -0.1182099109
 H    0.4536356372    1.8220310154   -0.6659503419
 H   -0.9289574294    1.7459182885    0.2471502009
 H   -1.8911193529   -2.5072594012    0.1841373403
 H    3.2595137888   -0.5197701389   -0.0335130374
 H    2.3798773246    0.9098670577    0.3304703899