19

 C   -0.1051471333    1.5663318336   -0.0118388262
 C   -0.0530335270    0.0375455501   -0.0610644679
 C    0.7428928652   -0.5127374802   -1.2405542284
 C    0.8539487998   -2.0329283689   -1.2467486602
 O    0.0413720952   -0.0757786245   -2.4428150241
 C    0.7716452542    0.0542926477   -3.5602739716
 O    1.9542489276   -0.1671808650   -3.6575155798
 C   -0.0545351254    0.5084902203   -4.6604919434
 C   -0.6917783004    0.8827641040   -5.6077204035
 H    0.8999077212    1.9943990633    0.0719188255
 H   -0.5681863231    1.9706743991   -0.9158815155
 H   -0.6862868934    1.9097601255    0.8488720453
 H    0.4061941386   -0.3525355499    0.8551166099
 H   -1.0685617753   -0.3749338786   -0.1018937496
 H    1.7426964997   -0.0685784525   -1.2701477820
 H   -0.1387531024   -2.4929385495   -1.2730086353
 H    1.4265862706   -2.3732096473   -2.1121292178
 H    1.3678669757   -2.3720971683   -0.3421261372
 H   -1.2549095676    1.2136709611   -6.4461422780