23

 C   -0.1513000704    1.5446579510    0.1335393401
 C   -0.0380890510    0.0214827135    0.0078562141
 C    0.6908939073   -0.5198174253   -1.2460723552
 C    0.6225232701   -2.0566071917   -1.2343884555
 C    0.0398567362    0.0051884604   -2.5367516493
 O   -1.3409196495   -0.3261661045   -2.5234366979
 C    2.1788956685   -0.0617997158   -1.2844005745
 C    2.9666379088   -0.4705168324   -0.1278720971
 C    3.6141497284   -0.8058559272    0.8283186918
 H    0.8267163517    2.0369280722    0.1477381251
 H   -0.7396148040    1.9765101404   -0.6818002394
 H   -0.6550945791    1.8065981630    1.0693124176
 H    0.4798067682   -0.3744942942    0.8885058495
 H   -1.0449513885   -0.4069015166    0.0147833657
 H   -0.4165072008   -2.3892521874   -1.2901754750
 H    1.1602363745   -2.4812971384   -2.0901786315
 H    1.0731558368   -2.4589287862   -0.3229556006
 H    0.1802379507    1.0946561835   -2.6127934192
 H    0.5455705564   -0.4502910578   -3.4039551403
 H   -1.7317602660   -0.0239113371   -3.3478893151
 H    2.6471730511   -0.4641467461   -2.1929232349
 H    2.2275640268    1.0302907216   -1.3792369974
 H    4.1915983739   -1.1000899949    1.6692426889