16

 C   -0.1718449506    1.4826183398    0.0326472075
 N    0.0867818612    0.0551409675    0.0370524219
 C    1.1517817928   -0.4806561112   -0.8625199201
 C    1.8105436150   -1.1531727440    0.3486006286
 O    2.2682522771   -2.4561055723    0.3681095732
 C    2.1846526889   -0.1157768324    1.3769441632
 C    0.7323690541   -0.5380751438    1.2063726396
 H    0.7181422643    2.1094319422    0.2226223078
 H   -0.5885584636    1.7739650701   -0.9370395855
 H   -0.9168317955    1.7164446109    0.8004234787
 H    0.7487120265   -1.1894419972   -1.5932013919
 H    1.7539532384    0.2781226785   -1.3812648469
 H    3.2175868166   -2.4447632270    0.2052071393
 H    2.6567251814   -0.5272873089    2.2641964034
 H    2.5314924066    0.8738322241    1.0901599568
 H    0.1486574969   -0.9528899663    2.0209217846