20

 C    0.4161518963    1.5559526440   -0.0271194068
 C    0.2631717568    0.0502244753    0.0913213526
 C    0.4555175038   -0.7474001180   -1.2192769112
 C    1.1678295140   -2.0498879022   -0.7707294099
 C    2.5276394454   -2.2087761800   -1.4421986718
 O    3.0979518021   -3.4312727467   -0.9982167562
 C    1.3060465314   -1.8552327168    0.7568799319
 O    1.2622282634   -0.4535019212    0.9717267937
 H    1.4019467001    1.8071073802   -0.4313689522
 H   -0.3488729785    1.9680582176   -0.6925274496
 H    0.3139435471    2.0326894957    0.9517115778
 H   -0.7322468875   -0.1856884741    0.5086397117
 H   -0.4942453201   -0.9378097670   -1.7248733885
 H    1.0871990304   -0.1804447375   -1.9133738125
 H    0.5743142009   -2.9407048943   -0.9956181869
 H    2.4052784310   -2.2008811904   -2.5373014442
 H    3.1613882110   -1.3482961023   -1.1723379710
 H    3.9947111495   -3.4890789654   -1.3398355062
 H    0.4782821823   -2.3522723626    1.2880758737
 H    2.2499355406   -2.2389524741    1.1496366954