11

 O   -0.0681900516    0.0214460057    0.0025162875
 C   -0.0247491278    1.2197315066    0.0083729422
 C    1.3338048493    1.9629556171   -0.0020786023
 O    2.3786878442    1.3537850987   -0.0160761227
 C    1.2926667671    3.4313173153    0.0060726414
 C    2.3347812630    4.3234337084   -0.0001080393
 O    1.8764466371    5.5478905697    0.0108844721
 N    0.3947501540    5.4165962738    0.0259506456
 N    0.1442112260    4.2012269365    0.0221061586
 H   -0.9310057036    1.8561327536    0.0212059534
 H    3.4026029323    4.1699915145   -0.0120892264