19

 C    0.0748338904    1.4908474892   -0.1084310301
 C   -0.0355490322   -0.0361290571    0.0167592136
 C   -1.4540744014   -0.5083656105    0.0424537227
 N   -2.3996537123   -0.1054702336    0.8766575149
 C   -3.4903863561   -0.8310283544    0.4817162203
 N   -4.7138314696   -0.6642095332    1.0806162712
 C   -5.7456546972   -1.6640103039    0.8774315510
 N   -3.2831706374   -1.6635954272   -0.5329004674
 N   -1.9617421977   -1.4243032355   -0.8018241264
 H    1.1215595558    1.8057927029   -0.0692308703
 H   -0.3535520741    1.8397148058   -1.0528255493
 H   -0.4682357242    1.9755261046    0.7060094033
 H    0.4933059494   -0.5273641062   -0.8082199754
 H    0.4568441364   -0.3613918533    0.9411394046
 H   -4.6399791483   -0.2786687542    2.0092210664
 H   -6.6543235638   -1.3451114359    1.3933247577
 H   -5.9649956232   -1.7489934357   -0.1899631929
 H   -5.4613272509   -2.6635914794    1.2386425009
 H   -1.5062847135   -1.9257889623   -1.5451500349