18

 N    0.0756817122    1.1683580141    0.4895851304
 C   -0.0336860692   -0.0514486217   -0.1223048915
 O    0.9090648848   -0.5940934891   -0.6740884117
 C   -1.3753373880   -0.6781890800   -0.0352596222
 C   -2.6275172711   -0.2898993067    0.7524770318
 C   -3.1182384573   -1.7374249737    0.4768323310
 C   -3.3309800032   -1.7733199151   -1.0643180809
 C   -1.8148329047   -1.6396926141   -1.1690853046
 C   -1.6144309128   -2.1611474443    0.2184289524
 H    0.9372742742    1.6742448737    0.3629424695
 H   -0.7356466353    1.6762282228    0.7963834203
 H   -2.3965512998   -0.1370679974    1.8111277862
 H   -3.2586814714    0.5307590954    0.3881481302
 H   -3.8170653134   -2.2249726673    1.1526574655
 H   -3.6605032442   -2.7593196410   -1.4026807944
 H   -3.9693371605   -0.9985376438   -1.5045874734
 H   -1.1604882097   -1.7670483276   -2.0201043572
 H   -0.9449713708   -2.8992826042    0.6339544286