17

 O    0.5294586322    0.7447639383   -0.6027931289
 C   -0.1764761247    0.2052560705    0.4962980164
 C   -1.3995583076   -0.5527085627    0.0411272988
 O   -2.1177579211   -1.3341913202    1.0200327562
 C   -1.5722155364   -2.0114536894   -0.1130237634
 C   -2.6250073666   -2.3246519844   -1.1648058165
 C   -3.3560741866   -0.9782062277   -1.3879123849
 C   -2.3595545285    0.0885961322   -0.9330056107
 O   -2.2764281411    1.2272324569   -1.3319296845
 H   -0.0702739253    1.3733273883   -1.0253373325
 H    0.5016031604   -0.4681053126    1.0289641354
 H   -0.4915281652    0.9853822703    1.2061880326
 H   -0.7584109318   -2.7006901696    0.0972483933
 H   -2.1311460509   -2.6574811316   -2.0839197913
 H   -3.2945832312   -3.1254276277   -0.8389586184
 H   -3.6567938512   -0.8002015410   -2.4214578414
 H   -4.2518099945   -0.9020007197   -0.7631668701