16

 C   -0.0968221223    1.5086570676   -0.0045757535
 C    0.0279879891    0.0162860461    0.0860561216
 O   -1.2511797008   -0.6933621954    0.0702569763
 C   -0.9068914581   -1.4322659270    1.1954581401
 N   -1.5631942253   -2.2762810354    1.8463442271
 C    0.4655189573   -0.8001347699    1.3301454389
 C    1.5754575970   -1.4512743558    0.4550630629
 O    0.9448350910   -2.1018073690   -0.6445309903
 C    1.1503508002   -0.6957627000   -0.7389425265
 H    0.8861642770    1.9806020268    0.0941806132
 H   -0.5154736096    1.7961516120   -0.9751253675
 H   -0.7509434666    1.8943530036    0.7818606645
 H   -2.4828971656   -2.4344010213    1.4304261756
 H    0.7604864204   -0.3461694165    2.2732839829
 H    2.5469045209   -1.8122046957    0.7687701731
 H    1.6968673153   -0.3209309102   -1.5974888183