18

 C    0.1205987745    1.4592427960    0.1513837018
 N   -0.0510171933    0.0308088618   -0.0519408526
 C    0.5252594034   -0.5843829179   -1.1301596442
 N    1.1221392033    0.0756222261   -2.0474165347
 C    1.5544946346   -0.7223997613   -3.1898857766
 C    2.1195287927   -2.0741393600   -2.8162162156
 N    3.1124172803   -2.5823018244   -3.4122567576
 O    1.5034537090   -2.7088003660   -1.7716899859
 C    0.3481118085   -2.0852363026   -1.2165310459
 H    1.1657388814    1.7327109774    0.3454511535
 H   -0.1962907910    1.9909648942   -0.7481601823
 H   -0.4991816662    1.7738440204    0.9938038293
 H   -0.1694056256   -0.5317396642    0.7748647729
 H    0.7115997132   -0.8769842720   -3.8840641874
 H    2.3216600753   -0.1872020113   -3.7504423262
 H    3.3300479316   -3.5004520983   -3.0184194017
 H    0.1967240624   -2.5477612306   -0.2369340025
 H   -0.5355942440   -2.3120951572   -1.8311801743