24

 C   -0.2740929042    1.1300992775    1.0620957625
 C   -0.1136121304   -0.0365068042    0.1048943303
 O   -1.3586828494   -0.7493683169    0.0813248603
 C   -1.4243830908   -1.8429712379   -0.7079478341
 N   -0.4297653926   -2.1974279268   -1.4142576612
 C   -2.7923006536   -2.4968958469   -0.5647506165
 C   -3.0798705762   -3.4954973146   -1.6893816798
 C   -2.9158481624   -3.1248743447    0.8448413586
 C   -4.3268755864   -3.6029376540    1.1993322930
 H    0.6568511416    1.7028854188    1.1110798699
 H   -1.0735302315    1.7997147862    0.7317974172
 H   -0.5158114284    0.7791188976    2.0696254113
 H    0.1284111965    0.2954776205   -0.9102389384
 H    0.6845443681   -0.7184381668    0.4168162066
 H   -0.6471446038   -3.0359327637   -1.9472425645
 H   -3.5235177233   -1.6798173315   -0.6227739815
 H   -2.4217002459   -4.3700852769   -1.6266706421
 H   -4.1091397880   -3.8577867959   -1.6324425853
 H   -2.9433375575   -3.0367770093   -2.6732138711
 H   -2.2094841841   -3.9622383211    0.9192605710
 H   -2.5923369740   -2.3784307285    1.5763401265
 H   -4.3604571881   -3.9752692678    2.2279341097
 H   -5.0522316245   -2.7853827235    1.1187759668
 H   -4.6652560512   -4.4142896596    0.5477010106