21

 C   -0.0303849990    1.5652748395    0.0525359944
 C   -0.0438142616    0.0286697661    0.0077365298
 C    0.7675631919   -0.5662014434    1.1691560606
 C   -1.4611806872   -0.4941804461   -0.0326216141
 C   -2.5787893480   -0.1898111512   -1.0640771960
 C   -3.2727093229   -1.1638760502   -0.0936601757
 C   -1.9644577518   -1.9722567993    0.1465342887
 O   -2.0426178669   -1.9044852986    1.6026682970
 C   -2.5065196690   -0.6000064287    1.1395550776
 H    0.9963325168    1.9445158795    0.0355911279
 H   -0.5631998492    1.9992804095   -0.7992080296
 H   -0.5054573296    1.9328153042    0.9695182590
 H    0.4343091160   -0.2813160489   -0.9337015672
 H    0.3401647911   -0.2825475605    2.1358126826
 H    0.7892976518   -1.6582001177    1.1313502061
 H    1.7993235118   -0.2008885399    1.1352628070
 H   -2.9629631638    0.8340871573   -1.0848581476
 H   -2.4103790187   -0.5513364869   -2.0831996364
 H   -4.2874284781   -1.5604219489   -0.0991597288
 H   -1.6142240913   -2.8948196304   -0.3176280511
 H   -2.8172464324    0.1380408745    1.8794346658