21

 C    0.0416896290    1.4033275471    0.0771905539
 O   -0.0597328706    0.0041708480   -0.0499088483
 C    0.6489663730   -0.5515176797   -1.1445021806
 C    2.1524253587   -0.6341683198   -0.8787822972
 C    0.0048678634   -1.9391545647   -1.4405842028
 C   -1.4730353148   -1.7726273101   -1.8127917543
 O    0.6461893518   -2.5013013497   -2.5933737983
 C    0.1510766729   -2.8401501150   -0.2897021654
 C    0.3013455709   -3.6106272848    0.6209954206
 H    1.0593919759    1.7336834001    0.3305491743
 H   -0.2682242516    1.9184676860   -0.8456359808
 H   -0.6283630430    1.7000362206    0.8879771904
 H    0.4736171233    0.0547642910   -2.0484103139
 H    2.5710554412    0.3591981617   -0.6971269916
 H    2.3525650753   -1.2594737953   -0.0040834271
 H    2.6695990506   -1.0511452767   -1.7470910533
 H   -1.5443168435   -1.1796430776   -2.7295463881
 H   -1.9230859607   -2.7505382280   -1.9944122288
 H   -2.0089980288   -1.2643534221   -1.0111836143
 H    1.4259363621   -2.9794504902   -2.2938622138
 H    0.4215199350   -4.2834316105    1.4341014392