16

 C   -0.0049691753    1.5228757272   -0.0183114335
 C    0.0215121773    0.0167684996   -0.0438164386
 C    0.5255302609   -0.9447831843   -1.1185812310
 N    0.0524749096   -1.9435018737   -0.0693662227
 C    0.5410838591   -0.9819442621    1.0464492559
 C   -0.8039410264   -1.0720884434    1.7730755222
 C   -1.1282657674   -0.9983013615    0.2782274536
 H    1.0065758837    1.9343871481   -0.1077440310
 H   -0.6007379539    1.9186567110   -0.8483595678
 H   -0.4385752016    1.8993274012    0.9147190644
 H   -0.0305432398   -1.0056798445   -2.0612115519
 H    1.6040503473   -0.9896749963   -1.3089924816
 H    1.5575979218   -1.0678497556    1.4369086079
 H   -1.0207452403   -2.0240691070    2.2644532629
 H   -1.0970866942   -0.2205045946    2.3919519359
 H   -2.0844977108   -1.1035427140   -0.2391536947