19

 C    0.0133458033    1.3622385642   -0.3585209006
 C    1.4659120854    1.5087203309    0.1365223975
 C    1.2424509309    0.1154083872    0.7626061416
 C    2.1024143421   -1.0155471229    0.1992741841
 O    1.7883193188   -2.2586159737    0.8043955372
 C    1.8998845258   -2.1860381026    2.1997640136
 O    1.0186147928   -1.2541002265    2.7651152445
 C    1.2819655117    0.0552066737    2.2892899002
 O   -0.1175650135    0.0642948046    0.2549125400
 H   -0.7033665382    2.0839754291    0.0511457792
 H   -0.1156280646    1.3168795286   -1.4465058392
 H    2.2309537115    1.5482433983   -0.6421840773
 H    1.6443176267    2.3140681207    0.8526357940
 H    1.9255692876   -1.1297894564   -0.8729604973
 H    3.1674507906   -0.7666272506    0.3588280785
 H    1.6278067448   -3.1662026101    2.5951134022
 H    2.9426650592   -1.9331761103    2.4795738219
 H    2.2743961461    0.3988760510    2.6338088423
 H    0.5168947590    0.7086609549    2.7155262177