21

 O   -0.0012002532    0.0691965773    0.8388260622
 C    0.1963319295    0.8722063070   -0.0445995140
 C    1.3142845713    1.8550535387   -0.0578983404
 C    1.7346524814    2.3495669849    1.3278767058
 C    2.5937596984    1.3626461175    0.6220067139
 C    1.4309821576    2.7972600936   -1.2334091154
 C    1.4844616642    2.2515527009   -2.6934232900
 C    0.6608909847    3.4899742272   -3.1400547767
 C    0.2287292931    3.6932532061   -1.6624434103
 H   -0.4815638479    0.9107271356   -0.9250608893
 H    2.0630917570    3.3810220046    1.3939198336
 H    1.1378415181    1.9919984644    2.1589314653
 H    2.5772462452    0.3384913205    0.9763023487
 H    3.5303901071    1.6953889516    0.1882532402
 H    2.3034949940    3.4390974917   -1.0682421995
 H    2.4708952512    2.0985452232   -3.1379294062
 H    0.9106871180    1.3264585446   -2.8052048724
 H    1.3062190141    4.3013118564   -3.4886316528
 H   -0.1269283485    3.3327048686   -3.8796994744
 H   -0.7327580856    3.2132615560   -1.4558960751
 H    0.1944245602    4.7120875497   -1.2689384532