20

 C   -0.1190292827    1.5178307920   -0.2137279103
 C    0.0393855744    0.0136203473   -0.0205238596
 N    0.6498949048   -0.5935828434   -1.1880722502
 C    0.7951640942   -1.9350854117   -1.3128815771
 N    0.2633522560   -2.7652452975   -0.4879347303
 C    1.6495940678   -2.2707790012   -2.5399302393
 O    2.4403287197   -1.4576910756   -2.9948218465
 N    1.4469235528   -3.5067582433   -3.0579239459
 C    2.1550257264   -3.9897593596   -4.2277369717
 H    0.8517608488    2.0030476708   -0.3660358640
 H   -0.7494473058    1.7394372727   -1.0804515091
 H   -0.5799870577    1.9677703537    0.6696358939
 H    0.6357015191   -0.2008761099    0.8786130863
 H   -0.9322563856   -0.4642771525    0.1413609550
 H    1.2808916177   -0.0510786369   -1.7609081602
 H    0.5111669022   -3.7246703159   -0.7169316994
 H    0.6753755210   -4.0435550093   -2.6970214241
 H    1.4806337245   -4.1067987224   -5.0833844153
 H    2.9176064034   -3.2515294666   -4.4773763340
 H    2.6350866491   -4.9524116507   -4.0242167281