18

 C   -0.0093775874    1.5835731409    0.0173401999
 C    0.0706956400    0.0782548670    0.0687814347
 C   -1.2595016947   -0.7660123635    0.1600917498
 C   -0.5740512970   -1.8315404359    1.0578741769
 C    0.3728420910   -2.7721822285    0.2771312851
 N    1.3886391018   -1.6557528063    0.1472141161
 C    0.6389438213   -0.8572541186    1.1889864615
 C    0.9642808528   -0.7280045367   -0.8765400837
 O    1.1984786059   -0.7210170511   -2.0489234020
 H    0.9791897732    2.0407419503    0.1258505755
 H   -0.4202196121    1.9064578477   -0.9452988698
 H   -0.6561856642    1.9755313838    0.8094767269
 H   -1.9905602704   -0.2002393663    0.7446059680
 H   -1.7235361469   -1.0848912415   -0.7780378236
 H   -1.1544785752   -2.2399838246    1.8847019584
 H    0.7816720366   -3.5774509455    0.8934998652
 H    0.0392700350   -3.1816408113   -0.6811568648
 H    1.1611919905   -0.5520870398    2.0931712759