19

 C   -0.1390237546    1.4410278188    0.0112872315
 C    0.0300158924   -0.0737980961   -0.0296995051
 C    0.8439498442   -0.5542353662   -1.2267458048
 C    2.0984096412   -0.6600964824   -0.3816687175
 C    1.2102299457   -0.5926877106    0.9034466936
 C    0.9138881171   -2.0359075578    1.2486475929
 C    1.0374864974   -2.7795396868    0.1452801445
 C    1.5430835376   -1.9203260440   -0.9691143166
 O    2.2188995786   -2.4762330564   -2.0529190161
 H    0.8179919703    1.9500222400   -0.1467767013
 H   -0.8320491597    1.7845005695   -0.7647624239
 H   -0.5378340446    1.7607238104    0.9805292538
 H   -0.9346421019   -0.5667327740    0.1433716794
 H    0.7479418480   -0.2116404512   -2.2518156777
 H    3.1062183731   -0.2990376972   -0.5450523220
 H    1.4899890283    0.0685396482    1.7232415526
 H    0.5015754693   -2.3525293914    2.1988264684
 H    0.7899904341   -3.8266475264    0.0220553167
 H    1.5654602633   -2.7909412064   -2.6861764684