19

 C   -0.4930839112    1.4802282386    0.2573905971
 C   -0.1838799765    0.0022882385    0.0545784403
 C    0.5340974819   -0.4915745708   -1.2317269139
 C    1.2775601818    0.5040551877   -2.1126718365
 O    2.1905952253   -0.1939147162   -2.9361974843
 O    1.4964543737   -1.2455266620   -0.4402137192
 C    1.0290022365   -0.6716259235    0.7813914367
 C    2.0119686737    0.2821041264    1.4282403007
 O    3.0096262837    0.7016945500    0.9026055603
 H    0.3879139921    2.1149780479    0.1312731217
 H   -1.2504968662    1.8123344088   -0.4600061108
 H   -0.8949555285    1.6597342225    1.2599983253
 H   -1.0871052574   -0.5860586723    0.2325395287
 H   -0.0482388897   -1.1716101029   -1.8636922197
 H    0.5766452036    1.0261499913   -2.7737045205
 H    1.7943214472    1.2507981203   -1.4948500766
 H    2.7666549992   -0.6771137304   -2.3302213698
 H    0.7555522338   -1.4361235692    1.5229675289
 H    1.7222133970    0.5889543153    2.4607362016