20

 C   -0.0131998073    1.5826580948   -0.0162736444
 C    0.0245729350    0.0528334046   -0.0144551350
 C   -1.3755989265   -0.5628366546    0.0045177137
 C   -1.3454843627   -2.0825769987    0.0069840243
 O   -0.3112054669   -2.7142254684   -0.0026754904
 N   -2.5983038514   -2.7258236013    0.0215178365
 C   -3.8684329994   -2.0038558536    0.0338607085
 C   -2.6386762448   -4.1221831296    0.0241519081
 O   -3.6626591940   -4.7624048578    0.0361756365
 H    0.9980585878    1.9994877033   -0.0300755821
 H   -0.5435927212    1.9694800431   -0.8938337144
 H   -0.5205634740    1.9721287364    0.8736455261
 H    0.5634495691   -0.3155206297   -0.8931852598
 H    0.5859140291   -0.3129602397    0.8511516184
 H   -1.9363736674   -0.2180408744    0.8837183475
 H   -1.9590046016   -0.2208479516   -0.8608822459
 H   -3.9813977666   -1.3811055343   -0.8576669192
 H   -4.6568808695   -2.7557898631    0.0466236248
 H   -3.9595462817   -1.3734218300    0.9224171462
 H   -1.6316252860   -4.5560958053    0.0140150206