18

 C   -0.0131696830    1.5633709599   -0.0102388978
 C    0.1459024586    0.0767229078   -0.0177787132
 N   -0.8251372865   -0.8444182567    0.6803038059
 C    0.6075043780   -0.9248409772    1.0094420669
 C    1.2359687170   -1.8458911145   -0.0510846079
 C    0.7920161104   -3.2956896582   -0.2293315369
 O    1.3189386065   -3.8283873864   -1.4329519520
 C    0.7202987241   -0.8226545435   -1.1000068423
 O    0.8274475056   -0.7495083887   -2.2924507172
 H    0.9006289959    2.0551430870   -0.3577467911
 H   -0.8302801624    1.8722374233   -0.6705800735
 H   -0.2341504762    1.9295497737    0.9980660344
 H   -1.2803868782   -0.2700926685    1.3912798186
 H    0.9767614250   -0.7254704463    2.0073240902
 H    2.3313219099   -1.7888658926   -0.0385471202
 H    1.1798480063   -3.9219832782    0.5815519541
 H   -0.3045721392   -3.3482228847   -0.1988770115
 H    1.0762089681   -3.2265598061   -2.1470134164