17

 O    0.0563001871    1.4865973410    0.1352965287
 C   -0.0035212855    0.0778538617   -0.0164303519
 C    0.7664799589   -0.6072646629    1.1030857520
 O    0.1343221587   -0.3309517569    2.3697512099
 C   -1.1572997198   -0.7604526597    2.5491978256
 O   -1.5714793872   -0.9178239369    3.6627617994
 C   -1.9737389780   -0.9550713271    1.3117318227
 C   -2.5347167220    0.2748400798    0.6135859866
 C   -1.4297625133   -0.4986914748   -0.0287640294
 H    0.0269504901    1.6781722242    1.0803463292
 H    0.4753138326   -0.1423752040   -0.9757335582
 H    0.8218163390   -1.6900262930    0.9412978687
 H    1.7788457602   -0.2077860394    1.1961346787
 H   -2.6264692538   -1.8180409463    1.3667699498
 H   -3.5364371019    0.1872755006    0.2101672499
 H   -2.2952544069    1.2537677591    1.0114549850
 H   -1.6780261382   -1.1105285151   -0.8892872767