19

 C    0.2016714493    1.3901109814   -0.0140688887
 C   -0.0760006326   -0.1136097333   -0.0451824396
 C    0.6875562657   -0.8203517472   -1.2064475524
 C    1.8836394305   -1.4283157366   -0.5164081645
 C    1.7533129584   -1.4180159848    0.8086450958
 C    0.4512613388   -0.7981667191    1.2438399083
 O   -1.5099598210   -0.3435035332   -0.0757578109
 C   -2.1977869938   -0.0311792045   -1.1852836627
 O   -3.3839864677   -0.1656582656   -1.2654083948
 H    1.2747929322    1.5622842486    0.1132672934
 H   -0.1107608953    1.8793384527   -0.9418805193
 H   -0.3285109526    1.8569109692    0.8207863539
 H    0.0624189952   -1.5997935483   -1.6619591540
 H    0.9600708640   -0.1240366957   -2.0080008349
 H    2.7186103950   -1.8473240421   -1.0660988244
 H    2.4680697897   -1.8260712441    1.5139200662
 H    0.5611358575   -0.0839779348    2.0675239024
 H   -0.2663507472   -1.5573007788    1.5779255817
 H   -1.5668178860    0.3496385061   -2.0092890756