20

 C    0.0700356729    1.6134488454   -0.0013488794
 C   -0.0018959105    0.0820921783    0.0354067258
 C    0.8345607915   -0.4852182355    1.2056600757
 C   -1.4600668247   -0.4439160234    0.0756813401
 C   -2.2770174835   -0.0641012915    1.3078687233
 O   -3.5586157793   -0.6546007299    1.1436089557
 C    0.6068155534   -0.4961783610   -1.2394987540
 O    1.0898103341    0.1408653644   -2.1384322250
 H    1.0984934880    1.9447147697   -0.1664944221
 H   -0.5359697318    2.0158443677   -0.8178702737
 H   -0.2822744405    2.0487176962    0.9381040571
 H    0.4630841490   -0.1199137178    2.1667721680
 H    0.8030074901   -1.5800336894    1.2277966598
 H    1.8816286461   -0.1777526844    1.1183394664
 H   -2.0006206367   -0.0785676953   -0.8058511504
 H   -1.4573581660   -1.5392419255    0.0065341077
 H   -1.7895434320   -0.4327171507    2.2229340206
 H   -2.3549146354    1.0300719059    1.3931423879
 H   -4.1001228721   -0.4130682424    1.9006492283
 H    0.5768286773   -1.6116328608   -1.2816500317