12

 N    0.0903626720    1.1095842005    0.4883969693
 C   -0.0024488662   -0.0344931785   -0.0058281397
 C   -1.1364724737   -1.0230535565   -0.1946381951
 C   -0.0239608690   -1.8875754391   -0.8536384059
 O    0.9491412351   -0.8451108209   -0.6009949389
 C    0.2841419281   -3.1884865871   -0.1494072211
 O    1.1790144764   -3.3484671154    0.6340726819
 H    1.0444064723    1.4692079658    0.4317686621
 H   -1.5593598396   -1.4151702418    0.7319587416
 H   -1.9366481614   -0.6900798979   -0.8558602268
 H   -0.1546883252   -2.0621419444   -1.9277988871
 H   -0.4280645988   -4.0050815047   -0.4130076304