11

 O   -0.0725360177    0.0400777482    0.0027909233
 C   -0.0256623316    1.2360963155    0.0084598496
 C    1.3626403089    1.9260570130   -0.0018794664
 O    2.3984557529    1.3389773171   -0.0152939221
 N    1.3141540288    3.3617345491    0.0058879787
 N    2.3962273102    4.1463448844   -0.0009353580
 C    1.8496516386    5.3425173470    0.0104348036
 N    0.4806941545    5.3052840787    0.0241442703
 N    0.1535982191    4.0566982632    0.0212284789
 H   -0.9108669401    1.8916352904    0.0205550354
 H    2.4187064164    6.2579142434    0.0093157167