19

 O    0.1388949185    1.3837871923    0.0559278522
 C    0.0516977777   -0.0061472154   -0.0012224807
 C   -0.5119222474   -0.7216817377    1.2017866668
 O   -0.9750062588    0.1091698632    2.2407907873
 C   -1.3103699930   -0.6791497865   -0.0764390789
 C   -2.5746357797    0.1823527423   -0.1966853774
 C   -3.3980370367   -0.5721151783   -1.2107884721
 C   -2.8290645149   -1.7120371801   -1.5956086140
 C   -1.5058133171   -1.9557202228   -0.9102699347
 H   -0.2759226477    1.6421577406    0.8912294038
 H    0.8788760027   -0.4430363878   -0.5550571209
 H   -0.0994914844   -1.6767473876    1.5254776528
 H   -0.2560390532    0.2172239459    2.8735585934
 H   -3.0999060377    0.2860180935    0.7613360805
 H   -2.3305860334    1.1994460767   -0.5286687611
 H   -4.3537476804   -0.2007880494   -1.5644420163
 H   -3.2467038159   -2.4130166348   -2.3098805071
 H   -0.6891461482   -2.1109134913   -1.6290206393
 H   -1.5378402706   -2.8598066629   -0.2846462443