16

 O   -0.2154989363    1.2936300958    0.2800149302
 N   -0.0310633241   -0.1015452125    0.2510564262
 C   -1.1233387130   -0.6875389386   -0.0223064596
 C   -2.4840864500   -0.0729614585   -0.2594712821
 O   -3.3390669413   -1.1673290146   -0.5773670118
 C   -2.7962765421   -2.3478658295    0.0232887759
 C   -1.2635923048   -2.1850117993   -0.1264243051
 C   -3.2092037190   -2.4909429315    1.4237140665
 C   -3.5423058412   -2.5982936453    2.5734590564
 H    0.6637172160    1.6128359549    0.5086708481
 H   -2.8215016608    0.4626049005    0.6396963247
 H   -2.4905888776    0.6317258234   -1.0961010076
 H   -3.1777643718   -3.1922431779   -0.5576425381
 H   -0.9611689246   -2.5291302800   -1.1217123244
 H   -0.6845301753   -2.7245248009    0.6228105836
 H   -3.8441718539   -2.6973682060    3.5871730671