14

 O    0.0182261413   -0.0471432820    0.0418314837
 C    0.0234246127    1.1642946800    0.0457439515
 N   -1.0411944686    2.0594278816    0.0731742087
 N   -0.6889559195    3.3983623934    0.0693114410
 C    0.6087237168    3.3424524102    0.0393888519
 C    1.7423371415    4.2477540842    0.0163914447
 C    2.8602213850    3.5006481106   -0.0116331686
 C    2.5406366833    2.0163235228   -0.0089940676
 N    1.0940673363    2.0546838659    0.0241680406
 H   -2.0107923728    1.7961933537    0.0940697327
 H    1.6694166877    5.3248866275    0.0215555017
 H    3.8769681005    3.8680350892   -0.0337659663
 H    2.9146046860    1.5024203699   -0.9036932627
 H    2.9550107198    1.4968230930    0.8644205487