17

 C    0.2162645974    1.4669258985   -0.0107384514
 C    0.0319834501   -0.0140765034   -0.0731202938
 C    0.0025667123   -0.8992858327   -1.1408164409
 C    0.1572540279   -0.5924102272   -2.6095596297
 C    1.4145291609    0.0730859003   -2.9543560865
 C    2.4429007619    0.6297431261   -3.2334322290
 C   -0.2249404386   -2.1613578124   -0.5496931422
 N   -0.3306609602   -2.0882772801    0.7730630794
 N   -0.1721471518   -0.7756802607    1.0322419413
 H    0.9325973336    1.7917904498   -0.7694203285
 H   -0.7238204646    2.0027467223   -0.1899470031
 H    0.5931887421    1.7798487552    0.9682199621
 H    0.0846230456   -1.5300834211   -3.1737110662
 H   -0.6769336727    0.0285987427   -2.9650576230
 H    3.3565238713    1.1081877246   -3.4858054285
 H   -0.3105302683   -3.1190587414   -1.0440943065
 H   -0.1999617467   -0.4610536604    1.9879419365