22

 C    0.4756812211    1.5872043380   -0.0660411608
 C   -0.0256425798    0.1432655166   -0.0571169242
 O    0.4623859826   -0.4445648714   -1.2430881810
 C   -0.0950806997   -1.6878452358   -1.6223131462
 C    0.5719960510   -2.8903829300   -0.9527136978
 C    0.1629443362   -3.1250746560    0.5039017474
 C    0.4914367163   -2.0173673802    1.4850754812
 N    1.7101379957   -1.2147778217    1.2822444427
 C    0.3984525179   -0.5541725582    1.2331524449
 H    1.5687319226    1.5977759297   -0.0249207704
 H    0.1579006875    2.0890340917   -0.9831757946
 H    0.0859364420    2.1439180315    0.7914887036
 H   -1.1316660439    0.1453489096   -0.0779574802
 H   -1.1832862067   -1.6941185721   -1.4368970800
 H    0.0517195022   -1.7515390331   -2.7063991049
 H    0.3200527853   -3.7887082909   -1.5307707336
 H    1.6557176585   -2.7532862307   -1.0179336223
 H   -0.9194652787   -3.3116481683    0.5561419753
 H    0.6431418459   -4.0456822415    0.8612921843
 H    0.2682771505   -2.3015979376    2.5146925440
 H    2.1799771465   -1.0331619960    2.1639665505
 H    0.1089659871    0.0348433163    2.1054536223