16

 C   -0.2307994919    1.5477244272    0.0458643155
 C   -0.0778659946    0.0360305109   -0.1046545812
 C    0.8238295239   -0.4195423840   -1.2187115547
 N    1.3901169697    0.4715759926   -1.9512989252
 O    2.2288422543    0.0105529364   -2.9846883408
 C    2.4286615551   -1.3285803508   -3.1951267166
 N    3.1766974279   -1.7780247411   -4.1162918883
 C    1.7182186035   -2.2226020890   -2.2821278895
 N    0.9543210026   -1.8141160960   -1.3403715977
 H    0.7328531520    2.0259475825    0.2383782690
 H   -0.6425372177    1.9963259116   -0.8616697788
 H   -0.9019174976    1.7739145147    0.8788545895
 H    0.3066968824   -0.4154022590    0.8194461562
 H   -1.0515564090   -0.4443926768   -0.2683189321
 H    3.5929602552   -1.0181796590   -4.6582690138
 H    1.8686392043   -3.2890270402   -2.4387235214