15

 O   -0.8910091323    1.2884237094    0.1257317545
 C    0.2311079442    0.8425605857    0.1218589031
 C    1.4483829486    1.7142795264    0.0836226709
 N    2.5872600561    1.1256976625    0.0595189909
 C    3.7615296632    1.9782651914    0.1135794777
 C    3.6038994428    3.4282160720   -0.3391231023
 O    4.5470492933    4.1142202419   -0.6431709516
 C    2.1829075703    3.9899216713   -0.4044636066
 N    1.1977037989    3.0560755470    0.1063551781
 H    0.4630595444   -0.2378391982    0.1478074300
 H    4.1165292799    2.0208182280    1.1568597702
 H    4.5832170701    1.5314502394   -0.4553341408
 H    2.1612569231    4.9284733189    0.1598706220
 H    2.0007208619    4.2468351122   -1.4591376921
 H    0.2176592353    3.2948248222    0.0290763861