18

 C    0.0924518477    1.4955404126    0.0438584180
 C   -0.0353620410   -0.0287785740   -0.0511687992
 C   -1.4887823794   -0.4978024818   -0.0131774131
 N    0.6434965938   -0.5177404494   -1.2534285243
 C    0.1635151948   -1.0454485229   -2.3914337085
 N    1.1482916611   -1.3134628311   -3.2381943660
 C    2.2380053660   -0.9101852981   -2.5368519831
 O    3.4835103833   -1.0028438789   -3.0223850337
 N    2.0052184900   -0.4196773075   -1.3325646012
 H    1.1417558019    1.7899332478   -0.0182374436
 H   -0.4555116562    1.9810480837   -0.7704919188
 H   -0.3174954045    1.8480414464    0.9949808419
 H    0.5057706216   -0.4772516627    0.7890586238
 H   -2.0779670092   -0.0493341381   -0.8198554619
 H   -1.5649368093   -1.5863406701   -0.0859760070
 H   -1.9391050487   -0.1884839246    0.9332566594
 H   -0.8843511180   -1.2244667374   -2.5703373623
 H    3.4041355761   -1.3900701340   -3.9023772705