19

 C   -0.0360458330    1.3644729287    0.1402018506
 O    0.1445219320   -0.0539280003    0.0305068402
 C    0.5926545599   -0.4883459724   -1.1629201390
 O    0.8475570616    0.2444346267   -2.0870048609
 C    0.6963025874   -2.0006353600   -1.1787443703
 C    1.5199311154   -2.5299794205   -2.3711794725
 C    3.0169803197   -2.1854776523   -2.2356067913
 C    1.3218292419   -3.9707563796   -2.5189604064
 C    1.1662274521   -5.1586515904   -2.6195055487
 H    0.9090871142    1.8867386475   -0.0276651878
 H   -0.7667467851    1.7181711841   -0.5914953869
 H   -0.3950830217    1.5397238215    1.1542254981
 H    1.1115601425   -2.3448090946   -0.2265706285
 H   -0.3257040828   -2.3946101006   -1.2223987880
 H    1.1406829733   -2.0292526696   -3.2702189572
 H    3.1472291508   -1.1022875151   -2.1813719078
 H    3.4385773236   -2.6429542050   -1.3349611426
 H    3.5758394666   -2.5592284692   -3.0969654425
 H    1.0271966318   -6.2059774390   -2.7250493585