15

 O    0.0862304582    1.3810076884    0.0092478258
 C    0.0709869430    0.0319839606   -0.0551451565
 C    0.0361319858   -0.7535517623   -1.1863109852
 C    0.0013036848   -0.8292269863   -2.6272033685
 C   -0.0206459021   -2.1220882524   -3.0029382099
 C   -0.0011590880   -3.0343299014   -1.7873392397
 N    0.0343735518   -2.0587270981   -0.7007062339
 C    0.0669827870   -1.9994602148    0.6472385912
 N    0.0898363190   -0.7404822743    1.0691959155
 H    0.1108175964    1.6019745767    0.9485283457
 H   -0.0055027569    0.0297958113   -3.2825659914
 H   -0.0484058316   -2.5073122188   -4.0119594543
 H   -0.8920723305   -3.6716811197   -1.7220242306
 H    0.8787846102   -3.6895818862   -1.7638461369
 H    0.0732096630   -2.8706552728    1.2838282688