20

 O    0.0621660631    0.0667686838    0.3973218653
 C    0.0109304838    1.2393216997    0.0761296215
 N   -1.1797737824    1.8794642983   -0.1497275124
 C   -1.3400406173    3.2934391659   -0.4592631185
 C   -1.0509975878    4.2382947567    0.7265884825
 C    0.2035370803    3.8229899427    1.5205092812
 C    1.3594896297    3.4132390402    0.6263488506
 C    2.2340110696    2.2390859422    0.9952818258
 C    1.2397662808    2.1042236460   -0.1247267966
 H   -1.9982159793    1.3117688822    0.0115228872
 H   -0.6838595997    3.5495493682   -1.2969021783
 H   -2.3636102013    3.4404933692   -0.8151585303
 H   -0.9351157509    5.2529435824    0.3256768500
 H   -1.9113701934    4.2668734477    1.4051543683
 H    0.5058515689    4.6351379647    2.1910266924
 H   -0.0542805057    2.9774391184    2.1682076261
 H    1.8398346111    4.2290312774    0.0909984645
 H    3.2868561969    2.2739662051    0.7389673060
 H    2.0162453971    1.7084534651    1.9164168629
 H    1.6334154866    2.0599948640   -1.1368196283