19

 C   -0.0835834030    1.7052939869    0.1951747420
 C   -0.0629102711    0.1970429661    0.0678889733
 C   -1.3763554059   -0.4252317666   -0.4113285203
 C   -1.7479504025   -0.0164917168   -1.7632174497
 C   -2.0389537819    0.3291869977   -2.8770665010
 C    1.2102649153   -0.4846311783   -0.3388234360
 C    0.7122957990   -0.6281530684    1.0965635964
 C    1.4140913093   -0.0100956084    2.1819897439
 C    1.9987302563    0.4995993261    3.1021927541
 H    0.8697192895    2.0840473017    0.5696248705
 H   -0.2858176866    2.1654612267   -0.7768817091
 H   -0.8660888346    2.0282336040    0.8914419156
 H   -1.2990994707   -1.5191967060   -0.3755591869
 H   -2.1811722821   -0.1526865098    0.2848869975
 H   -2.3035077143    0.6285614173   -3.8608151037
 H    1.1554075951   -1.3636950995   -0.9720136579
 H    2.0899480291    0.1295694525   -0.4930143948
 H    0.2729048010   -1.5916631735    1.3423035169
 H    2.5159314583    0.9485138982    3.9133109090