22

 C   -0.1901931395    1.4663380842   -0.0088093949
 C    0.0268815529   -0.0495666821   -0.0231023476
 C    0.9173519668   -0.4907137495   -1.1790969066
 O    0.6635019513   -0.5091106134    1.1677490163
 C   -0.1446037109   -0.5328678712    2.3188111423
 C    0.6415762713   -1.2308281344    3.4236113383
 C   -0.1608481518   -1.2905453085    4.7367221402
 C    0.5733790457   -1.9502699554    5.8137662778
 N    1.1639073489   -2.4738582587    6.6577231235
 H    0.7680617787    1.9838281660    0.1030518635
 H   -0.6520620506    1.7927336053   -0.9458737973
 H   -0.8471312959    1.7785718279    0.8081023377
 H   -0.9530628455   -0.5494777222   -0.1118055330
 H    1.9003816483   -0.0152664710   -1.1028391403
 H    1.0592574081   -1.5742750150   -1.1597254119
 H    0.4718242824   -0.2119315894   -2.1384125756
 H   -0.4210504436    0.4840161853    2.6437939112
 H   -1.0871844732   -1.0734671026    2.1199764207
 H    0.9012007753   -2.2425549632    3.0983636942
 H    1.5819313279   -0.6959758615    3.5872822398
 H   -0.4258777305   -0.2797894881    5.0696111021
 H   -1.1050171160   -1.8272873524    4.5847548795