20

 C    0.6575240745    1.5149679023    0.0640530462
 N    1.4617099234    0.2910812878    0.1063449601
 C   -0.0130449315    0.1771789863    0.0116275039
 C   -0.5862756130   -0.4067202602    1.2920402348
 O   -1.9744008377   -0.2162878498    1.4628912765
 C   -2.7772541844   -1.1458608755    0.7631588435
 C   -3.0325416905   -0.7737206870   -0.6977400273
 C   -1.8303242310   -0.6275380670   -1.5943528628
 C   -0.5944722912   -0.2176263558   -1.2974837046
 H    0.6339771450    2.0867073011    0.9883949812
 H    0.6609788927    2.1157469451   -0.8417104263
 H    1.8841269974    0.1139671829   -0.8020285716
 H   -0.3426735866   -1.4808597634    1.3252428491
 H   -0.0925062981    0.0711675325    2.1427327056
 H   -2.3258311674   -2.1493974806    0.8194863678
 H   -3.7360529342   -1.1810995803    1.2922561219
 H   -3.7044507417   -1.5323931420   -1.1199522369
 H   -3.5994468679    0.1690142494   -0.7223652193
 H   -2.0308382229   -0.8226964709   -2.6461214998
 H    0.1006063852   -0.1090248149   -2.1310982521