20

 C    0.1012935347    1.5999035230    0.0139080935
 C    0.0961183514    0.0680408113   -0.0067250965
 C    0.7724737766   -0.5766308138   -1.2169901472
 C    2.2449144028   -0.4721513545   -1.3401750852
 N    1.6380919509   -1.7085197674   -0.8057239799
 C    1.5789859085   -1.8103125668    0.6650651546
 C    2.7504767970   -1.2112462171    1.4564274988
 O    2.0316568982    0.0335061398    1.6364117379
 C    0.7926346752   -0.5883402133    1.1942982237
 H    1.1210052566    1.9834519451    0.0916751666
 H   -0.3522826606    2.0030295616   -0.8966968832
 H   -0.4667692528    1.9824110276    0.8679990012
 H   -0.9458767951   -0.2790864378    0.0092370798
 H    0.1656284122   -0.7380607074   -2.1044786790
 H    2.7204112580   -0.5992253910   -2.3088535004
 H    2.7590283117    0.2038823891   -0.6646366471
 H    1.2499248747   -2.8142252036    0.9377936719
 H    2.9341221037   -1.7076588257    2.4177544882
 H    3.6998144634   -1.0783081743    0.9277382209
 H    0.1198285927   -0.7420798750    2.0463804314