13

 O   -0.0235229867    0.0527174451   -0.3728922510
 C   -0.0714725166    1.2206980401   -0.1172514937
 C   -1.2811736244    2.0867533019    0.1705370301
 C   -0.7196826513    3.5255610516    0.0797346519
 O    0.7298221219    3.4085394618    0.2036914505
 C    1.1649247950    2.1395702090    0.0071692061
 O    2.3144606398    1.8252454495   -0.0254864903
 C   -1.0544469379    4.1940598733   -1.1705413470
 C   -1.3473848800    4.7329995548   -2.2026931127
 H   -2.0998052329    1.8951502644   -0.5226446991
 H   -1.6301811418    1.8694284043    1.1858829836
 H   -1.0359753408    4.1400832489    0.9260865963
 H   -1.5997861542    5.2165016352   -3.1148422846