15

 O    1.0799008966    1.3873071016   -0.5415685085
 C    0.2757718609    0.3859310010    0.0110030612
 C    0.0029290764   -0.7016373232   -0.9619446930
 N   -0.2106320954   -1.5382337644   -1.7286755059
 C    0.9204828885   -0.2022083568    1.2479312417
 N    2.1129098400    0.0610382588    1.5829120938
 C    2.3662321447   -0.6980747171    2.8196405382
 C    1.0485899293   -1.4831763063    3.0655771326
 O    0.1728352285   -1.0358603813    1.9925611928
 H    1.9662492332    1.2558952916   -0.1680187647
 H   -0.6949196624    0.8149337457    0.2955630385
 H    3.2279489883   -1.3572549144    2.6816234203
 H    2.6052568407   -0.0081598134    3.6348639987
 H    1.1607994633   -2.5660607091    2.9752984466
 H    0.5619571576   -1.2481860528    4.0143175876