20

 C   -0.0952703131    1.4604211509   -0.0358891525
 C    0.0267122658   -0.0510604049   -0.0026308862
 O   -1.1390013158   -0.6838456038   -0.5262090295
 C   -1.8759190588   -1.2338489781    0.5658767076
 C   -0.8377364217   -1.6889020236    1.6178053630
 C    0.3396523968   -0.7459239993    1.3429242171
 N    1.6613672890   -1.2879013681    0.8240438540
 C    1.3881035430   -2.0916494102   -0.3834571151
 C    1.3551824816   -0.6296468540   -0.5191296082
 H    0.8013958041    1.9344034075    0.3757610737
 H   -0.2272174750    1.8074702562   -1.0657623510
 H   -0.9598707273    1.7925931560    0.5478145616
 H   -2.5525512125   -0.4777690571    0.9939712552
 H   -2.4899292767   -2.0490792600    0.1726559879
 H   -1.2213832374   -1.5950946849    2.6365948021
 H   -0.5532124835   -2.7338324508    1.4686277756
 H    0.5586328001   -0.0720206851    2.1723602042
 H    2.2764111139   -2.6064668669   -0.7362492384
 H    0.4675763687   -2.6587817778   -0.4801925461
 H    2.1093201789   -0.0595441260   -1.0520725351