20

 O    0.0595605882    1.3489691639    0.4233645954
 C    0.1119459250   -0.0486970647    0.1574610797
 C   -1.2725975481   -0.6773797366    0.1029323658
 C   -2.2211833482   -0.3016680872   -1.1008959791
 C   -2.2877265170   -1.7921350641   -1.4569860961
 C   -3.4511061847   -2.5323170223   -2.0393761891
 O   -3.1700923348   -3.9231432650   -1.9531637611
 N   -0.8983889791   -2.2083182746   -1.7453196547
 C   -1.3791241360   -2.1469256770   -0.3350045212
 H   -0.3388034953    1.7730454112   -0.3432129807
 H    0.6515671619   -0.2655701987   -0.7736046217
 H    0.6857233577   -0.4853956457    0.9829714645
 H   -1.7882627486   -0.5074183407    1.0523868716
 H   -3.1744230935    0.1158043350   -0.7682498778
 H   -1.7970493061    0.3345074048   -1.8845683630
 H   -4.3679216047   -2.2735348364   -1.4854902138
 H   -3.6018995612   -2.2216030695   -3.0867550441
 H   -3.8384923654   -4.4007154364   -2.4519762874
 H   -0.9627881465   -3.1907720914   -2.0155454150
 H   -1.3600914637   -3.0331934245    0.2868589879