21

 C    0.0861593421    1.6068127724    0.2585450732
 C    1.5234578539    1.5793202668   -0.3271949372
 C    1.2531651868    0.1380473544   -0.8599587847
 C    2.3376214878   -0.8819572125   -0.6764817402
 C    2.1416768964   -2.1234349205   -0.2321298494
 C    0.7662621643   -2.6691763235    0.0910947208
 O    0.1473180113   -2.1133068958    1.2481530268
 C    0.1979697477   -0.7006955929    1.3650579609
 C   -0.0163014517    0.0676982458    0.0629952811
 H   -0.0215751074    1.9749918292    1.2831311026
 H   -0.6155071860    2.1530220304   -0.3767226175
 H    1.7760618893    2.3405016340   -1.0689715166
 H    2.2914598862    1.5899231634    0.4513337714
 H    0.9563746260    0.1874431856   -1.9157460329
 H    3.3491751437   -0.5472211008   -0.9043746110
 H    2.9910030449   -2.7863946622   -0.0919856862
 H    0.1074669541   -2.5365114099   -0.7813521486
 H    0.8187379594   -3.7431452526    0.2889961626
 H   -0.5941525307   -0.4426142967    2.0776387628
 H    1.1533781544   -0.3889961129    1.8160682354
 H   -0.9304781226   -0.2859145016   -0.4224392035