16

 N   -0.0835611453    1.3362381811    0.2188297457
 C   -0.0027174575    0.1318577240   -0.1379101835
 O    1.0324406796   -0.3941685374   -0.8578182624
 C    1.2700985524   -1.7953908057   -0.6670913072
 C    0.0290491416   -2.5921961796   -1.0292051734
 C    0.0419633140   -3.7067305824   -1.9805063816
 O    0.0321856190   -3.9405653916   -0.5657625324
 C   -1.2218267266   -1.7641968810   -0.8004662700
 O   -0.9803817519   -0.7475921557    0.1798359895
 H    0.7800199451    1.8212438914   -0.0181431270
 H    2.1283974661   -2.0437341283   -1.2928256342
 H    1.5265559664   -1.9949938179    0.3803276547
 H   -0.8722933478   -3.9853833736   -2.5041316390
 H    0.9663980703   -3.9668749542   -2.4944172240
 H   -1.5580677567   -1.2956538250   -1.7337188256
 H   -2.0232110789   -2.3886265742   -0.4029092397