16

 O    0.0395353422    1.3121989471    0.2241840965
 C   -0.0076122040   -0.0814580852    0.0699561910
 C   -0.6391482248   -0.9246848650    1.1596575691
 C   -1.4003771222   -0.6174289993   -0.1193533850
 O   -2.4350747007    0.3182968867   -0.0533891740
 C   -1.6883096245   -1.7146464214   -1.1229076540
 C   -2.8796033048   -2.5604604171   -0.7114034028
 O   -2.8810006601   -3.7649308994   -0.6970687804
 H    0.5488431083    1.5198445028    1.0142203514
 H    0.8115908650   -0.5013387276   -0.5112365961
 H   -0.2495062424   -1.9236972061    1.3248692006
 H   -0.9797382164   -0.4064326580    2.0501182148
 H   -2.0094059730    1.1804690304    0.0618841776
 H   -1.9261856367   -1.2435921241   -2.0868701718
 H   -0.8261221170   -2.3730108800   -1.2587003241
 H   -3.7778833489   -1.9765036736   -0.4173430228