14

 O   -0.2274297219    0.1395833861    0.4746699872
 C   -0.0973562945    1.2412820609    0.0653725503
 O   -1.0070699268    2.0400346989   -0.5666191407
 C   -0.0678002907    3.1426705730   -0.6628918016
 C   -0.0619606949    4.0702038906   -1.8201703741
 C   -0.4858820921    4.5454798621   -0.4318029317
 C    1.0404182503    2.3017127132   -0.0243659972
 C    1.6210398838    2.7698049321    1.2179741912
 N    2.0754791014    3.1697736258    2.2021382807
 H    0.8941583794    4.3976302387   -2.2141638285
 H   -0.8415121477    3.9366515737   -2.5619057130
 H   -1.5423246634    4.7232361652   -0.2656844273
 H    0.1829337621    5.1898092540    0.1287138948
 H    1.8213900251    1.9855338856   -0.7216253000