21

 C   -0.0379853053    1.4671224792    0.0241277565
 C    0.0435671320   -0.0413695365    0.0002881292
 C    0.6267776621   -0.6883232073   -1.2835918539
 C    0.1926041447   -2.1608199928   -1.1108971129
 C    1.0718372284   -2.8998405377   -0.0729881507
 C    0.2621100295   -2.1909496431    1.0397916147
 C    0.7078725235   -0.7234759743    1.2252291640
 C   -0.9034542801   -1.9786358409    0.0037537586
 O   -1.2776672894   -0.6210341122    0.0348704011
 H    0.9642134375    1.9059098622   -0.0010331111
 H   -0.5968610243    1.8372576891   -0.8405979352
 H   -0.5413426390    1.8120866377    0.9322696598
 H    0.1535445725   -0.2371913716   -2.1609171353
 H    1.7105171654   -0.5681630670   -1.3740946988
 H   -0.0525359079   -2.6655267216   -2.0459095620
 H    0.8924970420   -3.9790064409   -0.0823134107
 H    2.1516003580   -2.7213603905   -0.1053835382
 H    0.0773790208   -2.7218488597    1.9741846579
 H    1.7953034497   -0.6049188982    1.2488586035
 H    0.2927138665   -0.2974911438    2.1435705923
 H   -1.7717123366   -2.6342257500    0.0226292913