25

 C   -0.0155917149    1.5956527756   -0.0040227998
 C   -0.0452254666    0.0657613017    0.0357832299
 C    0.6973511535   -0.5240203512    1.2312734924
 C    0.5867446787   -2.0507352010    1.3201498242
 C    1.4648402575   -2.5982690215    2.4563436048
 C    2.9080707567   -2.0589833873    2.3730701985
 C    3.7175812241   -2.6857315964    1.2291980264
 C    2.8422287332   -0.5302997079    2.2366663865
 O    2.0639934420   -0.1303358471    1.1215090812
 H    1.0150970570    1.9577225428   -0.0226164215
 H   -0.5321117822    1.9776139250   -0.8898501636
 H   -0.5058936900    2.0231505399    0.8780014409
 H   -1.0814969925   -0.2929472080    0.0662803137
 H    0.4026610282   -0.3412421593   -0.8793516448
 H    0.2837917459   -0.0887388641    2.1617105917
 H   -0.4603137188   -2.3340101288    1.4792575635
 H    0.8903425097   -2.4816798559    0.3584534069
 H    1.0302585982   -2.2934148629    3.4179835793
 H    1.4643751821   -3.6941472620    2.4477224932
 H    3.4165183533   -2.2845324305    3.3198844471
 H    3.3190696662   -2.3921733754    0.2542851386
 H    4.7622041792   -2.3586414453    1.2679543319
 H    3.7071434415   -3.7790795170    1.2883532938
 H    2.4267966947   -0.0907461429    3.1603277619
 H    3.8387367635   -0.1038098404    2.0807041533