15

 O   -0.0492771242   -0.0051348365    0.1435553941
 C    0.0157826416    1.2038568668    0.0869769294
 C    1.2667377444    1.9568451088    0.0010827989
 C    1.3456677583    3.2988389737   -0.0442858609
 C    2.7630596122    3.7434320528   -0.0607190942
 N    3.4921817686    3.3124587994    1.1723951957
 C    3.5850401730    2.4941180482   -0.0494578251
 C    2.6350020348    1.3013643401   -0.0528057924
 H   -0.9035044763    1.8316529411    0.0870226968
 H    0.4971251003    3.9740105366   -0.0408275070
 H    3.0663401311    4.6606711152   -0.5522781055
 H    4.3391894833    3.8738600356    1.2486909241
 H    4.5360746838    2.4349999748   -0.5672926392
 H    2.8000784157    0.6398692482    0.8033271526
 H    2.7434696935    0.6904425852   -0.9563349672