23

 C    0.1737758791    1.5383658688    0.3557694654
 O    0.8010439936    0.3107668016    0.0658152159
 C    0.7485769855   -0.6026777682    1.1271068058
 C   -0.5940693515   -1.3207098317    1.4455904289
 C    0.2108167362   -2.6402767746    1.6016728261
 C    1.4058447203   -1.9833357490    0.8403833675
 C    1.4915498063   -2.3534806945   -0.6199480529
 C    2.7643660726   -2.1263530238   -1.3898577720
 C    2.3354923768   -3.5318853171   -1.0434787171
 H    0.6377411348    2.0374523142    1.2218035530
 H    0.2872531328    2.1788045872   -0.5224197800
 H   -0.8992769019    1.4151106910    0.5668491685
 H    1.1694156346   -0.1484856240    2.0393674417
 H   -1.1752226043   -0.9708244563    2.3019155268
 H   -1.2388599520   -1.3379449274    0.5620474604
 H    0.4514999818   -2.8604497001    2.6448878163
 H   -0.2141510677   -3.5375816919    1.1466271354
 H    2.3888135247   -2.1227246220    1.3021113258
 H    0.5732340133   -2.2039002135   -1.1806605526
 H    2.6917460213   -1.8018622613   -2.4218185779
 H    3.6100889646   -1.7079025803   -0.8541517677
 H    2.8940276645   -4.0588195196   -0.2762077270
 H    1.9689450745   -4.1710152974   -1.8393678606