19

 O   -0.0150235778    0.0596571510   -0.1687372275
 C    0.0158579350    1.2406878665    0.0370773338
 C   -1.1030909441    2.2773103974    0.3336588230
 C   -0.0597442194    3.3769996937    0.0505899957
 C    1.0303477752    3.2419726816    1.0518410012
 C    1.0582125341    2.2921305628   -0.1436233877
 C   -0.2849470569    4.6039029182   -0.7564362681
 C   -1.2565992108    4.6384456994   -1.9117572710
 C   -1.5790918719    5.3789482235   -0.6398337571
 H   -1.8909269273    2.1870916171   -0.4195022597
 H   -1.5571584623    2.2762102163    1.3290999688
 H    1.8084712731    3.9987358164    1.0166019547
 H    0.8328565196    2.8580213923    2.0496018901
 H    1.9065645350    2.2589168589   -0.8165361314
 H    0.6109295335    5.2063024336   -0.8818528257
 H   -0.9757893819    5.2125057337   -2.7875794393
 H   -1.8247317758    3.7427016056   -2.1366795845
 H   -2.3535449613    4.9675628190   -0.0012510345
 H   -1.5303327863    6.4620560330   -0.6388305110