11

 C   -0.0060680171    1.4719903883    0.0099948685
 N   -0.0153796579    0.0207113722    0.0022106764
 C    0.0029812416   -0.8168443072   -1.0771018603
 N    0.0360765087   -2.0691655086   -0.6999275051
 N    0.0444115096   -2.0766163090    0.6811027650
 C    0.0159555718   -0.8284421989    1.0721210244
 H    1.0154872075    1.8647885758    0.0024712788
 H   -0.5355471404    1.8458856785   -0.8686586837
 H   -0.5186266024    1.8359870654    0.9027020663
 H   -0.0142320314   -0.4606495748   -2.0958644126
 H    0.0110632298   -0.4832215318    2.0947879124