22

 C    0.6099219128    1.5614140433    0.8462623520
 C    0.4091203407    0.0662995606    0.6504922982
 C   -0.5309010473   -0.7663052650    1.5810588528
 C   -1.7537857044   -0.1692558576    0.8227199093
 C   -0.7085039436   -0.5241539432   -0.2756602315
 C   -0.4976388773   -1.8677352017    0.4810095097
 N    1.3649126960    2.1196333146   -0.2754262153
 C    0.5773738992    2.6492483955   -1.3841941964
 C    1.2881654094    3.5646648176   -0.4493453196
 H   -0.3437152682    2.0939983488    0.9980619995
 H    1.2076412334    1.7200579770    1.7535409083
 H    1.3901284621   -0.3936938842    0.4886389341
 H   -0.4286779078   -0.9105561759    2.6584678342
 H   -2.6652842547   -0.7737839588    0.8307088072
 H   -1.9910924659    0.8832065050    0.9847422331
 H   -0.8111664432   -0.3901328959   -1.3535678999
 H    0.4569717602   -2.3773293013    0.3232460944
 H   -1.3362578847   -2.5692042692    0.4706718055
 H    0.9687667858    2.4599815207   -2.3797701786
 H   -0.5080579674    2.6067779031   -1.3054112342
 H    0.6754325513    4.1320941819    0.2500728462
 H    2.2098909635    4.0561293847   -0.7480375192