20

 C    0.1120159181    1.5206440577   -0.0033374781
 C    0.0024533254    0.0186922471   -0.0416630273
 C    0.4314019128   -0.9773700114   -1.1182133354
 N   -0.1347926929   -1.9370965547   -0.0800927060
 C    0.4280069938   -1.0303738366    1.0425667897
 C   -0.9164517774   -1.0067205706    1.7693291883
 C   -1.2426351087   -0.8916880560    0.2747824160
 C   -2.5732161126   -1.0243887111   -0.4112450140
 O   -3.1265387950   -2.3052775044   -0.1643068923
 H    1.1575155881    1.8381724093   -0.0838269997
 H   -0.4394247940    1.9777389452   -0.8323599112
 H   -0.2901225740    1.9266113168    0.9313122138
 H   -0.1064778864   -0.9839092536   -2.0721382084
 H    1.5049188094   -1.1135338251   -1.2904882676
 H    1.4334474893   -1.2083227556    1.4301220463
 H   -1.2203325244   -1.9369817291    2.2549448922
 H   -1.1332634354   -0.1355132989    2.3923732086
 H   -3.2824135944   -0.2860045378   -0.0201957278
 H   -2.4628367233   -0.8326082212   -1.4918157050
 H   -2.4015410883   -2.9334452898   -0.2782157922