19

 C    0.1990373208    1.4521213806   -0.1777866197
 C   -0.0062239325   -0.0439331192   -0.0399276121
 O    0.6741423126   -0.6779100630   -1.1401515945
 C    0.6127122865   -2.0194528450   -1.1942434473
 N   -0.0141505516   -2.7073543740   -0.3380269373
 C    1.4143509904   -2.4888858193   -2.4146901823
 C    2.9200861453   -2.1686605512   -2.2620314195
 C    1.2007849205   -3.9153118837   -2.6588390220
 N    1.0420912212   -5.0455140742   -2.8393694695
 H    1.2620658292    1.7073646997   -0.1427999739
 H   -0.2127116546    1.8189546515   -1.1222661238
 H   -0.3060226934    1.9707660308    0.6422924695
 H    0.4006990962   -0.4335986665    0.8984832888
 H   -1.0643102379   -0.3218924699   -0.0739590119
 H    0.0425466738   -3.7028440203   -0.5441509728
 H    1.0305477373   -1.9380969697   -3.2818590234
 H    3.3406614862   -2.7031436520   -1.4067002311
 H    3.4659322850   -2.4651660729   -3.1602631069
 H    3.0423151847   -1.0962736616   -2.1050644603