23

 C    0.5713376106   -0.1117348941    1.3482737388
 C    0.0012378859   -0.2403028021   -0.0695108402
 C   -1.4182991106   -0.7972981084   -0.1286959901
 C   -1.8030919402   -1.5345853757   -1.3931328064
 C   -1.5420241714   -2.3024928557   -0.1180978636
 C   -2.4825414776    0.0419708194    0.6063426737
 C   -2.5396003103    1.4961366440    0.1085003198
 C   -3.8704333781   -0.5707887165    0.4894109199
 O   -4.3326793016   -1.3803160496    1.2522524218
 H    1.6148767120    0.2162492420    1.3182988122
 H    0.0169081026    0.6179942775    1.9469842946
 H    0.5340340758   -1.0703590373    1.8760629609
 H    0.0464291464    0.7321922034   -0.5750585371
 H    0.6459403743   -0.9074561393   -0.6544443887
 H   -2.8255127198   -1.4751787642   -1.7515265076
 H   -1.0684418561   -1.5922080798   -2.1895193540
 H   -0.6247634796   -2.8781196129   -0.0512992945
 H   -2.3866334839   -2.7513728537    0.3912360321
 H   -2.2442169596    0.0233612799    1.6762714369
 H   -2.7225145230    1.5339681480   -0.9709382751
 H   -3.3425415150    2.0498070905    0.6064851588
 H   -1.6048696541    2.0243925708    0.3087941571
 H   -4.4698693866   -0.2037233362   -0.3772144592