17

 O    0.0736783455    1.3861831202    0.0844256458
 C    0.0112889519    0.0009130901    0.0759771506
 C    0.7024423292   -0.7220736655    1.2760862951
 C    0.1938949828   -2.1856426863    1.1341589246
 C   -0.7111148461   -2.0851382092   -0.1086547503
 C   -1.3645283071   -0.7053138875    0.0384694134
 O    0.1743282931   -1.8914135207   -1.2634302471
 C    0.6203529674   -0.6162940343   -1.1789540653
 O    1.3581878948   -0.0841508544   -1.9616764804
 H    0.6596206489    1.6363926088   -0.6454302001
 H    1.7899747950   -0.6319927386    1.2300168139
 H    0.3654410670   -0.2484341443    2.2014395863
 H    0.9952165765   -2.9089816369    0.9713349453
 H   -0.3830895981   -2.5097232591    2.0043238073
 H   -1.3428161360   -2.9428923062   -0.3277179948
 H   -1.9389969700   -0.5908052400    0.9606262083
 H   -1.9731912248   -0.4199000962   -0.8224054127