21

 O    0.1353295315    1.1887141612   -0.3503794791
 C    0.0610524179   -0.1934267389   -0.0202787681
 C   -1.4035082100   -0.5768819635    0.0117209672
 C   -2.2015028570   -0.5938706714   -1.3239797240
 C   -2.7374232844   -2.0178491188   -0.9827054876
 C   -2.2907874932   -3.1697974659   -1.8848591470
 C   -0.8172103428   -3.3442659685   -1.4875211393
 O   -0.7404221475   -3.0166721579   -0.1013129916
 C   -1.7580671217   -2.0794626642    0.2288619821
 H    1.0636662963    1.4281863551   -0.4242074298
 H    0.5970121688   -0.8071876889   -0.7594212600
 H    0.5187078804   -0.3983640759    0.9608436093
 H   -1.9089060538    0.0424066755    0.7601052066
 H   -2.9585720275    0.1843314156   -1.4351336918
 H   -1.5612704942   -0.5707013430   -2.2115946473
 H   -3.7998707496   -2.0489407276   -0.7376052135
 H   -2.8565409444   -4.0776772377   -1.6510392160
 H   -2.4130988003   -2.9559785332   -2.9506713444
 H   -0.4467872068   -4.3662246069   -1.6095583201
 H   -0.1709157126   -2.6775774905   -2.0794260555
 H   -2.1373897091   -2.3457433047    1.2191014101