17

 O    0.0393507434   -0.0014764978   -0.1597666852
 C    0.0446862014    1.1873658996   -0.0286125227
 C   -1.0753131923    2.2616369343    0.0928728158
 C   -0.0423025598    3.3777530906   -0.2388357092
 C    0.5143004398    4.1653938256    0.9730133065
 C    1.5399574250    3.0314584420    1.2274171838
 C    2.8841127318    3.1055927091    0.4621547823
 O    2.3790633445    2.2920130030   -0.6327890904
 C    1.0932648077    2.2746363198   -0.0689383747
 H   -1.8523739665    2.1266889299   -0.6635666011
 H   -1.5499187210    2.3177459444    1.0762963244
 H   -0.2103118466    3.8922593714   -1.1840010119
 H    0.9754764405    5.1244358604    0.7204978376
 H   -0.2034440405    4.3344722644    1.7804688741
 H    1.5730599564    2.5532276740    2.2055429702
 H    3.1799299061    4.1060067592    0.1244543364
 H    3.7322788902    2.6174306100    0.9520736042