21

 C    0.0282772940    1.5063477251   -0.0143135529
 C    0.0197155516    0.0499110943   -0.0263218978
 C    0.0311628562   -1.1546967318   -0.0362464982
 C    0.0216250676   -2.6130337902   -0.0399788798
 C   -1.4038789385   -3.2102276724   -0.0249487467
 C   -2.1987393115   -2.8219266192   -1.2879427289
 C   -1.3404056332   -4.7355174662    0.0780038456
 C   -2.5309969797   -5.4239422444    0.7215034348
 O   -0.3900710917   -5.3604733027   -0.3359758444
 H    0.7879681762    1.8940664864    0.6736096230
 H    0.2446140221    1.9135427266   -1.0083191926
 H   -0.9397303468    1.9094848753    0.3037885739
 H    0.5520792469   -3.0016893419   -0.9164769391
 H    0.5760175094   -2.9901151965    0.8280704971
 H   -1.9433651327   -2.8249772349    0.8492610936
 H   -2.2382192095   -1.7336737817   -1.3793199731
 H   -1.7144890047   -3.2251254844   -2.1834666711
 H   -3.2246431218   -3.2005095587   -1.2558231186
 H   -3.4777851325   -5.0382780951    0.3306268707
 H   -2.4696008124   -6.5015874781    0.5652339434
 H   -2.5256905791   -5.2164386996    1.7986612211