15

 C   -0.1290914135    1.5379985512    0.0568999192
 C   -0.0223462817    0.0483834118   -0.0387706327
 C    0.2171805927   -0.6109772650   -1.1757902307
 O    0.3104321112   -1.9893278334   -1.2331821883
 C    0.1620713830   -2.7548715377   -0.1240029812
 O    0.2453005571   -3.9489967593   -0.1981457302
 C   -0.1125519030   -2.0518489779    1.1929127739
 N   -0.2677435856   -2.6804771517    2.2886456124
 N   -0.1845540926   -0.6777647065    1.1327369233
 H    0.6256736780    1.9446325768    0.7404387717
 H    0.0159820394    1.9972243480   -0.9222738772
 H   -1.1136413226    1.8397332672    0.4335544810
 H    0.3592290191   -0.1535648288   -2.1415013352
 H   -0.1749053140   -3.6797555401    2.1039293212
 H   -0.3668514876   -0.2050081145    2.0058200730