20

 C   -0.0312180787    1.4744669993    0.0885315230
 C    0.0064304482   -0.0545299115    0.0251463114
 C    1.0803522352   -0.7131113342   -0.9134203025
 C    1.4138678314   -1.7294832238    0.2091586406
 C    2.8708761387   -2.0513733902    0.4643036549
 O    2.9355953799   -2.8569842959    1.6302897494
 C    0.6815200799   -0.8129851880    1.2231177966
 C   -1.3279432376   -0.5829422846   -0.2530355831
 N   -2.3846902600   -0.9975973977   -0.4750941664
 H    0.9711090521    1.8603182818    0.2965190509
 H   -0.3761646657    1.9005685974   -0.8584610767
 H   -0.7038529042    1.8182005820    0.8800466269
 H    0.7316335448   -1.1009796195   -1.8715351287
 H    1.9002419842   -0.0096741244   -1.0903115317
 H    0.8608911380   -2.6628204680    0.0692901746
 H    3.2956062604   -2.5705789055   -0.4107769482
 H    3.4369135326   -1.1128659567    0.5944887525
 H    3.8576853467   -3.0656581067    1.8060532917
 H    1.3739785102   -0.1471713127    1.7470740389
 H    0.0199272838   -1.2818907211    1.9515474859