16

 O   -0.2140398373    0.0020614062    0.0138760222
 C   -0.0908964234    1.1985999558    0.0355021623
 C    1.2426450729    1.9229675939   -0.0353557993
 N    2.3717200249    1.0349497808   -0.1629501476
 C    3.2342750644    1.3046524379   -1.2059534387
 O    4.2567712311    0.7089427174   -1.4509392715
 C    2.6395610566    2.4654186489   -1.9652944062
 C    1.3043368049    2.1580287045   -2.6099150705
 C    1.3501201823    2.8344220030   -1.2685096132
 H   -0.9683789907    1.8782137666    0.1200289729
 H    1.3079608391    2.5438309735    0.8751247559
 H    2.4100048164    0.1526553218    0.3225419452
 H    3.3098616301    3.1856364340   -2.4144756081
 H    1.0216152441    2.7675368309   -3.4604145126
 H    0.9866044602    1.1217251458   -2.6685530923
 H    1.0275774542    3.8626210690   -1.1714798486