21

 C   -0.0435359315    1.5720738820   -0.1128290271
 C    0.0137960521    0.0852670828   -0.0014643350
 C    0.0080854785   -1.0344515144   -1.0155825345
 C    1.2609476871   -1.6709038240   -0.4161372006
 C    0.8944219206   -0.9066431996    0.8875065812
 C   -0.4172932374   -1.5657518582    1.3368556426
 C   -0.6396850483   -2.8623272851    2.0497999123
 C   -0.9882388008   -1.5395304135    2.7185441543
 C   -1.0580021572   -0.9793152906    0.1021731422
 H    0.9165155667    1.9924573050   -0.4355489234
 H   -0.7992439484    1.8752512336   -0.8462161049
 H   -0.3055879348    2.0386586385    0.8440971423
 H   -0.2838467817   -0.9779274256   -2.0574366848
 H    1.3247127611   -2.7630923184   -0.3512014917
 H    2.1680365662   -1.2736624791   -0.8810366944
 H    1.6556715323   -0.6239651608    1.6132847783
 H   -1.4572691986   -3.4992959978    1.7273263305
 H    0.2249441850   -3.4042092240    2.4214083401
 H   -0.3561108720   -1.2033922248    3.5349467436
 H   -2.0384177010   -1.2933871318    2.8429595786
 H   -2.1120673480   -0.8837529942   -0.1293551595