16

 N   -0.0498650532    1.0110932488   -0.9868454552
 C    0.0323380184    0.0603523406   -0.1268147390
 N   -1.2158899387   -0.4514634303    0.2806296113
 C   -1.6158902080   -1.6359611937    0.8457118981
 O   -2.7912572999   -1.8808283553    1.0278408245
 C   -0.5389122080   -2.6709863016    1.1570033457
 N    0.5526814253   -2.1843604237    1.9813980476
 C    1.4613096349   -1.2976043761    1.4838933295
 C    1.2690506800   -0.3906382680    0.5012504711
 H    0.8771729648    1.3718732718   -1.2052488413
 H   -1.9865113217    0.1096814998   -0.0627208650
 H   -1.0467914778   -3.4808262401    1.6789370886
 H   -0.1545449254   -3.0539729327    0.1969272834
 H    0.9025766078   -2.8430165697    2.6564286121
 H    2.4401834695   -1.3517096253    1.9527208473
 H    2.1390580920    0.1823316156    0.2027066115