17

 N   -0.1709241249    1.1176475902   -0.6117223277
 C   -0.0931807129   -0.0655250192   -0.1797471128
 O   -1.1933414512   -0.8492529976   -0.1666630145
 C   -0.9882255068   -2.2089135520    0.2365908018
 C   -2.3744611578   -2.8794387830    0.2875108222
 C   -2.3450290286   -3.8777699815   -0.8944911424
 C   -1.1189314997   -3.4188571480   -1.6936440397
 O   -0.2212343894   -2.9074270415   -0.7003475401
 H    0.7363306560    1.5729989136   -0.5325033326
 H    0.8043704817   -0.5600319357    0.2123358667
 H   -0.4326560008   -2.2195389943    1.1803754864
 H   -2.5334440515   -3.3788328808    1.2449263455
 H   -3.1441548165   -2.1152678518    0.1707309140
 H   -2.1970743043   -4.8992293745   -0.5336997853
 H   -3.2618844687   -3.8587469823   -1.4873007046
 H   -0.5999377125   -4.2204633611   -2.2227054679
 H   -1.3788708121   -2.6288990505   -2.4104187292