21

 C    0.0044508063    1.5298165051   -0.0953851683
 C   -0.0229141171   -0.0011140480   -0.0168962354
 C    0.8335825492   -0.6153229262   -1.1239433687
 C    1.5810533754   -1.6178292463   -0.6231848874
 C    2.9918432298   -1.2414300455   -0.1510793025
 C    2.2286596209   -1.0286770653    1.2102592397
 C    1.1361035439   -1.9807319208    0.8041010974
 C    0.6837688121   -0.6260076663    1.2158133875
 C    0.1059267755   -0.3675950639    2.5901883608
 H    1.0334621549    1.9036705409   -0.1264904536
 H   -0.5150594090    1.8896075570   -0.9893353792
 H   -0.4879465279    1.9711584610    0.7771313982
 H   -1.0761192951   -0.3240996769    0.0054773181
 H    1.1904972345    0.0196561019   -1.9320229308
 H    3.7090238607   -2.0616075394   -0.0246182139
 H    3.4719361527   -0.3942348926   -0.6495557586
 H    2.7393190083   -1.0177471251    2.1707411388
 H    0.8692353507   -2.9518128335    1.2021795510
 H    0.5842815706   -0.9868311483    3.3549474096
 H    0.2247852191    0.6798122852    2.8890141730
 H   -0.9668314454   -0.5953366831    2.6034803041