19

 C   -0.0140910970    1.4430714876   -0.0725554823
 O    0.1726370699    0.0456615588    0.0861796704
 C    0.6117266562   -0.6195301683   -1.0667117063
 C    1.1631920973   -2.0076696278   -0.7352902974
 C    1.0403414747   -2.7939131010   -2.0473747323
 O    1.1131944990   -4.1790199261   -1.7656873821
 C   -0.3068468986   -2.3285610235   -2.6328737325
 C   -0.5011451931   -0.9056301863   -2.1061586817
 O   -1.3791646407   -0.1426923061   -2.4168383775
 H    0.9183965367    1.9308172757   -0.3982387756
 H   -0.8046021290    1.6674688645   -0.7948976836
 H   -0.2917213038    1.8342928415    0.9090132321
 H    1.3824158275   -0.0216242047   -1.5909717480
 H    2.1809354338   -1.9894403035   -0.3424771320
 H    0.5151537225   -2.4748315372    0.0149759741
 H    1.8566376377   -2.4981116927   -2.7259930786
 H    1.1042189633   -4.6584032965   -2.6001431446
 H   -0.3928319760   -2.3754093225   -3.7216986177
 H   -1.1067891303   -2.9501266418   -2.2090677245