15

 O   -0.0660653497   -0.0110163013    0.0288038033
 C    0.0216400659    1.1838620931   -0.0924449430
 C    1.2784105408    1.9459115167   -0.0820818048
 C    1.3906509016    3.3857461730    0.3729941046
 C    1.7792754902    3.0385239035   -1.0292513031
 C    3.0895904024    2.2338710150   -1.0146595333
 O    2.5429393948    1.3006631143   -0.0264149121
 C    3.4275375727    1.5816372144   -2.2655883060
 C    3.7122814380    1.0635224499   -3.3111695001
 H   -0.8731102622    1.8369178889   -0.2207141470
 H    0.4549225011    3.9276414416    0.4690227368
 H    2.1428153504    3.6134974240    1.1222887639
 H    1.3093654198    3.4460105359   -1.9131842088
 H    3.9587481644    2.7629772912   -0.6060360280
 H    3.9658972597    0.5933299097   -4.2295255324