15

 C    0.0394020548    1.3748446411   -0.1317844311
 C    1.5083814589    1.8327881061    0.0810757275
 C    2.1225072058    0.5885847441    0.6655086295
 N    3.3437281301    0.3962661241    1.1146023280
 C    3.5927657254   -0.8542220221    1.5599146994
 C    2.6309650925   -1.8535551585    1.5354508284
 N    1.3781478702   -1.6607334552    1.0757665650
 C    1.1597973529   -0.4357482507    0.6545632555
 O   -0.0308050372   -0.0487802876    0.1584385452
 H   -0.6537926528    1.8807214525    0.5463907765
 H   -0.3100992796    1.5144259788   -1.1566417914
 H    1.9934567250    2.1132456833   -0.8595235048
 H    1.5815269606    2.6915342704    0.7536551353
 H    4.5896635466   -1.0500124953    1.9408764515
 H    2.8629501768   -2.8514691009    1.8965139357