17

 C    0.0709521622    1.2072523032   -0.2055347385
 O   -0.1912096942    0.0763023791    0.6360235224
 C   -1.2711670962   -0.6481985947    0.2955540500
 C   -1.3826850705   -1.9520424534   -0.0702477722
 O   -0.3928260995   -2.8663326722   -0.2619460117
 C   -2.7849519554   -2.2101229045   -0.2157143137
 C   -3.4237847740   -1.0421537526    0.0669630772
 C   -4.8548722506   -0.6438889267    0.0825274168
 O   -2.5120288927   -0.0746182404    0.3919528709
 H    0.9946456435    1.6578267631    0.1616288274
 H    0.1967727110    0.8939933463   -1.2488088618
 H   -0.7434739312    1.9356229075   -0.1411121117
 H    0.4422691714   -2.4461499143   -0.0261272639
 H   -3.2413630530   -3.1456425050   -0.4976838657
 H   -5.1670847615   -0.2935973611    1.0732833392
 H   -5.0582937837    0.1654606038   -0.6286527867
 H   -5.4775455955   -1.4994728082   -0.1885322980