19

 C    0.4813508829    1.4041546074   -0.0172873354
 C    0.0860590251   -0.0420157113   -0.1433690960
 C   -0.0677360266   -0.6404612591   -1.3406694775
 C   -0.4035727185   -2.0441538305   -1.5221519373
 C    0.0644563001   -3.0405819826   -0.7514759161
 C    1.0972277591   -2.8631512724    0.3249911800
 C    0.7356885567   -1.9382681173    1.4958510599
 O    1.1581358711   -2.1179666746    2.6079075774
 C   -0.1964166231   -0.7715998324    1.1487890981
 H    1.4065335640    1.5100796416    0.5639974321
 H    0.6398095711    1.8663462652   -0.9949446865
 H   -0.2850911796    1.9805860502    0.5162964854
 H    0.0335423855   -0.0347504218   -2.2395500350
 H   -1.0557556076   -2.2929573741   -2.3571760373
 H   -0.2670462654   -4.0571855909   -0.9426173857
 H    1.4290782615   -3.8148420392    0.7439853184
 H    1.9842319856   -2.3779894847   -0.1144820111
 H   -0.2102465184   -0.0947132501    2.0052942847
 H   -1.1882482634   -1.2442741335    1.0748284119