16

 C   -0.0991021112    1.3303399904    0.1520247711
 N   -0.0124963379   -0.1112714618    0.0156390331
 C    0.6091843171   -0.5798329718   -1.0012496249
 N    1.2402554008    0.0793206308   -2.0049991371
 C    0.7123931561   -2.0933082580   -1.1576054139
 O    1.2543937773   -2.5922428110   -2.1167252648
 N    0.1214662140   -2.7566465639   -0.1009326629
 C    0.0152776898   -4.1263579601    0.1010552810
 O    0.4336752804   -4.9874741706   -0.6230540038
 H    0.8956429822    1.8004680078    0.1931813662
 H   -0.6477352783    1.7922420166   -0.6844512149
 H   -0.6291738991    1.5820081205    1.0729893349
 H    1.1102979279    1.0647636484   -2.1451372963
 H    1.5808236443   -0.4883203813   -2.7664167719
 H   -0.2769452706   -2.1164994560    0.5821676290
 H   -0.5225904727   -4.3313435901    1.0481730752