14

 O   -0.0813494228   -0.0353251961    0.0846166135
 C   -0.0240107767    1.1698815327    0.0031149116
 C    1.2427899030    1.9138548095    0.0083668699
 C    1.3877539361    3.2362189351   -0.0904383917
 C    2.8613668670    3.5746855498   -0.0652516099
 O    3.5245455282    2.3458414807    0.1782311641
 C    2.5927797022    1.2571366267    0.1104057380
 C    3.2972949572    4.1826033047   -1.3446459481
 N    3.6236762883    4.6679556846   -2.3407397319
 H   -0.9379906907    1.7947672166   -0.0814784396
 H    0.6101977288    3.9811896966   -0.1981684054
 H    3.1112831567    4.2850213847    0.7363926722
 H    2.6980218655    0.6426063213    1.0112964100
 H    2.8040816873    0.6195239230   -0.7583693827