20

 C   -0.3660049466    1.4204703472   -0.1640654392
 C    0.1517699012   -0.0188130734   -0.0018219717
 C    0.9089713087   -0.5076860531   -1.1883832630
 N    2.1540931538   -0.8504315499   -1.2686710799
 C    2.3440365533   -1.2178785492   -2.6034227037
 C    3.6738111232   -1.6826045693   -3.0946944605
 C    1.1706000418   -1.0696624935   -3.2699392050
 C    0.7135376691   -1.2821912995   -4.6660503030
 O    0.2377398476   -0.6118361477   -2.3659408003
 H    0.4632593153    2.1203620781   -0.3033163117
 H   -1.0274936275    1.5016133765   -1.0309339899
 H   -0.9266916830    1.7276895374    0.7233881401
 H    0.8238795598   -0.0935785095    0.8562941703
 H   -0.6948951849   -0.6908332716    0.1863675919
 H    4.0030564595   -2.5731455107   -2.5483668520
 H    3.6447626295   -1.9278843902   -4.1595077594
 H    4.4376660148   -0.9122659267   -2.9428171250
 H   -0.0979433993   -2.0173174552   -4.7179524514
 H    0.3431741856   -0.3536358148   -5.1158919900
 H    1.5406626582   -1.6478316050   -5.2784829368