19

 O   -0.1312209150   -0.0221366961    0.0435752604
 C   -0.0184201189    1.1817231993    0.0356143243
 C    1.2611951743    1.9129487029    0.0042562748
 C    2.7081859384    1.3208288714   -0.0244655068
 C    2.9824809763    2.1171904773   -1.3255171468
 C    1.6999229523    2.9605013267   -1.1085564437
 C    1.8487658767    4.0483261365   -0.0191471371
 C    1.7478403656    2.9713380383    1.0864144684
 C    3.0388091339    2.1298831178    1.2554984096
 H   -0.9216701317    1.8377258479    0.0523670744
 H    2.9183641710    0.2525376874   -0.0237997716
 H    3.9309880482    2.6596995548   -1.3982276953
 H    2.8764872789    1.4741108081   -2.2038103940
 H    1.0946511307    3.1965697797   -1.9843504334
 H    2.7513272304    4.6682321798   -0.0419079821
 H    0.9757985077    4.7078903679   -0.0033778269
 H    1.1813463400    3.2161910246    1.9854312384
 H    2.9713838839    1.4954774376    2.1438509794
 H    3.9894699674    2.6728701379    1.2814105979