18

 C   -0.1260196094    1.5143471764    0.0764520951
 C    1.4196817996    1.3094558240    0.0959364260
 C    1.1663342532    0.1518024475    1.1117703274
 C    0.0824563361   -0.0292638534    0.0033089934
 C    1.1922143906    0.2745608567   -1.0357930612
 C    0.8941257098    0.6736606527   -2.5011521250
 N    1.7837002794   -0.1580735378   -3.3279314878
 C    2.4358413916   -0.8663522137   -2.5049108515
 O    2.2172906625   -0.7396135129   -1.1767634897
 H   -0.5604994498    1.8839405238    1.0072499294
 H   -0.5646787080    2.0125060174   -0.7904985357
 H    2.1919972444    2.0787207223    0.1345169683
 H    1.9323150097   -0.6184706734    1.1861647136
 H    0.7938850491    0.4559411368    2.0930576029
 H   -0.6849193480   -0.8014216820   -0.0647644697
 H   -0.1491547938    0.4872386713   -2.7791772239
 H    1.0959793256    1.7333377633   -2.6930774672
 H    3.1894821774   -1.6012032491   -2.7667262346