14

 O    0.1768044357    1.4670385609   -0.0438586570
 C    0.0340999773    0.0708880424    0.0027197007
 C    0.5920389554   -0.5653728100   -1.2204750010
 N    1.0164844606   -1.0651405949   -2.1717267103
 C    0.6806596440   -0.5301787736    1.2319696528
 N    1.5352467602    0.2217091447    1.9161485037
 N    1.9546519072   -0.5694387718    2.9176209496
 C    1.3894546946   -1.7997104853    2.8871082073
 C    0.5478432590   -1.8171113728    1.7955741707
 H    0.9773947988    1.6790362266    0.4570959095
 H   -1.0406022326   -0.1524221810    0.0102177420
 H    2.6106061235   -0.2045367138    3.5875670440
 H    1.6220142422   -2.5484899662    3.6274882389
 H   -0.0635468758   -2.6361589352    1.4545220491