18

 N    0.5375920582    0.0130507763   -0.6685343889
 C   -0.2509845711    0.1685447953    0.4281504247
 O   -0.1425721056    1.0931882479    1.2096681900
 C   -1.3491476720   -0.8947779609    0.5950413198
 C   -0.9916455985   -2.2881237007    0.1662894072
 C    0.2234458957   -3.1805489702    0.5502054960
 C   -0.5285097574   -3.8380988593   -0.6252532578
 C   -1.8740696870   -3.5632852057    0.0825133077
 O   -0.6386519906   -2.5089830180   -1.2781894523
 H    1.2577289250    0.6974323123   -0.8309844387
 H    0.4462440479   -0.7922677131   -1.2724940286
 H   -1.6311428075   -0.8938316610    1.6508378130
 H   -2.2264424424   -0.5644294019    0.0248714190
 H    1.2032451866   -2.7656856322    0.3133718061
 H    0.1961713797   -3.6816964723    1.5205058420
 H   -0.2356783327   -4.6759745016   -1.2563044778
 H   -2.0855383855   -4.0980635218    1.0112819272
 H   -2.7397810528   -3.4848932030   -0.5761236886