19

 C   -0.0378650398    1.5214100462    0.2084710044
 C   -0.2687788233    0.0505286615   -0.1240020494
 N    0.8748645673   -0.5015587953   -0.8477310191
 C    0.7837604891   -1.8906734786   -1.1682377694
 C   -0.0718505440   -2.4508695770   -2.3465205851
 O    1.0650547212   -3.1985551770   -2.8448881114
 C    1.9713954990   -2.5327573880   -1.9518111450
 C    2.8340936229   -1.5690671136   -2.6482239258
 N    3.4900917930   -0.7922839015   -3.1982084115
 H    0.8773799251    1.6438753418    0.7939241903
 H    0.0616072540    2.1199639785   -0.7040592244
 H   -0.8786308163    1.9250429772    0.7797535703
 H   -0.3845239686   -0.5271214277    0.8022903377
 H   -1.2184402018   -0.0583659284   -0.6785703333
 H    1.0785408304    0.0530418545   -1.6739408399
 H    0.5955706326   -2.4523709519   -0.2486549017
 H   -0.9108597378   -3.1100898250   -2.1040260399
 H   -0.3978646903   -1.6835354429   -3.0614580135
 H    2.5987699074   -3.2376960229   -1.3965376630