20

 C   -0.0377879334    1.5693292954   -0.0234235079
 C    0.0469813360    0.0425179000   -0.0123587951
 C    0.6929766277   -0.5286394239   -1.2846021930
 C    0.7939569377   -2.0535616712   -1.2093976694
 O    1.4948639009   -2.4785725157   -0.0494220427
 C    0.8730035964   -2.0568054334    1.1386980933
 C    0.7926234063   -0.5148940941    1.2336747475
 C    2.1323913618    0.0647351626    1.3716052166
 N    3.1842160781    0.5311250462    1.4833799523
 H    0.9579872988    2.0198866575   -0.0816197163
 H   -0.6159333299    1.9147661782   -0.8862061775
 H   -0.5252132714    1.9476824807    0.8814841802
 H   -0.9728579795   -0.3618256001    0.0597289657
 H    0.1065517769   -0.2416106063   -2.1649462699
 H    1.6970983496   -0.1055664477   -1.4088408815
 H   -0.2162816771   -2.4988883180   -1.2173988578
 H    1.3470903410   -2.4579775519   -2.0610015254
 H   -0.1548836082   -2.4523872740    1.2078272671
 H    1.4581535903   -2.4684591471    1.9646072810
 H    0.2292027982   -0.2519046172    2.1379941729