15

 C   -0.0932463397    1.3613850615   -0.1364947317
 C    1.2973554769    0.8322794214    0.0996043246
 C    0.1100476935   -0.1255095988    0.1310714340
 C    0.7028236687   -0.7327864648   -1.1237493520
 C    0.5517694463   -1.2045566494   -2.4063141425
 C    1.6192502211   -0.6079564078   -3.1577893430
 C    2.3202413562    0.2632306593   -2.3436878322
 N    1.7966763575    0.1092691305   -1.0824211690
 H   -0.5172716236    1.9406482649    0.6807505571
 H   -0.3796177881    1.6929926706   -1.1294445475
 H    1.9622117938    1.1502089767    0.8916169653
 H   -0.3163795117   -0.6326825599    0.9851712499
 H   -0.1914193614   -1.8906303506   -2.7818371743
 H    1.8729908476   -0.8381758575   -4.1830062979
 H    3.1928920029    0.8643547741   -2.5446270008