14

 C   -0.4301432696   -1.1151689931   -0.5096796143
 C   -0.1167122327    0.0076305382   -0.2165081634
 C    0.2468371239    1.3672578464    0.1432339589
 C   -0.1376704183    1.8481630214    1.5674217412
 C    1.3918375851    1.9889264412    1.7870114332
 O    1.6612572891    1.5281377890    0.4353784750
 C    1.9017405623    3.3226836407    2.0540014569
 C    2.3139379184    4.4281127847    2.2841876437
 H   -0.7020292519   -2.1072770722   -0.7743494401
 H   -0.0570077576    2.0566122536   -0.6541355318
 H   -0.6941519313    2.7836300176    1.5996533585
 H   -0.6219130762    1.0975424076    2.1902304679
 H    1.8014116517    1.2811632322    2.5182030175
 H    2.6853433271    5.4027523428    2.4851498167