10

 O    0.0043512403   -0.0388141901    0.0027304461
 C   -0.0399760670    1.1678081505    0.0063983125
 C    1.1869039075    1.9778342385    0.0006894571
 N    2.1734783708    2.5795247913   -0.0040424681
 C   -1.3145464063    1.9081644652    0.0168384307
 N   -1.3903741258    3.2172205864    0.0210673526
 O   -2.7052224036    3.5075624721    0.0304469671
 N   -3.4806532350    2.3672917794    0.0322682478
 C   -2.6366615682    1.3773230044    0.0239763326
 H   -2.9613996428    0.3493128223    0.0231750018