19

 C    0.0229554965    1.4898228432    0.0040760925
 C    0.0217421042   -0.0123375035   -0.0186993352
 C    0.5287575687   -0.9553978031   -1.1629656700
 C    0.0301085197   -1.8980926417   -0.0315031133
 O    0.0691896058   -3.2816408347    0.0483229414
 C    0.7392659047   -0.9638671201    0.9836761641
 O    2.1437102061   -0.8808073061    0.9785073996
 C   -1.2078095015   -0.9564487050    0.0863584840
 O   -1.9407823516   -0.8986930707    1.2859532641
 H    1.0468674954    1.8760249424   -0.0165746888
 H   -0.5130207553    1.8995819839   -0.8585724325
 H   -0.4627065158    1.8617355926    0.9121843580
 H   -0.0528358432   -0.9453935865   -2.0903696974
 H    1.6014596992   -0.9464450584   -1.3416884493
 H   -0.2476552615   -3.6475819582   -0.7845258423
 H    0.3333475882   -0.9720397990    1.9982052648
 H    2.4853751252   -1.6434786487    1.4554330390
 H   -1.8687455018   -0.9422021972   -0.7921363246
 H   -2.3222459930   -1.7690826289    1.4412532859