17

 C   -0.2842612013    1.4918585138   -0.1280502305
 O   -0.2223003910    0.2060945974    0.4726371244
 C   -1.2820965328   -0.6218668098    0.1173287918
 C   -1.2569434823   -1.3607843758   -1.2524513880
 O   -0.9552891285   -1.0318910415   -2.3623021489
 C   -1.6143301184   -2.7059581624   -0.5849875098
 C   -1.2985622769   -2.0190144902    0.7536816384
 C   -0.4782231073   -2.4843953829    1.8678067053
 O   -1.9029469228   -2.3156293475    1.9904898053
 H    0.5806094951    2.0513516630    0.2339679006
 H   -0.2447428883    1.4257248743   -1.2213603407
 H   -1.2034858846    2.0212514223    0.1650763801
 H   -2.2618833158   -0.1277199248    0.2552444017
 H   -2.6732802450   -2.9631226139   -0.6973582630
 H   -1.0058142621   -3.5639738065   -0.8784716614
 H   -0.1294791965   -3.5156724185    1.8840807080
 H    0.1236685083   -1.7658972770    2.4192476267