21

 C    0.7165724389   -5.2287340818    3.7825682777
 C    0.4723096382   -4.5901344704    2.4962392376
 C    0.2855767068   -4.0777520805    1.4215364597
 C    0.0327297799   -3.4242798114    0.1376916877
 C   -1.4522542465   -3.2788214294   -0.1990333094
 C   -2.2951243731   -2.6682213223    0.9083311956
 O   -1.7540299018   -1.4568328607    1.4183262665
 C   -1.7966571950   -2.9650256596   -1.6317200099
 C   -2.1120545921   -4.3271215227   -1.0572459017
 H    1.3025809678   -4.5829592997    4.4459123756
 H   -0.2221958348   -5.4650996793    4.2955938000
 H    1.2704901032   -6.1661069886    3.6604767624
 H    0.4838887078   -2.4235010469    0.1502382372
 H    0.5354075803   -3.9746303044   -0.6670908371
 H   -3.2905601852   -2.4265424468    0.5195803875
 H   -2.4251027571   -3.4038541643    1.7146380949
 H   -1.0550691904   -1.6986458497    2.0346603152
 H   -2.6188173670   -2.2830148559   -1.8209064038
 H   -0.9863645820   -2.8905508661   -2.3500429194
 H   -1.5167326655   -5.1739216903   -1.3822344651
 H   -3.1513515024   -4.5700959792   -0.8585358011