18

 N   -0.4474070352   -0.7097981658   -1.0282171880
 C   -0.2748934409    0.3079571756   -0.5071737609
 C   -0.0428702091    1.5937398258    0.1394610984
 C   -0.3670722231    1.5997713563    1.6679262422
 C    0.6784949785    2.5372784269    2.2236861113
 C    1.6404068207    2.7972559408    1.3394747735
 C    1.4144211033    2.1141175445    0.0397298385
 C    2.5277509222    1.3455844921   -0.6440423342
 C    1.9900126272    2.6072935851   -1.2643468782
 H   -0.6944415715    2.3276193951   -0.3494425490
 H   -1.3949535517    1.9254802542    1.8546210475
 H   -0.2706003274    0.5963386138    2.1012256091
 H    0.6457185567    2.9006778636    3.2437139224
 H    2.5182692782    3.4082705681    1.5178995158
 H    3.5088006101    1.3724469953   -0.1822123805
 H    2.2736337377    0.3991812978   -1.1090232660
 H    1.3734391207    2.5092653676   -2.1525026385
 H    2.6028432535    3.5024989130   -1.2433896035