19

 O    0.1164879215    1.3424578626    0.0028526730
 C    0.0750901204   -0.0604173610   -0.0765233612
 C   -1.3844650152   -0.5378485896   -0.1874835298
 C   -1.2226545066   -2.0037939780   -0.6799018615
 C   -0.6876299878   -1.3033069001   -1.9619032544
 C   -1.7290040262   -0.1842853174   -1.6620200683
 C    0.6198267659   -0.6795892333   -1.4261719172
 C    1.3182359841    0.2676446823   -2.3654678603
 O    1.9593516234    1.2362315482   -2.0239826737
 H    0.9586687699    1.6318659588   -0.3763118263
 H    0.5803948312   -0.5153085506    0.7880950203
 H   -2.0359014048   -0.2657312438    0.6420154085
 H   -0.5446259582   -2.6673035673   -0.1332396862
 H   -2.1831228406   -2.4979108861   -0.8399697407
 H   -0.6365202219   -1.8120330213   -2.9261107035
 H   -2.7435849616   -0.4783003482   -1.9380195581
 H   -1.5195640415    0.8341908347   -1.9961414391
 H    1.3630096747   -1.4645673529   -1.2200792473
 H    1.2487599333   -0.0009983871   -3.4437584242