12

 O    0.1140276850    1.3625542614    0.0229332398
 C    0.0780849483    0.0246344790   -0.0165079612
 C    0.0231245822   -0.7645975759   -1.1608042404
 N    0.0046627106   -2.0618262229   -0.6569833898
 C    0.0468608815   -1.9842788541    0.6821768269
 N    0.0925369372   -0.7273665581    1.1109759216
 C   -0.0125656221   -0.5028870789   -2.5730321654
 O   -0.0612497106   -1.3859106506   -3.4138987449
 H    0.1486405891    1.6122169645    0.9560321502
 H   -0.0341959451   -2.8778040249   -1.2475072098
 H    0.0434390650   -2.8549291128    1.3205548019
 H    0.0065764088    0.5697661032   -2.8496509990