15

 O   -0.0766319479   -0.0512538288    0.0033621116
 C   -0.0208690376    1.1556879174    0.0089929294
 C   -1.2486278642    2.1042822539    0.0325016043
 C   -0.6952166640    3.5489360436    0.0318127859
 N    0.7550909579    3.3436569754    0.0095067641
 C    1.8686429612    4.1003356243   -0.0028023063
 N    2.9666610130    3.3484152617   -0.0229927956
 C    2.5330211977    2.0559907680   -0.0236225850
 C    1.1506884326    2.0219707463   -0.0035176171
 H   -1.8758777194    1.8977649423   -0.8383954474
 H   -1.8493309499    1.8884732247    0.9197152209
 H   -1.0093712643    4.1204451680   -0.8457639487
 H   -0.9834472172    4.1114032234    0.9240033559
 H    1.8513014222    5.1800995441    0.0033204422
 H    3.2209893000    1.2249351357   -0.0382360743