19

 C    0.0858282905    1.1884920713   -0.3080394120
 O   -0.0478892981   -0.1235995072    0.2141502209
 C   -1.3345374179   -0.6548104743    0.0820431497
 C   -2.3593682771    0.0224686999    0.8436662174
 C   -3.1989498142    0.6056809092    1.4777276205
 C   -1.7960797368   -1.2666520636   -1.2297992294
 C   -0.5994197348   -1.8605999119   -1.9844939012
 C   -0.2715420717   -2.7528374984   -0.7454739469
 C   -1.4740916242   -2.1497144944   -0.0103550032
 H    1.1358358855    1.4658040748   -0.1932343716
 H   -0.1859414473    1.2275950697   -1.3720224050
 H   -0.5400596352    1.9039602280    0.2405670163
 H   -3.9398570289    1.1132382324    2.0442920023
 H   -2.7565973058   -1.0030681478   -1.6555984221
 H   -0.9121302426   -2.4510068932   -2.8480932039
 H    0.1722255022   -1.1542814552   -2.3005880901
 H   -0.4072576796   -3.8160588657   -0.9531387044
 H    0.6992123562   -2.5976220193   -0.2712018666
 H   -2.1441588503   -2.6754757342    0.6587040892