22

 C   -0.3444553166    1.5178998617    0.7811466891
 C   -0.1361474962    0.2912093343   -0.1143889818
 C   -1.3369414357   -0.6344846313   -0.1109017473
 C   -1.2848345310   -2.0808377149   -0.5019241175
 C   -0.0197645315   -2.7849847697   -0.9449880114
 C   -1.5612254812   -1.7090603543    0.9587111114
 C   -0.5604976597   -1.9670946396    2.0376900993
 N   -1.1149629963   -2.3207578179    3.2400945601
 O    0.6509778927   -1.8658696639    1.9116917054
 H    0.5156199165    2.1926695080    0.7294940720
 H   -1.2330423674    2.0868088926    0.4833659396
 H   -0.4729167207    1.2212089703    1.8270980904
 H    0.0405065328    0.6186344782   -1.1476597476
 H    0.7542841956   -0.2462422806    0.2133045653
 H   -2.2605936489   -0.1250440631   -0.3817139342
 H   -2.1753721626   -2.4413772682   -1.0123736266
 H    0.8370457189   -2.5073002534   -0.3321623674
 H   -0.1434128068   -3.8710599851   -0.8725739418
 H    0.1986821730   -2.5466424728   -1.9919693973
 H   -2.5924870751   -1.8311263308    1.2772858456
 H   -2.0901098901   -2.5405867716    3.3376986806
 H   -0.4851843297   -2.5922347081    3.9773495639