18

 N   -0.0660569076    1.4829092811   -0.0672101359
 C   -0.0332715448    0.0211983497   -0.0527086462
 C    0.8968669834   -0.4106189339    1.1142634013
 O    0.4681891066    0.1105593941    2.3544285319
 C   -1.3713979064   -0.5630021655    0.2079548752
 N   -2.4153710591   -0.9984263652    0.4511338254
 C    0.5170382239   -0.5437647798   -1.3658891164
 C    0.3016029444    0.1459903298   -2.6580304990
 N    1.6323101811    0.1406721089   -2.0230731445
 H   -0.9048285218    1.8283085319   -0.5208663390
 H   -0.0857457310    1.8067088631    0.8964740819
 H    0.9791591798   -1.5045895906    1.1278893123
 H    1.8864229611    0.0119304953    0.9220189044
 H   -0.3376160059   -0.3517570026    2.6143044510
 H    0.5921743792   -1.6291170074   -1.3637889636
 H    0.2183677314   -0.4393138581   -3.5686066103
 H   -0.2561318540    1.0778323472   -2.6623467893
 H    1.7557344498    1.0420636221   -1.5607708790