21

 C   -0.0466219535    1.5422586024   -0.3231870816
 C   -0.0540385738    0.0603138390   -0.0236991492
 O   -1.3125992080   -0.5418550391   -0.2100962438
 C    1.1604492782   -0.7944284030   -0.2943486794
 C    0.7039308914   -0.5345429355    1.1324828974
 C    1.4943244429    0.2586172119    2.1462664478
 C    2.8649372307    0.7755454690    1.7678096377
 C    0.7566603176    0.9027807788    3.2485745699
 O    1.4527334442   -0.3247207830    3.4632049306
 H    0.9304966217    1.9961490835   -0.1422266403
 H   -0.3018002309    1.7203930438   -1.3752576454
 H   -0.7879387200    2.0603795893    0.2933522086
 H   -1.5095238912   -0.5243026985   -1.1537584289
 H    0.9975706065   -1.7895445757   -0.6928608552
 H    2.0631275724   -0.3046447380   -0.6447048137
 H    0.1775476334   -1.3609913242    1.5988611604
 H    2.8240560842    1.4761530147    0.9277780501
 H    3.3186651134    1.2881136363    2.6192304810
 H    3.5171748921   -0.0547047098    1.4783842551
 H    1.1783676246    1.7751700944    3.7480158689
 H   -0.3302987957    0.8344747038    3.2766728100