23

 C    0.1536684910    1.5895541506    0.0424836785
 C    0.0378593812    0.0663453766   -0.0617807895
 C    0.6503672927   -0.5570309994   -1.3321844554
 C    0.4934586126   -2.0842832616   -1.2735259529
 C    0.0014297830    0.0023741827   -2.6079146018
 O    2.0433600717   -0.1950154854   -1.2558581232
 C    2.8944608740   -0.5611955532   -2.3090571761
 C    4.2962920864   -0.0987710101   -1.9440046208
 O    5.2557848678   -0.2543049673   -2.6511966974
 H    1.1951206480    1.9044380014   -0.0573235929
 H   -0.4316191036    2.0999123324   -0.7286472706
 H   -0.2154729174    1.9338138121    1.0132969966
 H    0.5395455892   -0.3926301767    0.7980946887
 H   -1.0149697610   -0.2350100732   -0.0084474545
 H   -0.5653138337   -2.3545497903   -1.2166321895
 H    0.9058918160   -2.5735871888   -2.1610877767
 H    0.9990685955   -2.4860442615   -0.3905381669
 H    0.2207012929    1.0662757126   -2.7281203208
 H    0.3481292109   -0.5222420925   -3.5031833025
 H   -1.0849510650   -0.1199628901   -2.5600643867
 H    2.9309413216   -1.6485487182   -2.4794076303
 H    2.6210929386   -0.0940821181   -3.2677299244
 H    4.3543429980    0.4014350180   -0.9520321010