17

 O    0.1475251805   -0.0219146385    0.2076174378
 C    0.1238721447    1.1748000875    0.3654555085
 C    1.2945922046    2.0566933233    0.1345009017
 C    1.0483942461    3.4699652553   -0.3815677272
 C    1.5275334406    3.2864013466    1.0149943281
 N    0.6014831881    3.5545209274    2.0784484824
 C    0.9679190477    2.9117936452    3.3387174391
 C    0.0352043910    3.2848927864    4.4044832439
 N   -0.6870861345    3.6017058027    5.2479262511
 H   -0.7968875228    1.6998539614    0.6964472647
 H    2.1774358746    1.5347042066   -0.2168651881
 H    1.7309382034    3.8562288391   -1.1287785468
 H    0.0112451824    3.7628587664   -0.5062343262
 H    2.5837356824    3.4968576415    1.2064610200
 H    0.4957252413    4.5545828113    2.2134716857
 H    0.9311686973    1.8240295769    3.2045420644
 H    1.9903717225    3.1515022707    3.6810790008