20

 C   -0.1377561123    1.5699375537    0.0896919757
 C    0.0679577139    0.0608403059    0.0438896164
 C    1.1237769329   -0.5418337274   -0.9490529757
 C    1.7993023216   -1.2642147562    0.2263131749
 C    2.3251336722   -2.6618954443    0.1877679642
 O    3.5529937194   -2.6640016852   -0.5353391971
 C    2.2636973958   -0.2479594818    1.2313049993
 C    0.8071193545   -0.6271287513    1.2054526003
 H    0.8042469930    2.1012691707    0.2598224636
 H   -0.5591435023    1.9367558267   -0.8529880120
 H   -0.8271069110    1.8496214849    0.8943124830
 H   -0.8974360777   -0.4295350527   -0.1179459515
 H    0.6776167172   -1.2217716827   -1.6793281034
 H    1.7539740122    0.1760407999   -1.4840877755
 H    2.4682083085   -3.0282080783    1.2181574852
 H    1.5886725836   -3.3253515442   -0.2953361120
 H    3.8260492151   -3.5787872548   -0.6541390504
 H    2.8275100998   -0.6498853150    2.0675106996
 H    2.5970799904    0.7349350009    0.9078777177
 H    0.3288396532   -1.0748336489    2.0701325778