21

 C    0.0647040239    1.5044203178    0.1818829500
 C   -0.0365860912   -0.0174139522    0.0095018714
 O   -1.3970246658   -0.4243778904   -0.1560555802
 C    0.7216449417   -0.5146234214   -1.1983083571
 C    1.9190314830   -1.0920958826   -1.1024030589
 C    2.6787383320   -1.5763385704   -2.3086841360
 C    1.7397260046   -1.6632684793   -3.5139629109
 O    0.9617203647   -0.4863272673   -3.6347606974
 C    0.0678396687   -0.3211580052   -2.5496874422
 H    1.1057466593    1.8077207809    0.3250596798
 H   -0.3346009143    2.0292973339   -0.6907043450
 H   -0.5031924960    1.8275499755    1.0632363316
 H    0.3930494757   -0.4938526792    0.9050920222
 H   -1.9204935353    0.0100892302    0.5245860236
 H    2.3800780428   -1.2254341822   -0.1254877830
 H    3.5159018278   -0.8992573505   -2.5287551154
 H    3.1230571716   -2.5605973364   -2.1123786668
 H    2.2958548997   -1.7633332778   -4.4504392983
 H    1.0848921384   -2.5447131870   -3.4107076810
 H   -0.7877154829   -1.0106208658   -2.6394226301
 H   -0.3370935783    0.6919008894   -2.6450464363