12

 O    0.0820957622    1.3185367837   -0.0097293604
 C    0.0655214273   -0.0211250405   -0.0757799893
 C    0.0038749771   -0.7720420804   -1.2276439441
 N    0.0135107527   -2.0863969628   -0.7413081010
 C   -0.0126043455   -3.4236234061   -1.0124792338
 N    0.0309761437   -4.1444598604    0.0706164368
 O    0.0907878122   -3.2207538673    1.1486342384
 C    0.0783673061   -1.9919599572    0.6207056892
 N    0.1124278479   -0.7756240397    1.0856889569
 H    0.1285081949    1.5500308704    0.9264448809
 H   -0.0424672462   -0.5177994878   -2.2690261651
 H   -0.0631791923   -3.8603267018   -1.9969468786