15

 O   -0.0926449357    1.4306683386   -0.0497205615
 C   -0.0246073018    0.0260639414    0.0214697307
 C    0.2452110792   -0.6432526235    1.4435669346
 C   -1.1123955760   -1.3364878063    1.3145244171
 N   -2.1050353967   -0.2413165231    1.2535366696
 C   -1.4008419803   -0.6597476265    0.0205281421
 C    0.8569524667   -0.5231588556   -1.0060408436
 C    1.6086745408   -0.9362610257   -1.8490693359
 H    0.7952324990    1.7623646985   -0.2209290666
 H    1.1080912361   -1.3095946220    1.4362682986
 H    0.3103247939    0.0771031475    2.2613223874
 H   -1.3834361134   -2.3316204990    1.6414178328
 H   -3.0310847632   -0.6667225823    1.2083761975
 H   -1.9421280872   -0.9945295022   -0.8552794743
 H    2.2648334386   -1.3066034998   -2.5979293185