21

 C    0.2704132609    1.8346246841    0.0150992092
 C    0.0618335270    0.3147477191    0.0656111424
 C    0.6063285226   -0.3938787787   -1.1829392348
 C   -0.1967788132   -0.1435631913   -2.4541013277
 C    0.4088476705   -0.6790115369   -3.7398910601
 O   -1.2600470021    0.4349602574   -2.4437265020
 C    0.7037734839   -0.2688908010    1.3065536517
 C   -0.0625297914   -0.5780787264    2.5192708008
 O    0.3590677935   -1.6182814099    1.6326083829
 H    1.3364938808    2.0861626223   -0.0427095665
 H   -0.2311879245    2.2599490810   -0.8562998072
 H   -0.1358849803    2.3160348497    0.9103006444
 H   -1.0132803326    0.1099096477    0.1122267175
 H    1.6566377047   -0.1277361920   -1.3682448289
 H    0.6061526853   -1.4803611646   -1.0159546757
 H    0.6840146911   -1.7336701362   -3.6323560268
 H   -0.2975687836   -0.5587234819   -4.5619997533
 H    1.3310666504   -0.1329165754   -3.9708845630
 H    1.7681727559   -0.0496467796    1.4263915479
 H    0.4255746256   -0.5679601554    3.4929082145
 H   -1.1349032147   -0.3868237224    2.5358184649