20

 C    0.0556172500    1.5755716191   -0.1356943690
 C    0.0202260670    0.0496049418   -0.0177971165
 C    0.7180535385   -0.4672476347    1.2438202705
 C    0.6798020822   -2.0038235627    1.3573674678
 C    1.3661699417   -2.5223722784    2.5750035560
 C    0.9380220605   -3.1687022174    3.6950814978
 C    2.1250395844   -3.3491410442    4.4524457622
 N    3.1789526319   -2.8578045496    3.8501288011
 O    2.6972923514   -2.3296174237    2.6525847338
 H    1.0860679787    1.9458108667   -0.1685200496
 H   -0.4500749660    1.9164459541   -1.0443057528
 H   -0.4385296668    2.0505060818    0.7190022632
 H   -1.0223888481   -0.2955389071   -0.0235741720
 H    0.4927744261   -0.3985709330   -0.9018822168
 H    1.7630193762   -0.1361548283    1.2538966988
 H    0.2474998568   -0.0302885671    2.1337418622
 H   -0.3575294160   -2.3539007270    1.3745116456
 H    1.1488273024   -2.4434614133    0.4678801566
 H   -0.0665203881   -3.4707271880    3.9394560147
 H    2.2479848173   -3.8226463090    5.4165686763