14

 C    0.0834326541    1.3685368900    0.0090783185
 N    1.3559579839    1.7941983637   -0.0007334479
 N    2.0745916893    0.6692702154   -0.0139596675
 N    3.4099941217    0.7082626410   -0.0266109784
 C    3.9984648386   -0.4633098117   -0.0388348855
 C    3.3218025136   -1.7121536957   -0.0392890148
 C    1.9541538526   -1.7214824008   -0.0261604423
 C    1.2785323188   -0.4852089671   -0.0127409151
 C   -0.0341580628   -0.0243809107    0.0024994289
 H   -0.7090475870    2.1025514699    0.0207860940
 H    5.0823522474   -0.4206419866   -0.0490349972
 H    3.8951050904   -2.6307258740   -0.0499419952
 H    1.3824084441   -2.6423155163   -0.0257895242
 H   -0.9313014550   -0.6210777670    0.0078331388