13

 N   -0.1265946262    1.2141277519   -0.5594241686
 C   -0.0382858653    0.0586617473   -0.1003107264
 O    1.0291391560   -0.6624932144    0.3840303864
 C    0.1924996444   -1.8322155536    0.6932860221
 C    0.1837748234   -2.1756395044    2.0940131137
 C    0.1618487347   -2.4752253500    3.2563655465
 C   -1.0485818456   -1.0704625591    0.1025183521
 C   -2.1814916213   -0.8154643916    0.9706748448
 N   -3.0878124779   -0.6249054161    1.6605362134
 H    0.7697412725    1.7024816784   -0.5582818652
 H    0.5053588957   -2.6760294951    0.0730068021
 H    0.1372664951   -2.7330409886    4.2872159379
 H   -1.3904579756   -1.4966460146   -0.8437743188