21

 C   -0.2801681621    1.5217989258    0.0313202958
 C    0.0118643664    0.0393991259    0.1051881927
 C    1.4119505549   -0.5519344199   -0.1817438956
 C    2.5967014924    0.2959874969   -0.4905588297
 C    3.5761168869   -0.3026181601   -1.4863019132
 O    2.7938830914    1.3919537535    0.0001943302
 C    0.7791722256   -0.6229517774    1.2055963711
 C    1.3416979090    0.1309217271    2.3873588037
 O    0.4029138528   -1.9473731592    1.5086516034
 H    0.5750874896    2.1229712651    0.3391545711
 H   -0.5355107502    1.8096463283   -0.9941384602
 H   -1.1364489443    1.7727227730    0.6674905963
 H   -0.7728321081   -0.5953039045   -0.2991987425
 H    1.3933950363   -1.5050863155   -0.6985807265
 H    3.0728285389   -0.5073341032   -2.4382496941
 H    4.4074116451    0.3842920997   -1.6478940321
 H    3.9531289392   -1.2625935685   -1.1151556386
 H    1.7552553703    1.0956617111    2.0964335104
 H    0.5564169736    0.2948829796    3.1360494965
 H    2.1342935338   -0.4604090305    2.8558002117
 H   -0.3293902917   -1.9042748370    2.1342824597