18

 C    0.0330044108    1.4553812879   -0.0662982537
 C    0.0165447760   -0.0371174672   -0.0152124912
 O    0.5768706942   -0.8030462117   -1.1304477495
 C    0.1102212508   -1.8135209274   -0.1934709773
 C    0.5565030610   -1.0325301899    1.0831684596
 C   -0.8325910052   -1.1661393334    1.6951941758
 C   -1.3678244491   -1.9506533069    2.8164205525
 N   -1.4496625511   -0.4606158493    2.8056219908
 C   -1.1795327145   -1.0357994005    0.2173334345
 H    1.0600703422    1.8291965217   -0.1207979707
 H   -0.5121550843    1.8120295762   -0.9454999315
 H   -0.4457121640    1.8636706342    0.8286315631
 H    0.2405953023   -2.8651546869   -0.4431835474
 H    1.5443807867   -1.0317838802    1.5448119891
 H   -2.3273330642   -2.4546080693    2.7354488475
 H   -0.6666377209   -2.4240265713    3.4996766901
 H   -0.7393193608   -0.0754601518    3.4245989163
 H   -2.1430626899   -1.0361343442   -0.2898784181