19

 C   -0.1006265402    1.5505109469    0.0972274737
 C    0.0291798078    0.0511570179   -0.0357980217
 C    0.6911832042   -0.6250793963   -1.1959696498
 C    1.3021627139    0.1175436816   -2.3612280017
 C    1.3888953432   -0.6585649594    0.1877111592
 C    2.5640417563    0.1487440884    0.3877006260
 C    3.5476223606    0.8200491418    0.5576811561
 C    1.3700774146   -1.9077973293    0.9051532012
 C    1.3319195539   -2.9557324717    1.4939731733
 H    0.7947543571    2.0752226578   -0.2405342892
 H   -0.9519031704    1.9124509703   -0.4897718542
 H   -0.2712935686    1.8292999801    1.1418645009
 H   -0.7940974733   -0.5046673845    0.4032625082
 H    0.2686934094   -1.5903082051   -1.4592856869
 H    1.8257623478    1.0221159281   -2.0470527106
 H    2.0252717672   -0.5169261512   -2.8834136670
 H    0.5260329094    0.4028938642   -3.0798647299
 H    4.4208683478    1.4027847066    0.7162577263
 H    1.3098009193   -3.8783318063    2.0185989960