10

 C   -0.0178795900    1.4667689295    0.0101118041
 C    0.0018664364    0.0107291322    0.0021110887
 C    0.0181970373   -1.1927286061   -0.0045072299
 C    0.0379517014   -2.6487679252   -0.0125119251
 H    0.8646031176    1.8758997916    0.5147971880
 H   -0.0321762362    1.8721058086   -1.0079100178
 H   -0.9023311457    1.8518552354    0.5300395321
 H   -0.8347701131   -3.0633900659    0.5045143637
 H    0.0327642194   -3.0431556444   -1.0349122341
 H    0.9321348630   -3.0393164157    0.4862660603