23

 C   -0.0291649815    1.5395790531   -0.1385878664
 C   -0.0069321073    0.0162416006    0.0011741593
 C   -1.4162017610   -0.6035634093   -0.0937063082
 C   -1.4176755105   -2.0571742837    0.0328534447
 C   -1.3847744758   -3.2570107797    0.1375272186
 C   -1.3844686437   -4.7126644806    0.2694620832
 C   -2.7761705626   -5.3240016241    0.1824778855
 C   -3.3769316383   -5.6499501227   -1.1578220422
 C   -2.9385729500   -6.7623768598   -0.2343078611
 H    0.9792383340    1.9584179542   -0.0682975847
 H   -0.4495578387    1.8440616907   -1.1036915538
 H   -0.6371752950    2.0022076269    0.6470514434
 H    0.6261853395   -0.4249384937   -0.7768065014
 H    0.4405961368   -0.2684287490    0.9600021955
 H   -2.0552159503   -0.1642287575    0.6847805195
 H   -1.8721096135   -0.3155092239   -1.0510202562
 H   -0.7513197135   -5.1546229455   -0.5122193895
 H   -0.9202165452   -4.9947620349    1.2245570393
 H   -3.4631220919   -4.9580035349    0.9397807467
 H   -4.4389899421   -5.4870093953   -1.3028922832
 H   -2.7753415199   -5.4576179781   -2.0403144132
 H   -2.0447499396   -7.3183171349   -0.4997376899
 H   -3.6999416500   -7.3596141777    0.2551719039