18

 C    0.0943028625    1.5294276356    0.0911394199
 C   -0.0457180465    0.0459541714    0.0457399671
 C   -1.1288666704   -0.7372258174   -0.0769509764
 C   -2.5659192947   -0.3591165633   -0.2145982363
 C   -0.6822882040   -2.1765613994    0.0230990098
 O   -1.1300051901   -2.9973821337   -1.0355274469
 C    0.8540734139   -2.0717580779    0.0263162366
 O    1.6297910621   -2.9894756980   -0.1287705001
 N    1.1368478774   -0.7386881219    0.1801633690
 H    0.7602019714    1.8877232587   -0.7042630456
 H   -0.8723258239    2.0193355960   -0.0325531059
 H    0.5247110354    1.8570735607    1.0453050662
 H   -2.7027538648    0.7213317993   -0.3077501237
 H   -3.0023916141   -0.8345950164   -1.1003993791
 H   -3.1558030320   -0.6980311177    0.6473011715
 H   -0.9934663971   -2.5979265767    0.9980804529
 H   -0.4708910403   -3.7002798188   -1.1199394010
 H    2.0684626852   -0.3736416705    0.0533191020