14

 N    0.0289196279    1.3238248078    0.1462977589
 C   -0.0559290127   -0.0358317232    0.0406431858
 N   -1.1372707114   -0.7597849951   -0.0159100802
 C   -0.6459991751   -2.0541935175   -0.0322378346
 O   -1.4343110026   -3.1526324379   -0.1023845744
 C   -2.7859876566   -3.0105571190    0.0126341955
 N   -3.5004652075   -4.0445314269   -0.0747763133
 C    0.7037253882   -2.0604980937    0.0084167134
 O    1.0960352414   -0.7237693205    0.0547616912
 H    0.8878306401    1.7300138846   -0.1928075609
 H   -0.8054334495    1.8090791950   -0.1456093649
 H   -3.0968831573   -1.9775211616    0.1717702991
 H   -4.4806147635   -3.7904515407    0.0330192728
 H    1.4765022586   -2.8044643311    0.0067405214