18

 C   -0.2229227186    1.5544179880   -0.7809256665
 N   -0.1547689827    0.1112220842   -0.8810490860
 C    0.8521385867   -0.6147912801   -0.3451579246
 O    1.8125627728   -0.1493023474    0.2479053683
 C    0.6802701148   -2.1412793689   -0.5088616779
 N   -0.2049203419   -2.4728385414   -1.6224931421
 C    2.0864944672   -2.7917403208   -0.5456235208
 C    1.9951723055   -4.2473713424   -0.5547415590
 N    1.8736875099   -5.3968944506   -0.5737393372
 H    0.6699284097    1.8916508699   -0.2527160450
 H   -0.2504699127    2.0194893085   -1.7723921588
 H   -1.1101029769    1.8727914158   -0.2223719579
 H   -0.8795228187   -0.4160194529   -1.3470880595
 H    0.1810369214   -2.4837488612    0.4062061003
 H    0.2771821870   -2.3553368404   -2.5100019377
 H   -0.4891020173   -3.4461654225   -1.5705890531
 H    2.6283606152   -2.4602298238   -1.4392023762
 H    2.6629389386   -2.4459340240    0.3160438238