20

 C    0.3675381929    1.5285493422    0.1453444623
 C    0.1888799605    0.0109432250    0.0904387045
 C   -1.2872744849   -0.4231891391   -0.0667528303
 N   -1.8902856842    0.0832277187   -1.2987102560
 C   -2.8818379986    1.0276365714   -1.2877754423
 C   -3.5096378937    1.3132010426   -2.6428268231
 O   -3.2409153325    1.5920724540   -0.2704512361
 C   -1.4160816728   -1.8803035067   -0.0016796137
 C   -1.4864714020   -3.0799483630    0.0261596399
 H    1.4219970502    1.7861200291    0.2817794489
 H    0.0223419599    2.0023870623   -0.7779077135
 H   -0.1997337604    1.9654838581    0.9729693644
 H    0.7699079823   -0.4155483898   -0.7364449066
 H    0.5717266897   -0.4513480050    1.0069704295
 H   -1.8736858191    0.0353427450    0.7378206054
 H   -1.6961135049   -0.4178316863   -2.1506328727
 H   -4.4731765528    0.7968215931   -2.7022545776
 H   -3.7025509012    2.3843887796   -2.7209864037
 H   -2.8907211511    0.9912652077   -3.4845479909
 H   -1.5659094370   -4.1381394688    0.0690995316