20

 C   -0.0024120860    1.5850886436   -0.0226706561
 C   -0.0198180448    0.0852214473   -0.0096796481
 C   -0.9473070757   -0.7518330041    0.8395943034
 C    0.5470298281   -0.9098253692    0.9918353893
 N    1.1556627404   -1.7053817082   -0.0721833917
 C    0.8925604221   -3.1291840102   -0.1287528509
 C    1.8158594542   -3.8092432067   -1.1269799705
 O    1.5111194255   -4.7550128905   -1.8053153071
 C    0.5621940187   -0.8109608924   -1.1121053595
 H    0.9799518139    1.9700674188   -0.3185305690
 H   -0.7425550244    1.9851076901   -0.7261714090
 H   -0.2378613629    1.9917267209    0.9660697661
 H   -1.4332092898   -0.2154501929    1.6494637154
 H   -1.5533243041   -1.5401292071    0.3999248445
 H    1.0696546607   -0.7502193674    1.9298595545
 H    1.1350073877   -3.5550920536    0.8565499469
 H   -0.1468426975   -3.4141955618   -0.3604917399
 H    2.8303294538   -3.3520043584   -1.1701857142
 H   -0.1707906298   -1.2921680856   -1.7741712141
 H    1.3342921900   -0.3324963625   -1.7241945300