17

 C    0.0450874873    1.5586427919    0.1090388453
 C   -0.0283116886    0.0272329092   -0.0252561551
 C    0.6853514640   -0.5008570502   -1.2374741148
 C    0.1202878244   -0.8889709661   -2.4331117293
 N    1.1457364624   -1.2666792734   -3.2434145503
 N    2.3438519227   -1.1597316416   -2.6763868356
 C    2.0848927268   -0.6904629999   -1.4469791928
 C    3.1679134206   -0.4412188531   -0.4834641272
 O    4.3475262184   -0.5957994294   -0.6922216127
 H    1.0815065592    1.8994502279    0.1945583824
 H   -0.3931646897    2.0486014806   -0.7657902660
 H   -0.4967666010    1.8963168493    0.9978155101
 H    0.3821223150   -0.4351348461    0.8796305695
 H   -1.0789364606   -0.2805215861   -0.0705791674
 H   -0.9070685346   -0.9299432794   -2.7598599342
 H    1.0857308679   -1.6127884533   -4.1876138812
 H    2.8061778358   -0.0823341403    0.5064796891