17

 O    0.1702735073    1.3311191462   -0.4090851374
 C   -0.0937536276    0.0010619738   -0.1530770118
 C    0.1104731980   -0.6599638921    1.2428792071
 C   -0.7402026604    0.2065198464    2.1922561750
 C   -2.0768461993    0.1741934166    1.3639179647
 C   -2.7058659645    1.5136499040    1.1065056162
 O   -2.1665045666    2.4367448908    0.5312320840
 C   -1.5032046793   -0.6029537578    0.1245016055
 O   -0.8278665297   -1.6900871323    0.8030478392
 H   -0.5555103441    1.8853118339   -0.0710603252
 H    0.4011221794   -0.6151924212   -0.9072717130
 H    1.0646217871   -1.0443812110    1.6011510438
 H   -0.8620704440   -0.2367573261    3.1812558504
 H   -0.3297550023    1.2146936215    2.2940084379
 H   -2.8126438037   -0.4704237531    1.8497740351
 H   -3.7424533080    1.6433992173    1.4797321501
 H   -2.2061576823   -0.9134661168   -0.6483279715