14

 O   -0.0589674830   -0.0086157564    0.3402456481
 C   -0.0756070445    1.1798616785    0.1296154778
 C   -1.3613251240    1.9513812108   -0.1346723682
 C   -1.2674124083    3.4405528238    0.0724129492
 O   -0.6723324662    3.8612123408    1.2934942226
 C    0.0495996697    4.1000782091    0.0747162534
 C    1.2909334086    3.2750120269   -0.1020709593
 O    2.3746180718    3.7573346949   -0.3328586790
 N    1.1109308916    1.9037231105    0.0392942990
 H   -1.6518953332    1.7433219777   -1.1725362592
 H   -2.1374063605    1.5148888118    0.4999154432
 H   -2.1304037147    4.0273394092   -0.2398176003
 H    0.1685405246    5.1416898869   -0.2089585073
 H    1.9589431479    1.3501753657    0.0755484001