15

 C    0.2161130785    1.5237601384    0.0020176108
 C    1.4822340006    0.6843824114   -0.0511478930
 N    2.0827095202    0.2207213794    1.1603447639
 C    1.1141330399   -0.4374429029    1.9077111236
 N   -0.0249431688   -0.6392411361    1.3456341047
 C    0.0470382654    0.0445525485    0.0815447138
 C    0.2880349030   -0.7113693400   -1.2573167326
 O    0.5900925985    0.2592154499   -2.2668308626
 C    1.6323744159   -0.1398065063   -1.3746918526
 H    0.0542996471    2.0693241894    0.9246967959
 H   -0.0801136834    2.0331539675   -0.9049914333
 H    2.8608334894    0.6857489656    1.6011120818
 H    1.3516834273   -0.7628765542    2.9174366814
 H   -0.1453209232   -1.6557247217   -1.5636697109
 H    2.5543189497   -0.5178462087   -1.8014939308