17

 O    0.2477088795    0.0383042795    1.2240137839
 C    0.0640469430    1.0091126906    0.5345314335
 C    1.1493060892    1.6785879491   -0.2921327204
 C    1.4472755401    3.1073546716    0.2555321188
 C    2.7076218831    2.8759671109    1.1201808712
 C    3.4540919981    1.8001315699    0.2850765659
 N    2.4043925274    0.9289536685   -0.2445907183
 C    3.4771531584    4.0859024342    1.3763238894
 N    4.1012028298    5.0405829514    1.5649886238
 H   -0.9366853707    1.4885394813    0.4645016952
 H    0.7535222137    1.7610554242   -1.3157045575
 H    1.6805419587    3.7883421043   -0.5664481475
 H    0.6152792155    3.5382188900    0.8182908715
 H    2.4166142359    2.4387249197    2.0823586053
 H    3.9978368095    2.2926898599   -0.5302901535
 H    4.1782724634    1.2324315575    0.8729615745
 H    2.2610417856    0.1292296176    0.3659810442