21

 C    0.0418225087    1.5663360375    0.0471831284
 C    0.0104745880    0.0667223597    0.0230367538
 C   -0.8400462844   -0.7802376999   -0.9233031531
 O   -1.0837401441   -1.7748177778    0.1077456776
 C   -0.3720633973   -0.9741109307    1.0584275078
 C    1.0694485346   -0.8291311918    0.6616690754
 C    1.8361377294   -1.9063917829   -0.0374128266
 C    3.1922949668   -1.6214456453   -0.6374248619
 C    3.0792430153   -2.4822961823    0.5963059192
 H    0.6322293759    1.9673512908   -0.7857573808
 H   -0.9668247463    1.9895611432   -0.0259341715
 H    0.4920952826    1.9371709062    0.9736452960
 H   -1.7796599897   -0.2914816051   -1.2085082639
 H   -0.3596997558   -1.2043531552   -1.8130214790
 H   -0.7733901654   -0.9144600359    2.0648169775
 H    1.6464923320   -0.2728289999    1.4004646284
 H    1.2094773950   -2.6136259428   -0.5699280285
 H    3.4522833545   -2.0959676489   -1.5775270166
 H    3.5970246031   -0.6212455116   -0.5201109843
 H    3.4087936416   -2.0600561139    1.5404634618
 H    3.2580163356   -3.5477946934    0.5031219302