15

 N   -0.0996940985    1.3094006136   -0.1715567500
 C    0.0387431940   -0.0004481843    0.2032533963
 O    1.0748858138   -0.4681902338    0.6137891386
 C   -1.2726340957   -0.7937143694    0.1372211901
 O   -0.9719464946   -2.1529918066   -0.0027375764
 C   -2.1264859548   -2.9675008936    0.0776989227
 C   -1.7600767475   -4.3673942285   -0.0843757098
 C   -1.4910773792   -5.5298419616   -0.2160263837
 H    0.7350396088    1.8734667213   -0.1884857983
 H   -0.8908099054    1.6265269046   -0.7050283526
 H   -1.8297191383   -0.5973132453    1.0708471609
 H   -1.9058815093   -0.4341489098   -0.6933790949
 H   -2.6304144728   -2.8233375252    1.0491112069
 H   -2.8564227153   -2.6841663057   -0.7007028913
 H   -1.2410126552   -6.5555278155   -0.3311021485