19

 C    0.2350830974    1.5217055292    0.0054660261
 C    0.1478874755    0.0689248591    0.0140137726
 C    0.0711973032   -1.1333322601    0.0250231395
 C   -0.0007595238   -2.5636607832    0.0192208833
 C   -0.4614062910   -3.3262901810    1.2425973007
 C   -1.3578024594   -3.2951494675    0.0235719275
 C   -2.5919759405   -2.5687103169    0.0343347826
 C   -3.6380604322   -1.9711591982    0.0284368989
 C   -4.8974909103   -1.2417707695    0.0258155047
 H    1.2640051803    1.8569848759   -0.1673680107
 H   -0.3907094234    1.9568421269   -0.7819729590
 H   -0.0927707674    1.9460087258    0.9611800716
 H    0.7594309089   -3.0575508410   -0.5799452562
 H    0.0412673494   -4.2571070450    1.4802305944
 H   -0.7758463966   -2.7382933001    2.0957626655
 H   -1.3662150137   -4.2031677882   -0.5732857518
 H   -5.4012436520   -1.3197582376   -0.9442547900
 H   -5.5864431700   -1.6235952614    0.7878934065
 H   -4.7373839246   -0.1768773372    0.2286098638