19

 C    0.1421564654    1.4719795995   -0.0383847570
 C   -0.1014906410   -0.0157843571   -0.0401879423
 C    0.2871769090   -0.8652677129   -1.3271574025
 C   -0.7449856906   -1.8386047699   -0.7836696162
 C   -0.5375142525   -2.9609385288   -0.0865543446
 C   -1.0327316611   -2.7852890072    1.3474308608
 C   -1.0505361133   -1.2426188207    1.4392598376
 O    0.2770589595   -0.6365380484    1.2332352251
 C   -1.4510937402   -0.7623777054    0.0470410495
 H    1.2138455340    1.6772020874    0.0604809831
 H   -0.2080854371    1.9275726863   -0.9698706044
 H   -0.3713417583    1.9483535083    0.8018406110
 H   -0.0063911584   -0.2924080233   -2.2146237932
 H    1.3105161474   -1.2311351667   -1.4375081332
 H    0.1875510499   -3.7233427106   -0.3507737854
 H   -2.0243194360   -3.2013937746    1.5769626097
 H   -0.3246882522   -3.2312879888    2.0546349226
 H   -1.5280364155   -0.8280233252    2.3337205563
 H   -2.4242574291   -0.3636752919   -0.2343984768