20

 C   -1.6505654129    0.5270818111    1.8905508994
 C   -0.8535558258   -0.4550498962    1.0606489974
 C    0.0280909273   -0.0015652885   -0.0477730030
 N    0.6128578155   -0.6020931169    1.1535799080
 C    1.3702310135    0.2610635970    2.0654900658
 C    1.7988030862   -0.5542143438    3.3034499109
 N    0.6108956195   -1.0473084066    3.9978486145
 C    2.5599756085    0.7827297391    1.3768078047
 N    3.4981364478    1.2033377556    0.8498303863
 H   -1.2683483140    1.5488419267    1.8159417145
 H   -2.6857733607    0.5422396706    1.5346981600
 H   -1.6485702792    0.2366440114    2.9456869578
 H   -1.3383733909   -1.4238068356    0.9480442573
 H    0.1440599660   -0.5795597539   -0.9602385426
 H    0.1333070934    1.0742721600   -0.1795337695
 H    0.7920067324    1.1275380913    2.4172740373
 H    2.4897152358   -1.3418570148    2.9684886773
 H    2.3507083552    0.1085269514    3.9775499879
 H    0.2237140314   -1.8304510026    3.4804393969
 H    0.8712555810   -1.4053600052    4.9106609293