18

 C   -0.0545093821    1.3417147487    0.0752797329
 O    0.0040110684   -0.0628763819    0.0060717073
 C    0.6584568709   -0.5253501466   -1.1535637260
 C    0.6554905334   -2.0451264206   -1.1099528889
 C    1.3300169310   -2.6699449015   -2.3001602416
 O    1.8311794111   -2.0430367744   -3.2085773424
 C    1.3589281717   -4.2185351684   -2.3175151918
 N    1.9799443476   -4.7022977336   -3.4150445778
 O    0.8652701817   -4.8759705727   -1.4217862153
 H    0.9504780838    1.7925852514    0.0930483131
 H   -0.6059492621    1.7705772530   -0.7765366082
 H   -0.5748600287    1.6021533743    1.0000370971
 H    0.1492363579   -0.1671290552   -2.0627669491
 H    1.6917283063   -0.1454252897   -1.2009542156
 H    1.1443287250   -2.4147145370   -0.2002310806
 H   -0.3671329382   -2.4363763502   -1.0451536623
 H    2.3489750955   -4.0520511707   -4.0899299225
 H    2.0665588667   -5.6951324949   -3.5491806383