14

 C   -0.0334679627    1.4000238881   -0.2159766132
 C    1.3229552254    0.8144039498    0.0738617351
 C    0.0859529783   -0.0865278203    0.1040620509
 C    0.6669909493   -0.7568513428   -1.1260914110
 C    0.5784690982   -1.2333174640   -2.4154311496
 C    1.7204888211   -0.6495867991   -3.0455248207
 N    2.4117149053    0.1776538903   -2.2544413418
 N    1.7902095019    0.0115461071   -1.0659609490
 H   -0.4510804358    2.0231083442    0.5713198100
 H   -0.2781265794    1.7128124613   -1.2256533322
 H    1.9884695013    1.1208811919    0.8688911653
 H   -0.3779007649   -0.5487174348    0.9632186980
 H   -0.1480969312   -1.8931765524   -2.8594883687
 H    2.0677717633   -0.8276062493   -4.0544176930