15

 N    0.9237781728   -0.0219161521   -0.0019147084
 C   -0.2362786412    0.4167853077   -0.2713065608
 N   -1.3471051573   -0.1551318684    0.3294498460
 C   -2.6382782859    0.2903462184    0.0992115457
 O   -2.9007520831    1.2180894958   -0.6407271318
 N   -3.5972448038   -0.3979596697    0.8170969839
 C   -4.9990366768   -0.1487321847    0.5506879605
 C   -5.6483801260   -1.2527140681   -0.1718066106
 N   -6.1504319554   -2.1411307141   -0.7131156986
 H    1.6280471258    0.4968104427   -0.5224416673
 H   -0.5092605554    1.2277707698   -0.9484958848
 H   -1.1551218867   -0.9058977454    0.9774137435
 H   -3.3554258669   -1.2665587691    1.2672351343
 H   -5.5490363243    0.0316920345    1.4809911659
 H   -5.0436510958    0.7618007626   -0.0537101076