23

 C    0.0385971690    1.5808596048   -0.1036436280
 C    0.0060776046    0.0469690399   -0.0074549387
 C   -1.4263813294   -0.5061346162    0.0844305354
 C   -2.2094267428   -0.0538517330    1.3116399723
 O   -3.4374084608   -0.7698017534    1.3214071814
 C    0.7434069231   -0.6095861640   -1.1926736283
 C    2.2313185971   -0.3550134872   -1.2147009061
 C    3.0089290738   -0.3338045818   -2.4598517642
 O    2.6897937160    0.8800418076   -1.7787483369
 H    1.0583837854    1.9514616154   -0.2274900398
 H   -0.5421895740    1.9249445843   -0.9680737952
 H   -0.3845031300    2.0499478771    0.7896343024
 H    0.5370350133   -0.2485348045    0.9109081003
 H   -1.9914886752   -0.2282371429   -0.8149584843
 H   -1.3957468086   -1.6025211891    0.1045606916
 H   -1.6220890531   -0.2604849167    2.2225590634
 H   -2.3890134939    1.0309156730    1.2791160494
 H   -3.9650273018   -0.4496489354    2.0586956869
 H    0.5891878669   -1.6965463002   -1.1521841573
 H    0.3112507320   -0.2620349685   -2.1396514654
 H    2.7618448009   -0.6356085719   -0.3015652396
 H    4.0614769370   -0.6140056493   -2.4503346568
 H    2.4994388505   -0.4826997080   -3.4114378027