20

 O   -0.0998862321    1.3270002298    0.2301648243
 C   -0.0321027115   -0.0773156660    0.0306553139
 C   -1.4562833491   -0.6201919449   -0.1058454651
 C   -2.1783225579    0.0779045285   -1.2605350862
 O   -3.5395123467   -0.3582990300   -1.2883218990
 C   -1.4111106739   -2.1492002754   -0.2690545034
 N   -2.7132140591   -2.7709019673   -0.1067900931
 C   -2.9124858393   -3.8560873325    0.6794199537
 O   -2.0496733899   -4.4552346938    1.2910238772
 H    0.7966697857    1.6648010675    0.3101916783
 H    0.5482832616   -0.3213666826   -0.8752516974
 H    0.4598142593   -0.5765728531    0.8786949006
 H   -1.9961321910   -0.3851658932    0.8196647267
 H   -2.1198185648    1.1628177713   -1.1202652001
 H   -1.6726198377   -0.1705257000   -2.2086268438
 H   -3.9891264910    0.0953384824   -2.0065580116
 H   -0.9879003415   -2.3976189463   -1.2541832696
 H   -0.7595396815   -2.6009501132    0.4839667014
 H   -3.4950954640   -2.3089571145   -0.5473470232
 H   -3.9810163254   -4.1499945467    0.7054795864