21

 C   -0.4508629891    1.3668508628    0.0599788197
 C    0.0661727867   -0.0554222888   -0.0383901049
 C    0.9601089679   -0.3364808497   -1.2629671883
 C    1.9922677405   -1.3001274420   -0.7315146516
 C    1.8841926797   -1.5020829554    0.5811040172
 C    0.7498361437   -0.7314568445    1.2070402504
 C    1.1463358336    0.0820942242    2.4311385085
 C   -0.5657995785   -1.5459109052    1.2885317868
 O   -1.0270432895   -1.0153204978    0.0331036336
 H    0.3751326045    2.0839200965    0.1131964459
 H   -1.0521451138    1.6059348292   -0.8237485079
 H   -1.0846875231    1.4992969833    0.9412280685
 H    0.3495448461   -0.7679158168   -2.0653160161
 H    1.4210521227    0.5750843727   -1.6674959760
 H    2.7364486768   -1.7647759734   -1.3698233868
 H    2.5233433807   -2.1547856788    1.1679605146
 H    1.9649921469    0.7722270675    2.2019494014
 H    0.3061365166    0.6658086883    2.8199250475
 H    1.4895836487   -0.5775154875    3.2367565876
 H   -0.4727068887   -2.6380475770    1.2673606434
 H   -1.2233394122   -1.2572919377    2.1216312863