20

 C    0.0819834065    1.5172891416   -0.0527818209
 C    0.0450797482    0.0621818755   -0.0577943674
 C   -0.0030804458   -1.1417443114   -0.0572326860
 C    0.0009490986   -2.5970681154   -0.0810983738
 O    0.7555669765   -3.1029539785   -1.1659995903
 C    0.2635473716   -3.2603983540    1.3138481995
 N   -1.1889726563   -3.4526126477    1.4620868160
 C   -1.6652324157   -4.6696023850    2.0775935839
 C   -1.3973833699   -3.2692421711    0.0156229852
 H    0.9757720117    1.8939855642    0.4566076206
 H    0.0844455640    1.9187610508   -1.0720764633
 H   -0.7921228294    1.9293401161    0.4632220722
 H    1.4816684538   -2.4917464869   -1.3277763550
 H    0.8256739227   -4.1969126047    1.1669455830
 H    0.7364786478   -2.6580659080    2.0957376435
 H   -1.3656364673   -4.6950062176    3.1308462885
 H   -2.7595368388   -4.7011295164    2.0406390773
 H   -1.2792790008   -5.5853142130    1.5891479211
 H   -2.2733938939   -2.6760409022   -0.2619576173
 H   -1.3835203833   -4.2084090965   -0.5604195067