16

 O   -0.1438742020    1.3339003579   -0.0312127685
 N    0.0234299450   -0.0621338087    0.0031938955
 C   -1.0940839111   -0.6534801451   -0.0461344179
 C   -2.5582291747   -0.2364360652   -0.0591554856
 C   -2.9344387160   -1.7493849949    0.0454458639
 C   -3.0954662067   -2.5188162661   -1.2906255205
 O   -2.2128120622   -1.9250856509   -2.2484793406
 C   -1.6637138553   -2.8649213903   -1.3218540352
 C   -1.4073830591   -2.1348322498    0.0291989394
 H    0.7653757385    1.6480981240    0.0167504633
 H   -2.8410203581    0.3598404379    0.8134111852
 H   -2.8854304276    0.2784255901   -0.9647984484
 H   -3.5808732233   -2.0682608568    0.8607409584
 H   -3.9672506175   -3.0333838955   -1.6790176274
 H   -1.1308376863   -3.7125269032   -1.7373278007
 H   -0.9454019635   -2.7389691136    0.8095866392