16

 N   -0.0739538819    1.3725959229   -0.2698781300
 C    0.0729215571    0.0643116228    0.0901593070
 O    1.1425290769   -0.4123519024    0.4072669125
 C   -1.2440467406   -0.7354933836    0.1227241738
 C   -1.0314924387   -2.2560256235    0.0624492326
 C   -1.7586423847   -2.8263591876    1.2885839302
 O   -1.9141824641   -3.9958207378    1.5452928224
 C   -2.2325968725   -1.6649250237    2.0841326418
 C   -1.9617806584   -0.5232459825    1.4464635881
 H    0.7564032755    1.9386821169   -0.3401973153
 H   -0.9264252247    1.7248960719   -0.6687301250
 H   -1.8836882975   -0.3792097965   -0.6960462638
 H   -1.4081368320   -2.7169858336   -0.8532790008
 H    0.0348015427   -2.4857228958    0.1457735597
 H   -2.7385769685   -1.7770595152    3.0342558170
 H   -2.2042013586    0.4728462477    1.8013133797