20

 C   -0.0684385608    1.5423539092    0.1158232403
 C    0.0859219923    0.0557684417    0.0247329530
 N   -0.8191267319   -0.8730384237    0.7514948414
 C    0.6559475553   -0.9398876040    0.9543191302
 C    1.2866529940   -1.7360330923   -0.2211894125
 C    0.2592210768   -2.1618711768   -1.2434767015
 C    0.7026434010   -0.7252903166   -1.1961471720
 C    1.3861947451   -0.0294825003   -2.3373430599
 O    2.2190961581   -0.9698542578   -3.0019969879
 H    0.8312073517    2.0634226590   -0.2283873112
 H   -0.9116829095    1.8970407806   -0.4895555045
 H   -0.2494404424    1.8474293590    1.1525150665
 H   -1.1996348023   -0.3504382528    1.5409459413
 H    1.0870486544   -0.8110569395    1.9395412829
 H    2.2941572421   -2.1294464324   -0.2038825248
 H    0.6803415646   -2.7108937987   -2.0784989689
 H   -0.7376451064   -2.4480006928   -0.9354531946
 H    0.6359540733    0.3902831503   -3.0296206221
 H    1.9831490399    0.8174003624   -1.9581418716
 H    2.5987009346   -0.5386731844   -3.7726738342