18

 C   -0.4292196939    1.2250795580   -0.3532652455
 N    0.8554181371    1.3142042188    0.3637892099
 C    0.2607971644   -0.0093951943    0.0990873713
 C   -0.2138922330   -0.7582526647    1.2935803067
 C   -1.4629300031   -1.5471266089    1.3089529125
 N   -1.4153510325   -0.3133411028    2.1173169723
 C   -0.6397608248   -0.6793022423    3.3569279758
 C    0.6255824565   -1.0453117571    2.5408312758
 H   -1.2848485587    1.5722900262    0.2166128413
 H   -0.4525907193    1.4417322607   -1.4179674136
 H    1.6069811444    1.4906676947   -0.2977829709
 H    0.7322402850   -0.6225121435   -0.6688317900
 H   -2.1211760145   -1.4609650634    0.4495107231
 H   -1.4976842813   -2.5110055849    1.8147776211
 H   -0.5181321676    0.1997165400    3.9918749521
 H   -1.1092788596   -1.4797599247    3.9386288726
 H    1.0348599580   -2.0549998578    2.6401722664
 H    1.4256036928   -0.3145403141    2.6661135790