23

 C    0.0200763182    1.7400256510    0.0164231970
 C    0.0329123406    0.2090902745   -0.0357976159
 C   -1.3864507429   -0.3884055831   -0.0663986023
 C   -2.1954912312   -0.1872368987    1.2097172918
 O   -3.4312794658   -0.8718684667    1.0347271182
 C    0.8780317258   -0.3243018547   -1.2219455016
 C    1.6527460866   -1.5008778995   -0.6116876079
 C    1.8741981333   -0.9994730993    0.8156035752
 O    0.6963530966   -0.2799926584    1.1545383651
 H    1.0439685989    2.1229224801    0.0604638912
 H   -0.4639467086    2.1563755517   -0.8736087835
 H   -0.5121881001    2.1047841960    0.8985794197
 H   -1.9406428215    0.0367714758   -0.9119258230
 H   -1.3146546256   -1.4677513643   -0.2446469944
 H   -1.6289281782   -0.5852421535    2.0618455380
 H   -2.3675088768    0.8844104941    1.3949363541
 H   -3.9301858943   -0.7958358053    1.8530528751
 H    0.2552231078   -0.6100132633   -2.0729516025
 H    1.5748906768    0.4480506055   -1.5652957559
 H    1.0414492278   -2.4090901724   -0.6039094130
 H    2.5843656943   -1.7245713527   -1.1375247808
 H    2.0103876159   -1.8000120559    1.5498085080
 H    2.7579282624   -0.3420218210    0.8645107576