17

 O   -0.6984821712    1.1832031794    0.9214821389
 C   -0.0602771456    1.1285049864   -0.0991825946
 C    1.3076998215    1.7650990642   -0.2655270019
 C    1.3166637497    2.9081123772   -1.2991958446
 C    2.6113750063    3.7655131241   -1.1765607720
 C    2.6218706327    4.9420135324   -2.0371439555
 C    2.6096338537    5.9150494487   -2.7425662203
 C    1.1641093160    2.4020048968   -2.7244708791
 O    1.0064225700    1.2435670086   -3.0200326639
 H   -0.4448687178    0.6027080220   -0.9963566476
 H    1.6198370921    2.1379560894    0.7138373036
 H    2.0098334935    0.9895303603   -0.5961158554
 H    0.4717747988    3.5885499201   -1.1179196021
 H    2.7118586361    4.0796788757   -0.1312992639
 H    3.4831929939    3.1344578560   -1.3921207018
 H    2.6118162969    6.7764007917   -3.3640600213
 H    1.2205168436    3.1917906071   -3.5015207285