19

 C   -0.0772100336    1.5080973185    0.0247840027
 C    0.0188782265   -0.0220228895    0.0461920086
 C   -1.3510142019   -0.5664827127   -0.3611837061
 N    1.2437148008   -0.6275408908   -0.7275661781
 C    2.1058502008   -0.1267365401    0.4414185058
 C    0.8576690157   -0.7237122906    1.1472642461
 O    0.5017642366   -0.7437140559    2.4869967512
 C    1.0557736835   -1.8841337823    0.1403427031
 H   -0.0158022370    1.8646062274   -1.0092878402
 H   -1.0465919269    1.8196244482    0.4237765034
 H    0.6870681418    2.0210007899    0.6080564248
 H   -1.6679059489   -0.0933230925   -1.2965399072
 H   -1.3992559612   -1.6444505281   -0.5065076406
 H   -2.0853606075   -0.3033958584    0.4070572811
 H    3.0453771075   -0.6772902809    0.5352683092
 H    2.2851960958    0.9454550062    0.4512106112
 H    1.1656399905   -1.2393730933    2.9791054101
 H    0.2186436484   -2.5206021246   -0.1340149672
 H    1.9738347594   -2.4710579004    0.2252091820