19

 C   -0.4233378354    1.3814722663   -0.0282112298
 C   -0.0057451315   -0.0745625829    0.0460900949
 O    1.1415970787   -0.3718322821   -0.8005374184
 C    2.0121228936   -0.5969604721    0.3282388320
 C    2.7924832194   -1.8988260373    0.2229075376
 C    2.9273291393    0.5481061380    0.5070522601
 N    3.6201990619    1.4619003428    0.6541111754
 C    0.7935537959   -0.5442163081    1.3063979801
 N    0.9431784781    0.2221770064    2.5111967837
 H    0.4016687686    2.0540897323    0.2241463490
 H   -0.7535854915    1.6224676364   -1.0427638562
 H   -1.2563238189    1.5756929900    0.6563704796
 H   -0.8450038042   -0.7262075422   -0.2248219563
 H    3.4814593530   -1.8661268806   -0.6253418560
 H    3.3705444487   -2.0691073275    1.1359019931
 H    2.0946365406   -2.7270802392    0.0771651756
 H    0.5110142634   -1.5634450954    1.5821740958
 H    1.1204057030    1.2034324216    2.3261928249
 H    0.1247715574    0.1516539838    3.1043844548