20

 C   -0.2014337541    1.5562523941    0.0563593032
 C    0.0430897229    0.0452837532    0.0288667100
 C    0.6835106476   -0.4180707926   -1.2803976530
 N    0.8111481984   -1.8829526769   -1.3014976576
 C    1.9889929325   -2.5325363307   -0.5775820867
 C    1.7354724094   -3.7537726514   -1.4996653541
 C    1.6003013853   -2.5236511461   -2.4344682013
 C    2.8570720521   -1.9472650680   -1.7247569829
 O    3.8013563515   -1.2482685202   -1.9169410893
 H    0.7339974820    2.1137002013   -0.0624556350
 H   -0.8746666996    1.8636749759   -0.7515245318
 H   -0.6551288118    1.8653141195    1.0025649757
 H    0.6923115439   -0.2368692400    0.8675367624
 H   -0.8988238494   -0.4964734791    0.1706414077
 H    0.0331163047   -0.1515508783   -2.1230060217
 H    1.6403411138    0.1071251138   -1.4353065772
 H    2.0984731874   -2.5005889470    0.5044853547
 H    2.5661879099   -4.4381650856   -1.6756436834
 H    0.7857169748   -4.2525922185   -1.3032830614
 H    1.2659226986   -2.4756962935   -3.4693739682