15

 C    0.0708907395    1.3821091855    0.0932567556
 N   -0.0680151642   -0.0549867229   -0.0654112359
 C   -1.2720326757   -0.6532897490   -0.0205975351
 N   -2.4533907113   -0.0714197840   -0.0199142843
 C   -3.3234673259   -1.1314796386   -0.0117684765
 C   -2.6462981308   -2.3181435966   -0.0000965610
 O   -1.2914255197   -1.9962635922   -0.0046345049
 C   -3.0720267963   -3.6936491818    0.0192716218
 O   -2.3466004991   -4.6668199583    0.0333365684
 H    1.0392936258    1.6903605100   -0.3056524426
 H   -0.7208066692    1.8785090081   -0.4698089975
 H   -0.0019242371    1.6974066627    1.1416899273
 H    0.7283180013   -0.6474300734    0.1041505105
 H   -4.3935255961   -0.9845145885   -0.0109231967
 H   -4.1810304513   -3.7851460708    0.0204006909