13

 O   -0.1280117972    1.3020314786    0.0112014894
 C    0.0662096580   -0.0313558087    0.0027183622
 C    1.1850290920   -0.8122619241   -0.0082864470
 N    0.6991413046   -2.1222884670   -0.0124895096
 N    1.1724828266   -3.3974681334   -0.0222506060
 C    0.0272712537   -4.0841438932   -0.0191020747
 N   -1.1367149165   -3.3666297443   -0.0081137161
 C   -0.6520059899   -2.1364874115   -0.0043888311
 N   -1.0681903170   -0.8293341827    0.0052174611
 H    0.7255934126    1.7470460144    0.0078532820
 H    2.2297431001   -0.5622536863   -0.0132262831
 H    0.0349413586   -5.1639145077   -0.0250145136
 H   -2.0149588158   -0.4937462041    0.0127821165