17

 N   -0.1818317268    1.2521525383   -0.0071110426
 C   -0.0089470855   -0.0893385679   -0.0825611506
 O    1.0690040191   -0.6177242357   -0.3029383793
 C   -1.2726596784   -0.9600086500    0.0800322460
 O   -0.8770902252   -2.3048103334    0.0877309303
 C   -2.0614192841   -0.6204061880    1.3292034685
 C   -3.1787468227    0.4022477010    1.2817237430
 C   -3.4926743419   -1.0648572603    1.4349747652
 H    0.6325304933    1.8427279730   -0.0553378071
 H   -1.0474247338    1.6405492303    0.3258316329
 H   -1.9151429220   -0.7534702084   -0.7962043589
 H    0.0725800578   -2.2811014864   -0.1237728739
 H   -1.4757815852   -0.6602383194    2.2435292286
 H   -3.3168598078    1.0536841336    2.1375478719
 H   -3.4165807390    0.8655520647    0.3282596110
 H   -3.9220161047   -1.5821095422    0.5839588767
 H   -3.8481706733   -1.4164275694    2.3964816584