17

 C    0.0103142980    1.5119980782    0.0705090279
 C   -0.1217880641    0.0188831075   -0.0268153999
 N   -1.2312728782   -0.5565101387    0.1171166367
 C   -1.4583113971   -1.9838574167    0.1071882809
 C   -0.2353347623   -2.8687389165    0.3395941664
 N    0.7374693630   -2.7401128403   -0.7309784012
 C    1.4879231955   -1.6392987337   -0.9856429786
 O    2.4221600064   -1.5976611765   -1.7397889288
 O    1.1508690011   -0.5052016386   -0.2601031210
 H    0.7478608572    1.7726632493    0.8360717377
 H    0.3773157925    1.9184111695   -0.8772004680
 H   -0.9541776309    1.9528505463    0.3176823900
 H   -2.2047357094   -2.1985434471    0.8826639763
 H   -1.9227946006   -2.2563995214   -0.8495289457
 H    0.2214681593   -2.6302637871    1.3087578941
 H   -0.5464346338   -3.9161408276    0.3757106453
 H    1.0504659036   -3.5633844466   -1.2189835221