19

 C   -0.0691277581    1.6138432513   -0.0877682853
 C   -0.0774753522    0.0901194413   -0.0760751762
 C    1.1040688886   -0.5728338883   -0.8366255313
 N    1.8027172571   -0.7420728691    0.4527805816
 C    2.5929915412   -1.9252309777    0.6841204097
 C    3.4252275130   -1.7960257818    1.9505062447
 O    3.7058456262   -2.7099652890    2.6804693467
 C    0.5373576819   -0.5560680900    1.1945684997
 H    0.9191138287    1.9985578834    0.1845201431
 H   -0.3216680838    2.0017859173   -1.0805034821
 H   -0.7973835536    2.0177436678    0.6237514623
 H   -1.0637028537   -0.2913590381   -0.3480051059
 H    0.8169352431   -1.5266521069   -1.3074101575
 H    1.6430158306    0.0367137419   -1.5716542444
 H    2.0123646818   -2.8643824181    0.7327912544
 H    3.3104787363   -2.0285536658   -0.1443959479
 H    3.7743226299   -0.7559325726    2.1421455432
 H    0.6166066326    0.0657932221    2.0936899095
 H    0.0508557504   -1.5078274375    1.4632576057