21

 C    0.0922473624    1.5421241913   -0.0462763572
 C   -0.0166711457    0.0402886846    0.0623862131
 C   -1.2917554198   -0.6154132243   -0.4799619564
 C   -2.1710535237   -1.1655674058    0.6439362705
 C   -2.3738354794   -2.6506704488    0.8137799414
 C   -1.4527144159   -1.9083308440    1.7490797870
 C    0.0679985779   -2.0136155943    1.6133317188
 C    0.6786224042   -0.7020033189    1.1273257015
 O    1.2003227848   -0.6790850558   -0.2102368709
 H    1.0247733185    1.8981764541    0.3989226586
 H    0.0725278279    1.8549246030   -1.0965009955
 H   -0.7473737728    2.0298290521    0.4617974636
 H   -1.8578744657    0.1003176054   -1.0835790752
 H   -0.9842760334   -1.4209142491   -1.1540006551
 H   -2.9971242186   -0.5269807735    0.9412095284
 H   -3.3256097970   -3.0038415028    1.1962994366
 H   -1.9206058588   -3.3077581624    0.0765478530
 H   -1.8156357726   -1.7492026405    2.7596280988
 H    0.5108411955   -2.3050139489    2.5699143451
 H    0.3388260196   -2.7915382082    0.8920788007
 H    1.2844374926   -0.1441431431    1.8419825732