17

 N   -0.1759434491   -1.2230645846   -0.0364243141
 C   -0.0992236569   -0.0711889062    0.0217225955
 C   -0.0286342566    1.3765154014    0.1005616182
 C    0.1635625871    1.9966290168    1.5099930105
 O    1.4241283758    2.5825882153    1.1338184185
 C    1.3409245317    2.0735000916   -0.2148233971
 C    2.5297779316    1.2312606109   -0.5960938010
 C    3.8761768571    1.6490299023   -0.1349955015
 N    3.2382539580    0.4377216178    0.4115489968
 H   -0.8642205444    1.8043091892   -0.4563257073
 H   -0.5793133299    2.7557189738    1.7758210504
 H    0.2666910603    1.2781597061    2.3288048416
 H    1.2157921640    2.8901874547   -0.9380839335
 H    2.4267718195    0.7442503206   -1.5641996851
 H    4.7425870124    1.4722069406   -0.7650476423
 H    3.9352336498    2.5260377907    0.5032940426
 H    2.8627080695    0.6658103289    1.3305262478