16

 C   -0.0038058167    1.5145924704   -0.1269389345
 C    1.3828904811    2.0649838957    0.1024296012
 C    2.4720878911    1.3367658615    0.3464286515
 C    2.5162734669   -0.1684873590    0.4374812692
 C    1.1574738354   -0.7574997106    0.2168882498
 N    0.9042144858   -2.0431768686    0.2417471551
 O   -0.4625547915   -2.1524261066   -0.0071200007
 C   -0.9764627971   -0.9231548419   -0.1719133198
 C   -0.0078330867    0.0197202817   -0.0440795333
 H   -0.6951651174    1.9517692544    0.6077268130
 H   -0.3738365961    1.8559950343   -1.1043820750
 H    1.4709952597    3.1474231295    0.0592786065
 H    3.4219619750    1.8432751301    0.4963214248
 H    3.2270225541   -0.5711212955   -0.2966651279
 H    2.9082253167   -0.4770296121    1.4159388165
 H   -2.0363468503   -0.8829951931   -0.3718586066