18

 C    0.1694721806    1.4985159245    0.3397264301
 C    0.0190857775    0.0154995856    0.0887460609
 N    0.8300742631   -0.6238098692   -1.0697307932
 C    2.2813566010   -0.5818019063   -1.0934416650
 C    2.9647292620   -1.0005707810    0.3909611697
 C    1.9795598077   -0.6368331244    1.3806066578
 C    0.7455821432   -1.0463340714    0.9453232610
 C    0.9381916291   -1.9222855758   -0.3095900595
 C    2.4416402581   -1.9924006613   -0.6040885620
 H    1.2186369766    1.7888752252    0.4378452214
 H   -0.2744962729    2.0665707681   -0.4839208861
 H   -0.3504957396    1.7816191697    1.2605159867
 H   -1.0221603904   -0.2308232073   -0.1448571660
 H    2.8610969064    0.0576004778   -1.7422052438
 H    4.0309661350   -0.8138950710    0.4551565049
 H    2.1209981522    0.2410189211    2.0025989939
 H    0.2423133781   -2.7192239085   -0.5684726844
 H    3.0010644325   -2.8233982158   -1.0123335365