11

 C    0.1122434877   -1.1860410255   -0.0053489537
 C    0.0114113192    0.0123625232    0.0025859418
 C   -0.1137992909    1.4127223212    0.0119762010
 C   -1.1931553922    2.2481765542    0.0315064791
 C   -0.6071415793    3.5411962201    0.0304148348
 N    0.7140430411    3.4864598910    0.0119561169
 O    1.0252633429    2.1543078729    0.0003543251
 C   -1.2794243618    4.7976681098    0.0465611396
 N   -1.8632351408    5.7951201034    0.0600799813
 H    0.2030620359   -2.2450653457   -0.0123795463
 H   -2.2367822518    1.9875347755    0.0445149204