22

 C    0.0306641504    1.5190925513    0.1018747001
 C    0.0287666916    0.0010791381    0.0377377382
 O    0.6985864257   -0.4992302251    1.1755937662
 C    0.7549748408   -1.9072476669    1.2164001203
 C    1.4957203441   -2.3244620410    2.4796789088
 C    1.6091310793   -3.8365423192    2.6152050273
 O    2.3055816215   -4.1275107141    3.8067135914
 C    2.4636804413   -5.5074337864    4.0247958017
 H    1.0554944588    1.9007081950    0.1190769201
 H   -0.4825931696    1.9390833796   -0.7683418511
 H   -0.4778336597    1.8651100635    1.0062567043
 H   -1.0053497491   -0.3835914655    0.0044929177
 H    0.5282579757   -0.3480376679   -0.8826403858
 H   -0.2646248164   -2.3323239228    1.2071484819
 H    1.2691872738   -2.2966246091    0.3195583651
 H    2.4990083687   -1.8859993639    2.4724008338
 H    0.9749690825   -1.9212402992    3.3543904655
 H    0.6067831115   -4.3007404230    2.6349002190
 H    2.1408772347   -4.2652672969    1.7468656987
 H    1.4935939561   -6.0238639332    4.1080418234
 H    3.0363672316   -5.9882255205    3.2151245393
 H    3.0097189367   -5.6311353429    4.9633006441