15

 C   -0.1417036812    1.6089335983   -0.0160604672
 C   -0.0418276602    0.0904720905    0.0060146366
 C    1.1558542064   -0.5945316470   -0.6962572995
 C    2.1085667267   -0.3536000281    0.5202632939
 O    2.5348121214   -1.7442468420    0.6206376223
 C    1.1174726435   -1.8091284524    0.2812658186
 C    0.7083870612   -0.5967659636    1.1729484984
 H    0.8194320771    2.0810487796    0.2144056639
 H   -0.4610552652    1.9684502359   -1.0003429922
 H   -0.8720735654    1.9663882226    0.7179955050
 H   -1.0109017123   -0.3668229067   -0.2265194393
 H    1.4371315000   -0.6150411264   -1.7496062625
 H    2.8465912159    0.4273361004    0.6978709253
 H    0.6458446701   -2.7848355833    0.1671983423
 H    0.4821960621   -0.6198027578    2.2394329044