16

 O   -0.0410385389   -0.0279237487    0.4510517085
 C   -0.0729135957    1.1639013510    0.2272378275
 C    1.1278814706    1.9460717877    0.0020539467
 C    2.1207404313    2.5992522058   -0.1882012125
 C   -1.3698520213    1.9165407324    0.1420999714
 C   -2.0685636010    2.4476100740   -1.1498727212
 C   -2.8965852879    2.9059614249    0.0756958867
 C   -2.7594100111    1.4746774647    0.6664587858
 N   -1.5711567990    3.3177332401    0.7085275582
 H    3.0011728149    3.1716284504   -0.3535708121
 H   -1.5290819112    3.2335859908   -1.6772537998
 H   -2.5109889942    1.6990427924   -1.8076496212
 H   -3.7623468709    3.5678146675    0.0926041661
 H   -3.2614408532    0.6502829235    0.1534407863
 H   -2.8477048749    1.3904843472    1.7529920222
 H   -1.6550571176    3.2445405564    1.7285974674