17

 C   -0.3716175611    1.4461956210   -0.3118399304
 C   -0.0249970895   -0.0453572328   -0.2578360712
 C    0.8672818657   -0.5194713354   -1.3998068429
 C    0.8163130390   -1.9709202473   -1.8317917586
 N    0.2967981604   -0.9342814798   -2.6811124270
 C   -1.0384459301   -0.8278095950   -3.0568025724
 O   -1.7475377252   -1.7690015112   -3.3046997974
 C    2.1418032604    0.1725694221   -1.5020728192
 N    3.1541078562    0.7283317222   -1.5453436189
 H    0.5326902213    2.0615798995   -0.3025643874
 H   -0.9395737763    1.6963245469   -1.2132836591
 H   -0.9786186370    1.7247860306    0.5536129056
 H    0.4929400375   -0.2701356331    0.6816655216
 H   -0.9360806572   -0.6539212013   -0.2702265378
 H    1.7244979063   -2.4588946240   -2.1715239452
 H    0.0963725818   -2.6069856211   -1.3226534418
 H   -1.3502038122    0.2251202487   -3.1766262080