16

 C    0.0013643321    1.4949537029    0.0066177969
 C   -0.0067774749   -0.0044295036   -0.0018002108
 C    0.5899221136   -0.9813328634   -1.0851835183
 C    0.0048339984   -1.9643495227   -0.0130168778
 C    0.6106127220   -0.9934835111    1.0587287473
 C    0.0312297746   -3.3957586272   -0.0213840972
 N    0.0361085627   -4.5524659719   -0.0279871381
 C   -1.2000226106   -0.9699148734    0.0042740345
 O   -2.3860276715   -0.9766029257    0.0155696198
 H    1.0234815036    1.8859384868   -0.0005662823
 H   -0.5202348044    1.8896298646   -0.8707603495
 H   -0.5039762073    1.8796067601    0.8978538123
 H    0.1305665664   -0.9909268130   -2.0745159487
 H    1.6808558712   -0.9827224322   -1.1356637882
 H    1.7023175807   -0.9953142467    1.0881174016
 H    0.1704408335   -1.0143455836    2.0565724783