23

 C    0.1725971148    1.6080484719    0.0065016238
 C    0.0312306227    0.0810069651    0.0062273150
 C    0.5176928527   -0.5253277336   -1.3274407938
 C    0.6694379474   -2.0240750239   -1.2876556109
 C    0.9507860841   -2.7049549779   -0.1715845490
 C    1.1183136882   -4.2000440805   -0.1497116022
 C    1.1316098902   -1.9975933385    1.1271414117
 C    2.1758711515   -0.8919866123    1.2339572209
 C    0.7117446648   -0.5476301598    1.2114108092
 H    1.2267388092    1.9004027638   -0.0577437323
 H   -0.3532747378    2.0553859040   -0.8440510061
 H   -0.2386301457    2.0462427276    0.9221724840
 H   -1.0373101832   -0.1623761048    0.0962014709
 H   -0.1818569724   -0.2394366984   -2.1222236030
 H    1.4740088135   -0.0577900353   -1.6093211736
 H    0.5715560655   -2.5594127561   -2.2291708944
 H    0.9786315428   -4.6363421841   -1.1423680465
 H    2.1163811358   -4.4808155798    0.2107748381
 H    0.3986939549   -4.6698826844    0.5335381963
 H    0.9940727326   -2.6097863356    2.0138834331
 H    2.7125719874   -0.7861386512    2.1708051793
 H    2.7764690854   -0.6991435162    0.3517118726
 H    0.2924001457   -0.2339940502    2.1643064967