21

 C   -0.3282501060    1.4292374939    0.0032091800
 C   -0.2501063074   -0.0834389273    0.1202621895
 O   -0.4223384603   -0.6513984958    1.1749015554
 C    0.0598082164   -0.8453424872   -1.1645567959
 C   -0.0304447597   -2.3547856859   -1.0182329617
 C   -1.4313154904   -3.0159349515   -0.8861658076
 C   -0.9241438167   -4.1701421627   -1.7714727137
 O   -1.8739546410   -4.6448143541   -2.6973825877
 C    0.2201346831   -3.2420340453   -2.2701058003
 H    0.5667434796    1.8303124453   -0.4847404634
 H   -1.1830364430    1.7099774286   -0.6232600031
 H   -0.4444468317    1.8735455296    0.9924286228
 H   -0.6118612528   -0.4852781461   -1.9567316490
 H    1.0681277876   -0.5444349358   -1.4880245966
 H    0.6052625818   -2.6713354923   -0.1870294536
 H   -1.8029335234   -3.2458365078    0.1129415683
 H   -2.1922140876   -2.4493677162   -1.4337813838
 H   -0.5218498792   -4.9899432213   -1.1588145591
 H   -1.4806149428   -5.3725971472   -3.1892562285
 H   -0.0955398737   -2.7351367899   -3.1882429468
 H    1.2170691174   -3.6668284409   -2.4162400950