19

 O    0.0458026889    1.2615477237   -0.5216735429
 C    0.0049067959   -0.1389549594   -0.3400850151
 C   -1.3633990271   -0.5708639761    0.1823828222
 O   -2.3743931487   -0.0719490468   -0.7188844445
 C   -3.1260320809   -1.1344332560   -1.2438294649
 C   -2.4149985870   -2.1186934105   -2.1309990751
 C   -2.6776470028   -2.4355583640   -0.6612800710
 C   -1.5647678199   -2.1153424385    0.3222994365
 O   -0.3767005363   -2.8749804920    0.1593951658
 H   -0.7476080980    1.4841565298   -1.0242012094
 H    0.2391141590   -0.6681837454   -1.2780482088
 H    0.7798036344   -0.4027154180    0.3845844252
 H   -1.5309956052   -0.0684490470    1.1426823307
 H   -4.1640009324   -0.8714626994   -1.4132692229
 H   -2.9997563292   -2.6698241411   -2.8594687438
 H   -1.4120094525   -1.8657494933   -2.4608165303
 H   -3.3703767619   -3.2319830128   -0.4191178042
 H   -1.9015407826   -2.3424299680    1.3379152591
 H   -0.2494421935   -3.0254983052   -0.7832057967