19

 C    0.2290173324    1.7070099981    0.4481666024
 O    0.0486158905    0.3121438417    0.2149730905
 C    0.8247342900   -0.5297337269    0.9279045718
 C    0.5290200675   -1.9654460154    0.5822598534
 N    1.6726391405   -0.0914436215    1.7642146019
 C    2.4873556158   -1.0325294201    2.5103828405
 C    3.4629428152   -0.3540740340    3.4804175316
 N    3.4016532655    0.9991938572    3.4812891905
 O    4.2130353544   -1.0143562458    4.1743873686
 H    1.2530742133    2.0122563828    0.2135451924
 H   -0.4779747204    2.2105128072   -0.2124108183
 H    0.0196772166    1.9579995560    1.4922449657
 H   -0.2510134810   -2.0245355086   -0.1762426612
 H    1.4315181282   -2.4608081038    0.2100354091
 H    0.2062133606   -2.5125594551    1.4738699287
 H    1.8825837239   -1.7204036392    3.1180092506
 H    3.1010160426   -1.6668242430    1.8552498549
 H    2.7466846250    1.4552711142    2.8676559179
 H    4.0105116794    1.5193300162    4.0890679890