21

 O    0.1033837701    1.3970940549   -0.2069053073
 C    0.0420896678   -0.0048612273   -0.0190344803
 C    0.7111717651   -0.5387315627    1.2891530990
 C   -0.4062712827   -1.3286122904    2.0194289544
 C   -1.2910109090   -1.7939707285    0.8437373661
 C   -1.4347183843   -0.4682195785    0.0829703206
 O   -2.2696200349    0.4240152580    0.8049900665
 C   -1.7833265726    0.7894922094    2.0939265642
 C   -1.2678057145   -0.4083696369    2.9059545817
 H    1.0284453953    1.6404812663   -0.3092897269
 H    0.4837801471   -0.5182070286   -0.8865690763
 H    1.5539094828   -1.1960037310    1.0529072146
 H    1.0998587958    0.2912560357    1.8881132052
 H   -0.0064034866   -2.1561115082    2.6118420397
 H   -0.7824683349   -2.5459573642    0.2285626321
 H   -2.2598838398   -2.1946992598    1.1523149200
 H   -1.9007298981   -0.5600278738   -0.9007537225
 H   -0.9876448807    1.5365147127    1.9791306773
 H   -2.6239091613    1.2725948028    2.6008557771
 H   -2.1094355181   -0.9857068378    3.3065443633
 H   -0.6925445763   -0.0355713621    3.7621724015