21

 C   -0.0501505446    1.5540942843    0.1157218586
 C   -0.0325583610    0.0365233917    0.0207603849
 C    0.7969244746   -0.5746292461   -1.2001289497
 C    1.0092598976    0.2156288330   -2.4819106553
 C    1.9229339678   -0.6921887177   -0.1957221556
 C    3.1034965952   -0.1730871900    0.1224928434
 C    3.0880198353    0.1089810971    1.6187957201
 O    1.7036085480    0.0225503437    2.0127563967
 C    1.0125838678   -0.6609372815    0.9851570857
 H    0.9603625786    1.9706676672    0.0697834434
 H   -0.6392579195    1.9963455756   -0.6940087901
 H   -0.4893604871    1.8683519601    1.0670639021
 H   -1.0463120750   -0.3671442950    0.1014106111
 H    0.3733023762   -1.5578016139   -1.4364321751
 H    1.4219355411    1.2076892400   -2.2782747710
 H    1.7062894555   -0.3063891380   -3.1461063953
 H    0.0670384124    0.3427379468   -3.0255246011
 H    3.9025617655    0.1532234949   -0.5310636726
 H    3.6883854882   -0.6003907338    2.2112485919
 H    3.4557498323    1.1185868040    1.8441982816
 H    0.6311136412   -1.6240351523    1.3515322263