9

 N   -0.0087808762    1.3803856088    0.1611507145
 C    0.0377270269    0.0080778827    0.0362549500
 N   -1.0293450366   -0.7511114011    0.0001700689
 O   -0.5537327823   -2.0459091166   -0.0393545896
 N    0.8042100808   -2.0763095829   -0.0425122919
 C    1.1920013983   -0.8344667414    0.0065541246
 H    0.7281544089    1.8758941272   -0.3185210212
 H   -0.9201375846    1.7721737091   -0.0324374289
 H    2.2387241748   -0.5729426658    0.0227668036