21

 C   -0.0069815761    1.3372744397    0.0404086437
 O   -0.0797914083   -0.0763825988    0.0031281538
 C   -1.3614341949   -0.5752599263    0.0605354358
 C   -2.4112311696   -0.4603090661    1.1886520770
 C   -3.0500010487   -1.3714425930    0.1185092371
 C   -2.4550138846   -0.5578050968   -1.0763794455
 C   -1.8655065527   -1.8162896219   -1.7409757012
 C   -1.6844806646   -2.0795965751   -0.2271280024
 C   -1.0749320926   -3.2729610633    0.4558179547
 H    1.0504596665    1.6052063009   -0.0126270530
 H   -0.5352052028    1.7912231198   -0.8098248071
 H   -0.4307924210    1.7404930778    0.9706131730
 H   -2.1605809217   -0.9204266295    2.1496869645
 H   -2.8828574195    0.5161062664    1.3389730728
 H   -4.0273823542   -1.8501770659    0.1293987347
 H   -2.9114203801    0.3216284299   -1.5326175091
 H   -2.5690633328   -2.4684317604   -2.2695053685
 H   -0.9503568005   -1.6825772692   -2.3256550254
 H   -0.0261630681   -3.3936626003    0.1637603327
 H   -1.1075224665   -3.1702781651    1.5461397977
 H   -1.6058749073   -4.1935186528    0.1894106949