17

 C   -0.6370906957    1.2612915798    0.0073448497
 O    0.7878892657    1.1169355075   -0.0086206321
 C   -0.0042172566   -0.0642160733   -0.0002430760
 C    0.0565461754   -0.9853668721    1.2177908018
 C   -0.4422004052   -2.3116327235    0.6746556964
 C   -1.6983071944   -2.3020852559   -0.1186819018
 N   -0.3997724617   -2.3156456245   -0.8095009638
 C    0.0467566176   -0.9792620517   -1.2296468754
 H   -1.0547732270    1.6589562543    0.9321755357
 H   -1.0755699898    1.6589399508   -0.9078332186
 H    1.0973400577   -1.0755246436    1.5493832781
 H   -0.5300146784   -0.6115868638    2.0617839737
 H   -0.1203198331   -3.2265544198    1.1629143550
 H   -2.2773324637   -3.2142143398   -0.2287966256
 H   -2.2897092004   -1.3883996478   -0.1355375291
 H   -0.5586646257   -0.6115713753   -2.0636266987
 H    1.0843793853   -1.0553747611   -1.5747933092