18

 C    0.0331235386    1.4780785889    0.0573474211
 C    0.0441700443    0.0225714268    0.0755190943
 C    0.0558005474   -1.1809852548    0.0805467070
 C    0.0642440220   -2.6399367707    0.1149768158
 N   -1.2725178330   -3.2018782261   -0.0324296573
 C   -2.2508820355   -2.9328037244    1.0500025252
 C   -2.6148209467   -4.4235554653    1.0088789605
 O   -3.4831635619   -5.1011487088    1.4668705914
 C   -1.3944342574   -4.6721545731    0.1088869680
 H    0.7807272546    1.8715118050   -0.6400938713
 H   -0.9443135729    1.8607571310   -0.2560597112
 H    0.2506284714    1.8932231865    1.0475125834
 H    0.6841483340   -3.0285815086   -0.7032710120
 H    0.5461244468   -2.9777466616    1.0562548335
 H   -1.7987346936   -2.6567843758    2.0169797896
 H   -3.0348842082   -2.2097323159    0.8068155326
 H   -1.5519287867   -5.2251232413   -0.8227827095
 H   -0.5743326131   -5.1472303918    0.6742784690