18

 O    0.0986969852    1.4542218061   -0.1042339847
 C    0.0339518492    0.0618054326    0.0302928225
 C    0.0183003489   -0.6335946164    1.4162760685
 C   -1.0636550951    0.2320240071    2.1420011575
 C   -2.1563494315    0.0076555445    1.0719485089
 O   -2.7656505390    0.8941898249    0.0779947755
 C   -2.4540040279   -0.1023159243   -0.9489803908
 C   -1.3421568334   -0.6266776869   -0.0239421868
 N   -0.7503599618   -1.7920256381    0.7384429493
 H    1.0234130508    1.7129903393   -0.1689856090
 H    0.7249872927   -0.4463788807   -0.6574373878
 H    0.9199661337   -0.9127882524    1.9626616811
 H   -1.3546408763   -0.1463548159    3.1230354778
 H   -0.7144525258    1.2622539927    2.2279701287
 H   -2.9342918325   -0.6632667807    1.4536505379
 H   -3.2940381640   -0.7893254564   -1.1118074639
 H   -2.1451908411    0.3654296157   -1.8877448745
 H   -0.0590319220   -2.2782893811    0.1619765497