14

 C    0.0975766529    1.4075315046    0.1164812926
 N   -0.1295843725   -0.0073994887   -0.1037189890
 C    0.5475135803   -0.6429726898   -1.1123285424
 C    1.2169035343   -0.1349092088   -2.1962446809
 O    1.6706892168   -1.1949654685   -2.9380663741
 C    1.2620976666   -2.2803754918   -2.2546827893
 N    0.5946514438   -2.0217838318   -1.1668407591
 C    1.5953987603   -3.5572206582   -2.7755530710
 N    1.8686260153   -4.5975590207   -3.2018549867
 H    1.1530793047    1.6540422283    0.3101998957
 H   -0.2295018414    1.9776565841   -0.7603638955
 H   -0.5014490206    1.7374304710    0.9669884879
 H   -0.2354554441   -0.5786630738    0.7209377436
 H    1.4412536537    0.8464769842   -2.5709738019