21

 C   -0.2448482941    1.5293047474   -0.1348357822
 C    0.0180351058    0.0081705742   -0.0044857028
 C    0.8134401211   -0.2884581352    1.2892504569
 C   -1.2945547422   -0.6524932686    0.1104863163
 N   -2.3306432779   -1.1583947550    0.1998962324
 C    0.7588118298   -0.5379070440   -1.2531902782
 C    2.1007769544    0.1049247714   -1.5539614290
 C    0.5570087125   -1.9555728620   -1.6518611797
 N   -0.0134750402   -0.8609955597   -2.4637632781
 H    0.6991163473    2.0785708744   -0.1160941888
 H   -0.7631331294    1.7595160167   -1.0692393392
 H   -0.8597736483    1.8831482213    0.6965471321
 H    0.2552864630    0.0457488957    2.1678227033
 H    1.0097302912   -1.3585927026    1.3910739727
 H    1.7687619900    0.2414245545    1.2732983073
 H    2.8187510724   -0.0446260258   -0.7418135800
 H    2.5125350971   -0.3448890461   -2.4597215220
 H    2.0065807574    1.1791721695   -1.7377501610
 H    1.3735603735   -2.4979560993   -2.1207029457
 H   -0.1250354033   -2.5716772377   -1.0732972623
 H   -1.0138740801   -0.8024110792   -2.2815440520