20

 C   -0.1536809855    1.4839112175   -0.0265398328
 C    0.0917618109    0.0144679139    0.0308655498
 C    0.3898704484   -1.0134471162   -0.9970902507
 C    1.2532916347   -1.8852093407   -0.0661530848
 C    0.3210323575   -3.0201592458    0.4159851626
 C   -0.5520746354   -1.8616470339    0.9401716651
 C   -1.6695039604   -2.0205020254    1.9306950816
 C    0.7101510144   -0.9459899925    1.0851305114
 N   -0.9384193566   -1.0276137475   -0.2850800620
 H    0.7887411073    2.0425981698   -0.0518935431
 H   -0.7250713714    1.7336148576   -0.9261420796
 H   -0.7261771197    1.8266279533    0.8429285891
 H    0.3780651276   -0.9575889108   -2.0792079303
 H    2.3090364762   -2.0237326669   -0.2904226392
 H   -0.1080808025   -3.7033025404   -0.3232621808
 H    0.7623510999   -3.5853627108    1.2435733522
 H   -1.3267728913   -2.5373905474    2.8328679011
 H   -2.0722753140   -1.0457097480    2.2248158766
 H   -2.4891748181   -2.5996498450    1.4908462002
 H    1.2470813580   -0.7197875310    2.0036759537