14

 O   -0.1638050980    0.1942315998    0.5514395900
 C    0.0768882047    1.1130054928   -0.1839418384
 C    1.3842635333    1.8815936079   -0.1455176594
 O    1.3134101518    2.8873742658   -1.1488419544
 C    2.3888692576    3.6792127112   -1.2694482602
 N    3.4831235805    3.5737102114   -0.5214002890
 N    4.2526592661    4.5544922318   -1.0028973587
 N    3.7478951531    5.2739652344   -1.9896347565
 C    2.5454161424    4.7363114421   -2.1873029137
 H   -0.6404017431    1.4742486159   -0.9529515225
 H    1.5307223339    2.3231232285    0.8485787378
 H    2.2254659156    1.2001539695   -0.3261737757
 H    5.1700211141    4.7323640006   -0.6297057377
 H    1.8700794280    5.1058304583   -2.9401195614