19

 C   -0.0612857261    1.5515884778   -0.0158847433
 C    0.0044859852    0.0141445400    0.0076187631
 C    0.7355421094   -0.4793746475    1.2643324963
 O   -1.3136862559   -0.5252545863    0.1095017999
 C    0.6612173744   -0.5323839080   -1.2412547103
 C    0.3802123239   -1.6717659703   -1.9728261750
 C    1.3282856250   -1.6759427892   -3.0177737800
 N    2.1428622089   -0.6273835722   -2.9555978589
 N    1.7164369987    0.0508453398   -1.8698210304
 H    0.9345249041    2.0078326600    0.0125081968
 H   -0.5719294596    1.9087896220   -0.9161428960
 H   -0.6146538209    1.9006018239    0.8596216641
 H    0.2291437639   -0.1057445785    2.1590610638
 H    0.7337319639   -1.5711788633    1.2902290323
 H    1.7722559302   -0.1318743633    1.2732993561
 H   -1.7783541076   -0.3158571883   -0.7086704404
 H   -0.3942028491   -2.3905945366   -1.7628845270
 H    1.4487776267   -2.3983345627   -3.8119729773
 H    2.1847106647    0.9055892226   -1.6220171638