20

 C    0.1265705432    1.3289681261    0.2272413378
 O   -0.0978402209   -0.0528726329   -0.0587489398
 C    0.5657842310   -0.5181942604   -1.1483855398
 O    1.3112283567    0.1465574053   -1.8369736712
 N    0.2621207182   -1.8231179720   -1.3678919012
 C   -0.2505466575   -2.8487550481   -0.4522394601
 C    0.3685601796   -3.9239269263   -1.3884728713
 C    1.0381774262   -2.7662193886   -2.1912429536
 C    0.7949709145   -2.6825972249   -3.6883030630
 H    1.1857634541    1.5217674311    0.4172239862
 H   -0.1978682186    1.9574882825   -0.6063793353
 H   -0.4641710846    1.5466040593    1.1178308373
 H    0.1957260121   -2.8006031236    0.5472073020
 H   -1.3396040624   -2.8562244544   -0.3495066269
 H    1.0504403805   -4.6301062369   -0.9145974400
 H   -0.3724505141   -4.4753110583   -1.9703755998
 H    2.1128362231   -2.6765590146   -1.9855970419
 H   -0.2718926860   -2.7754321774   -3.9157601346
 H    1.1500090627   -1.7224614274   -4.0717939431
 H    1.3326406021   -3.4843881485   -4.2058608117