18

 O    0.4820830197    1.0363449681   -0.5731634709
 C    0.1356889756   -0.2167227092   -0.0616890761
 C    0.2402117630   -0.3792272105    1.4786437622
 O   -0.1126164977    0.8659562548    2.1261887686
 C   -1.4577426370    0.3854799652    2.4075729104
 C   -1.2359986891   -0.8751385080    1.5579950549
 C   -1.3606646058   -0.6024659959    0.0523994541
 C   -2.4808303431   -0.0195618581   -0.7150767747
 N   -2.1078547124   -1.4403719858   -0.8771160145
 H    0.2499915781    1.6671749368    0.1247482303
 H    0.7102767763   -0.9754311163   -0.6069988274
 H    1.1167375910   -0.8539010858    1.9239639323
 H   -1.5809735477    0.1965267340    3.4805077274
 H   -2.2276775189    1.0867493939    2.0675311594
 H   -1.5589964422   -1.8440064788    1.9324399518
 H   -3.4456563534    0.1448115773   -0.2420902498
 H   -2.2262406378    0.6854861161   -1.5022150316
 H   -1.5739285387   -1.5640752877   -1.7356839664