12

 N   -0.0245121282    1.3520522281    0.1205950130
 C    0.0360089918   -0.0012871655   -0.0788318713
 O    1.0388251236   -0.5869834950   -0.4135183339
 N   -1.2061419110   -0.6864765722    0.1204925099
 C   -1.1089660540   -2.0868071885    0.3875527903
 O   -2.0416727017   -2.8243788368    0.5033248022
 C   -2.4469505404   -0.0324302363   -0.0768480454
 O   -3.5205656229   -0.4861203507    0.1914330484
 H    0.8695069974    1.8152583728    0.0615501511
 H   -0.6890164230    1.7484116424    0.7649490860
 H   -0.0529693044   -2.3817704785    0.4654218622
 H   -2.3014905075    0.9602599302   -0.5379008826