23

 C    0.4689328586    1.5781856013    0.1412984454
 C    0.0328711805    0.1089770796    0.0505717037
 C   -1.4774343360    0.0024024928   -0.2077989343
 C    0.8158334834   -0.6176154400   -1.0408300431
 O    2.2209596265   -0.4630446555   -0.8329394996
 C    2.8100657429   -1.3963097250   -1.6965221653
 O    1.9385950573   -2.5111396879   -1.7816907137
 C    0.6968586436   -2.1557406868   -1.1549890049
 C    0.5632006384   -2.9149323758    0.1623668814
 H    1.5395162559    1.6589921571    0.3391421945
 H    0.2577845073    2.1064306963   -0.7963533431
 H   -0.0737597991    2.0914268731    0.9415664356
 H    0.2628487654   -0.3753940156    1.0070188270
 H   -1.7447408508    0.4706605089   -1.1624165785
 H   -1.8245113454   -1.0348983448   -0.2370430373
 H   -2.0369250210    0.5170693313    0.5792819394
 H    0.5492018025   -0.1789813445   -2.0199797153
 H    2.9502141571   -0.9684660944   -2.7055373344
 H    3.7795170329   -1.6965672451   -1.2823466248
 H   -0.1126402868   -2.4366281672   -1.8382361429
 H    1.3251844777   -2.5889021011    0.8760521697
 H   -0.4242417980   -2.7769790524    0.6136368422
 H    0.7057616570   -3.9827865642   -0.0238890619