17

 C   -0.0144407112    1.5395603301   -0.0080902819
 C    1.4231377855    2.0624377091    0.0619237356
 O    2.1011099155    1.6677536004    1.2607099746
 C    1.9245066295    0.3621304722    1.5611333536
 N    2.6790544483   -0.2346273435    2.4703002241
 N    2.1756252704   -1.4942208312    2.5017989879
 C    1.1445017975   -1.6874418772    1.6448178711
 C    0.9389695385   -0.4861207290    0.9976099226
 C   -0.0379389032   -0.0020396120   -0.0316753024
 H   -0.5627452731    1.9085481625    0.8662644551
 H   -0.4996874836    1.9524322158   -0.8985279158
 H    1.9966956567    1.7076053593   -0.8077063360
 H    1.4479208696    3.1546075784    0.0638432409
 H    2.5900608610   -2.1608616425    3.1281570038
 H    0.6440495624   -2.6403114943    1.5656354306
 H   -1.0509340536   -0.3715874681    0.1619035524
 H    0.2347113098   -0.3580247899   -1.0345862962