19

 C    0.0977042393    1.5651362505    0.0435393154
 C   -0.2661487050    0.1036164158   -0.2365099471
 C    0.6890876002   -0.5600570349   -1.2081628575
 O    2.0543433616   -0.6655658291   -0.6643346478
 C    2.0744883933   -2.0436736964   -0.8153109515
 N    2.9632868142   -2.8865679274   -0.5560152287
 C    0.6786284219   -2.0860613341   -1.3538136169
 C   -0.4112829496   -3.0609131466   -1.1245675074
 N    0.2099581073   -2.9201860269   -2.4516270706
 H    1.1067900884    1.6363040316    0.4586433635
 H    0.0678511458    2.1643977617   -0.8729928104
 H   -0.5983853190    2.0119152429    0.7588888064
 H   -0.2748494557   -0.4727519619    0.6956896287
 H   -1.2782103807    0.0402739409   -0.6585468948
 H    0.7270525472   -0.0241503667   -2.1648447091
 H    3.8035859653   -2.4431411871   -0.1819686070
 H   -0.1863988859   -3.9925549868   -0.6144348806
 H   -1.4127266229   -2.6698752779   -0.9624551444
 H   -0.3870766056   -2.3734234776   -3.0690220405