23

 C   -0.0210308783    1.5940254996    0.0605165718
 C    0.0119640948    0.0617833750    0.0838658846
 C   -1.3762446403   -0.5697429416   -0.0376357787
 C   -2.0867365990   -0.4427705020   -1.4317099809
 C   -2.3607252754   -1.9442143575   -1.6540758695
 O   -2.8303447631   -2.3686271443   -0.3337614685
 C   -1.4417608174   -2.1132852440    0.0532008819
 C   -1.0005998909   -2.6209396173   -1.3452646559
 C   -0.9619005276   -4.1329436829   -1.5098322969
 H    0.9844695900    2.0150146178    0.1577387553
 H   -0.4501280709    1.9694104070   -0.8745817258
 H   -0.6290240421    1.9870656841    0.8828302658
 H    0.6622397887   -0.2991850294   -0.7229458026
 H    0.4756798386   -0.2736458807    1.0214742838
 H   -2.0201939678   -0.1599025217    0.7479965678
 H   -3.0112381635    0.1364739013   -1.3897968914
 H   -1.4416658053   -0.0136359228   -2.2052540499
 H   -3.0069198798   -2.2526741450   -2.4773070958
 H   -1.1433547029   -2.5969294511    0.9852482139
 H   -0.1143952253   -2.1509036772   -1.7839573042
 H   -1.8526983114   -4.5898292941   -1.0718451950
 H   -0.9158577160   -4.4113198594   -2.5683509297
 H   -0.0794369749   -4.5578426539   -1.0190874703