16

 N   -0.2277150272    0.9864700095    0.0522410318
 H   -0.1777704921   -0.0466113919    0.1968712644
 H    0.7005817977    1.3552492834   -0.1624820767
 H   -0.8561480278    1.1959730323   -0.7251096514
 C   -0.7567420327    1.4688679843    1.3664234770
 C   -1.3199300443    0.3816846482    2.2076216304
 O   -0.5983617012   -0.8255552039    1.8973297198
 C    0.6127356874   -0.2431223555    2.5301570791
 C   -0.0477057674    1.1143419386    2.6457632253
 C    0.1590031450    2.2267955487    3.7213349852
 O    0.9665733659    1.9030990764    4.5996753992
 O   -0.5349547816    3.2362090106    3.5031068223
 H   -1.1683900491    2.4717214439    1.3848969072
 H   -2.3260027446    0.3012439675    2.5986470222
 H    0.7765381815   -0.6866188756    3.5126339222
 H    1.5056488304   -0.3735761463    1.9050613020