22

 C   -0.3008872119    1.4767340245    0.0486618748
 C   -0.0018578564   -0.0159811491   -0.0546125989
 C    0.8721930088   -0.4437704718   -1.2556117685
 C    2.0154079860    0.5188164154   -1.6216352109
 C    1.4691541831   -1.7686396229   -0.7713076050
 O    2.0465440327   -2.5810764552   -1.4456675137
 C    1.2047794924   -1.8690134985    0.7277770856
 N    0.7534641972   -0.5364404348    1.0994103831
 C    0.0620879562   -0.4954919716    2.3726308203
 H    0.6101169110    2.0494515329    0.2408318530
 H   -0.7487796345    1.8365961657   -0.8830411313
 H   -1.0123036431    1.6876441981    0.8518092160
 H   -0.9708717551   -0.5509699550   -0.1427444023
 H    0.2648376799   -0.6320902014   -2.1462249896
 H    2.6239859013    0.7575330745   -0.7445811147
 H    2.6600119695    0.0515189546   -2.3708219773
 H    1.6279093104    1.4535910592   -2.0357949534
 H    0.4317826528   -2.6510786963    0.8821875746
 H    2.0979802937   -2.1817107976    1.2780325721
 H    0.7124153679   -0.8972995213    3.1559902895
 H   -0.1856042495    0.5336310233    2.6441129953
 H   -0.8736794724   -1.0884263926    2.3725830913