20

 C   -1.4841055277    0.1121792039    0.1359760215
 C    0.0402486727    0.1356393429   -0.0043535568
 C    0.6050934170   -0.6248394208   -1.2143544885
 O    2.0417685044   -0.4436266006   -1.1087915379
 C    0.3267788015   -2.1339989929   -1.1548632446
 O    0.8530982938   -2.7184488488    0.0179765567
 C    0.1636923889   -0.0241883167   -2.5570668224
 O    0.5397104364    1.3319671329   -2.6737769052
 H   -1.9827307795    0.5702456268   -0.7237019588
 H   -1.8699972549   -0.9048720656    0.2551586193
 H   -1.7839249209    0.6778644176    1.0230143956
 H    0.3849863255    1.1706270542   -0.0803732526
 H    0.4970988036   -0.2931313488    0.8918986498
 H    2.4495855509   -0.9061560360   -1.8524094058
 H   -0.7489267347   -2.3350109043   -1.1634281124
 H    0.7506167661   -2.6067838883   -2.0599950585
 H    1.7290280444   -2.3283725327    0.1344453624
 H    0.5980010769   -0.6294644506   -3.3740416842
 H   -0.9239707211   -0.0704933290   -2.6687337237
 H    1.4416863967    1.3838609667   -2.3321275540