21

 C   -0.3867249709    1.4719860864    0.1114190501
 C    0.2546870253    0.0914905236   -0.0813475989
 C    0.8505947772   -0.4796132961    1.1958227743
 C    2.0880582593    0.2219852536    1.7230340000
 C   -0.0794015438   -1.0876615347    2.2110044595
 O   -1.4504546835   -1.1187690609    1.9755402417
 C    0.8383047012   -2.0095958726    1.4052594332
 C    0.2165964985   -2.9012879191    0.4774568531
 C   -0.3743231120   -3.6537715519   -0.2558709588
 H    0.3355681270    2.2191608889    0.4554952437
 H   -0.8066875284    1.8346457876   -0.8320203309
 H   -1.1963223814    1.4157817879    0.8443236999
 H   -0.4982926691   -0.5973380717   -0.4711707920
 H    1.0444213386    0.1459013518   -0.8419323461
 H    1.8872786612    1.2784657089    1.9283354516
 H    2.4392181298   -0.2317729451    2.6554230977
 H    2.9077363250    0.1696195262    0.9973759871
 H    0.1655087747   -0.9632819774    3.2647194823
 H   -1.6662109402   -1.9549368081    1.5416204213
 H    1.6943172520   -2.4212500465    1.9323002027
 H   -0.8524012305   -4.3191401708   -0.9315088515