18

 C    0.0297896962    1.5271221498    0.2142572834
 C   -0.0366546536    0.0197303469   -0.0972284376
 C   -1.4316558736   -0.5278463615   -0.0903355050
 C   -2.1054115513   -1.0234762881   -1.1409954125
 C   -3.4555455347   -1.4752247099   -0.7527109033
 O   -4.3040243630   -1.9590740382   -1.4669109651
 C   -3.5925538598   -1.2177473218    0.7586398605
 C   -2.2577514718   -0.5784577371    1.1820421971
 H    1.0657315045    1.8762874578    0.1836872812
 H   -0.5448758715    2.1028326545   -0.5175162288
 H   -0.3682431800    1.7516512058    1.2081146093
 H    0.4265698861   -0.1735411694   -1.0701959177
 H    0.5590792732   -0.5209497597    0.6513664748
 H   -1.7389159524   -1.1034676665   -2.1572471471
 H   -4.4574188547   -0.5736303897    0.9409807250
 H   -3.7928259386   -2.1651506045    1.2675265744
 H   -1.7348698575   -1.1580784171    1.9533154476
 H   -2.3907741474    0.4257080786    1.6015179737