19

 C    0.1885398539    1.6295709315   -0.0444231536
 C   -0.0131359066    0.1010745787    0.0274503862
 C    0.4055065882   -0.5663879325   -1.2538290638
 C    1.5451987242   -1.2523198210   -1.3140847732
 N    2.3430397162   -1.4170586758   -0.1898255815
 C    1.8865430352   -1.1654863107    1.1020804683
 O    2.5245968065   -1.5438746161    2.0705976450
 N    0.6872623719   -0.5000719401    1.1745816166
 C    0.1386555897   -0.2439737481    2.4951297969
 H    1.2462260596    1.8665940387   -0.1918451115
 H   -0.3760167165    2.0404010233   -0.8876137873
 H   -0.1597285048    2.1266261427    0.8660075482
 H   -1.0857156069   -0.0818007448    0.1942038531
 H   -0.2118488396   -0.4325880942   -2.1320262972
 H    1.9148694307   -1.7181560277   -2.2200288308
 H    3.1521960420   -2.0145960418   -0.2163051612
 H    0.6596219105   -0.8771918640    3.2111875355
 H    0.2633557174    0.8021409684    2.8013954029
 H   -0.9324526215   -0.4784573968    2.5015648275