19

 C   -0.0335524486    1.5911434500   -0.0198571433
 C   -0.0490918690    0.0695246677   -0.0345732919
 C    0.8925832808   -0.5826456186   -1.0847242105
 O    2.0160356736   -0.3455026912   -0.1628101646
 C    1.0056076413   -0.6091462679    0.8687800446
 C    0.7893336805   -2.1256963836    0.6342035321
 O   -0.5705256107   -2.6139144382    0.7147968277
 C   -0.6568657542   -2.7368433744   -0.7258095863
 C    0.7385474927   -2.1087520310   -0.9140445970
 H    0.9893058828    1.9703011705   -0.0833664107
 H   -0.6042269868    1.9942052819   -0.8634732374
 H   -0.4885221582    1.9751286398    0.8992896959
 H   -1.0662536269   -0.3189296759    0.0413919465
 H    1.0445528808   -0.1691185216   -2.0822916337
 H    1.2755668210   -0.2486283835    1.8615465637
 H    1.4967471111   -2.7657646071    1.1669272053
 H   -0.7181811435   -3.7887846135   -1.0286523938
 H   -1.5147620982   -2.1942621785   -1.1411271010
 H    1.4729672013   -2.6738332350   -1.4857070357