17

 C   -0.0527524994    1.5122584902   -0.0284403963
 C    0.0947015599    0.0152251989   -0.0171958791
 N   -0.7746223221   -0.8246814365    0.8588898346
 C    0.7034460813   -0.7869990237    1.0785597667
 C    1.3917737933   -1.9453659101    0.4330303281
 C    1.2239676200   -1.9162164501   -0.8991870110
 C    0.4600525641   -0.7212130426   -1.2794130137
 N    0.1366805642   -0.2645095235   -2.4289748762
 O    0.5751514419   -1.1025068774   -3.4626215695
 H    0.8377579673    1.9896336849   -0.4483378456
 H   -0.9073300364    1.8109581573   -0.6431193273
 H   -0.2031375675    1.8965135761    0.9857865065
 H   -1.2137094034   -0.1974202778    1.5341535157
 H    1.0866513970   -0.3345952707    1.9868609650
 H    1.9119138067   -2.7161704729    0.9885431547
 H    1.5646533941   -2.6507655438   -1.6140797573
 H    0.2608670189   -0.6408673683   -4.2469731853