14

 N    0.0417356268    1.3001962359   -0.0613082240
 C   -0.0409219887   -0.0441915441   -0.0295636501
 N   -1.1923964485   -0.6466848876   -0.0217456417
 C   -1.0917515445   -2.0188600385   -0.0200198260
 N   -2.2777748935   -2.6611988622   -0.0306305725
 N    0.0042918394   -2.7384140940   -0.0150721234
 C    1.1934535264   -2.1012438044   -0.0185403645
 N    2.3383753950   -2.6343228556   -0.0138768438
 O    1.1489024029   -0.6369463507   -0.0269409248
 H    0.9328902245    1.7440449993    0.0736162788
 H   -0.8061332602    1.8277822434    0.0514044138
 H   -3.1269745384   -2.1305196321    0.0335207067
 H   -2.2878612607   -3.6638123072    0.0298414856
 H    3.0661747595   -1.9232866222   -0.0185161340