21

 C    0.0609299924    1.3543411877   -0.1698551002
 O    0.0101340694   -0.0244075761    0.1348635392
 C   -1.2642066816   -0.5688180523    0.0851358360
 C   -2.1595410497   -0.5974548469   -1.2112823893
 C   -2.8573364028   -1.7301938972   -0.3852479038
 C   -1.4187826589   -2.1172112853    0.1061875184
 C   -3.3696407261   -0.9326057713    0.8318333710
 C   -4.7176201681   -1.0740708672    1.4487642568
 C   -2.3209462750   -0.1637055856    1.1395047207
 H    1.1045677098    1.6643114318   -0.0810879620
 H   -0.2850862667    1.5561151078   -1.1939718507
 H   -0.5477874281    1.9530432394    0.5229557622
 H   -2.7536226380    0.2882907440   -1.4468459519
 H   -1.6259194383   -0.9679454940   -2.0924338987
 H   -3.5234240523   -2.4549372397   -0.8507442348
 H   -0.8155893101   -2.6164858504   -0.6583233012
 H   -1.3301572649   -2.6168834324    1.0730353717
 H   -4.8938055019   -2.1010449168    1.7945318300
 H   -4.8379039683   -0.4035894492    2.3045652656
 H   -5.5142287126   -0.8500965918    0.7272406294
 H   -2.1881159082    0.5521104156    1.9388326116