20

 C   -0.1023594119    1.3916955918    0.0168249246
 O    0.1653111163    0.0155403732   -0.1082589850
 C    0.7076888275   -0.5726658539    1.0599562616
 C   -0.3006673597   -0.8451909176    2.1736317010
 C   -0.2920211841   -2.1220727925    2.5520734214
 C    0.6767442152   -2.9266101077    1.7303043743
 C    1.4086724531   -4.1008123349    2.3230848363
 N    0.2369861838   -2.9390865680    0.3052579676
 C    1.2563626011   -1.9630435817    0.7612695304
 H    0.7976884763    1.9588370291    0.3060599880
 H   -0.4403365151    1.7435785775   -0.9611027704
 H   -0.8912994542    1.6047890735    0.7538786714
 H    1.5241632759    0.0717079268    1.4349517877
 H   -0.9531828175   -0.0752102758    2.5681996051
 H   -0.9190590633   -2.5642242227    3.3189199061
 H    0.7149375383   -4.9126563476    2.5711306446
 H    2.1515523665   -4.4969095481    1.6230713287
 H    1.9300472747   -3.8174710666    3.2439160535
 H    0.7305454664   -3.6893140193   -0.1790930167
 H    2.2709159909   -2.0614126053    0.3907417900