19

 C   -0.2644700939    1.5192701114   -0.1685883702
 C    0.1226385072    0.0537533475    0.0786292700
 C    0.8421023130   -0.5535516514   -1.0850047130
 O    0.0981999815   -0.8504344153   -2.2701485456
 C    0.8713373967   -1.9029397012   -1.6758802050
 C    2.3066627575   -1.7387255121   -2.1820982048
 C    2.3140734905   -0.2965386898   -1.5333996885
 C    2.5823606460    0.8504549502   -2.3764269697
 C    2.8095057399    1.8014326335   -3.0767579327
 H    0.6182951512    2.1345960454   -0.3656617634
 H   -0.9263140814    1.5991206212   -1.0354906238
 H   -0.7833115463    1.9348001443    0.7000606420
 H    0.7610747054   -0.0225682819    0.9677574448
 H   -0.7745772418   -0.5435444446    0.2767107911
 H    0.3424268630   -2.8072007646   -1.3966435471
 H    3.0299878183   -2.4067624804   -1.7100887982
 H    2.4178875777   -1.7706723045   -3.2670348669
 H    2.9739104027   -0.2885967579   -0.6592084248
 H    3.0013280627    2.6398872204   -3.6992256440