18

 C    0.1957297644    1.0988306365    0.4423225629
 O   -0.1830025289    0.1396244731   -0.5323823030
 C   -1.4197207762   -0.4867733600   -0.2884161111
 C   -1.8610023449   -1.1532094817   -1.6142778609
 N   -1.2521802870   -2.4782977649   -1.5468209651
 C   -0.7937400044   -2.8011332617   -0.3124872209
 O   -0.1004558309   -3.7404880700    0.0239082736
 C   -1.2950909704   -1.7144724154    0.6450022808
 O   -0.4432822211   -1.5848868973    1.7451916186
 H    1.1316606323    1.5424833168    0.0943634891
 H   -0.5611256112    1.8943774013    0.5261029210
 H    0.3472702768    0.6416783830    1.4236962276
 H   -2.1618213168    0.2422462464    0.0642798835
 H   -2.9540782972   -1.2114863127   -1.6901636535
 H   -1.4769545839   -0.5773675421   -2.4592811364
 H   -1.0209530161   -3.0280739605   -2.3583688350
 H   -2.3129949345   -2.0004717650    0.9666723229
 H    0.1107987100   -2.3818695560    1.7275794659