21

 C   -0.0227862377    1.5151564006   -0.3455064349
 C    1.4523307150    1.6286731307    0.1817284734
 C    1.3725461946    0.1442072555    0.6356295156
 C    1.3584277760   -0.3325240409    2.0789175429
 C    0.0950449076   -1.2381934523    2.1253495985
 C   -0.9294371083   -0.5672033721    1.1621735685
 C   -0.0450164082    0.0123692344    0.0603613136
 C    0.6165608794   -0.9554098755   -0.9439662108
 O    1.9190943349   -0.8006801861   -0.3157514815
 H   -0.7343911183    2.1209150334    0.2216760309
 H   -0.1682407761    1.7243215160   -1.4086979029
 H    2.2091169845    1.7978896493   -0.5865345797
 H    1.5962890250    2.3540889400    0.9864638476
 H    2.2722580545   -0.8612854937    2.3635350662
 H    1.2404890302    0.5233480437    2.7539352926
 H    0.3534428712   -2.2350828128    1.7512908215
 H   -0.2997280036   -1.3679897745    3.1369846932
 H   -1.6875000678   -1.2731105704    0.8070438412
 H   -1.4585449532    0.2409730195    1.6811940153
 H    0.2697002047   -1.9960634421   -0.8983790483
 H    0.6238014955   -0.6294303027   -1.9922076227