22

 C    0.1739170489    1.4647823024    0.3756054140
 C   -0.0262662298    0.0271535162   -0.1353008838
 C   -1.4564999177   -0.4250470759   -0.1219327250
 C   -2.1777366429   -0.8402213092   -1.1690767689
 C   -3.5412493786   -1.3054939006   -0.7621729012
 C   -4.7202610566   -1.1587978550   -1.6875448430
 N   -3.4499520013   -2.4881570712    0.1497963499
 C   -3.5853864717   -1.1244910315    0.7155339281
 C   -2.2671654001   -0.5108089644    1.1668559001
 H    1.2307088154    1.7462969479    0.3381306002
 H   -0.3892619395    2.1785885413   -0.2340813264
 H   -0.1614529566    1.5730566041    1.4118434830
 H    0.3696313132   -0.0590725974   -1.1534327554
 H    0.5722118843   -0.6533160957    0.4871975782
 H   -1.8210875833   -0.8861354800   -2.1928033595
 H   -4.6226444287   -1.8148147985   -2.5606700883
 H   -5.6559218862   -1.4156810717   -1.1795306828
 H   -4.8077755759   -0.1302876313   -2.0543097471
 H   -4.3678522598   -2.9318258177    0.1887879326
 H   -4.5061036769   -0.8689770122    1.2305190938
 H   -1.7633964680   -1.1310143486    1.9190993510
 H   -2.4206940083    0.4779485091    1.6187433104