18

 C   -0.2428141128    1.4714776507   -0.0691283162
 N    0.0127967478    0.0366896114   -0.0000914276
 C    1.3778245283   -0.4664278131   -0.2868628048
 C    2.4683011951    0.4224546691   -0.5762311090
 C    3.3866807624    1.1590640810   -0.8258544633
 C    0.7909082017   -0.4766692620    1.0907199104
 C    1.3245687046    0.2168989017    2.3444585793
 O    0.9992516027   -0.9477828764    3.1346552341
 C    0.4165111594   -1.6371391750    2.0056134948
 H    0.6010897685    2.0951673222    0.2554311680
 H   -0.4875613947    1.7366591916   -1.1012830041
 H   -1.1106136180    1.6975800755    0.5575826674
 H    1.3806691873   -1.3946604960   -0.8551423443
 H    4.1996069090    1.8044542549   -1.0510568154
 H    2.3972151909    0.4425639418    2.3513169612
 H    0.7653295766    1.1047698710    2.6677718628
 H   -0.6638472284   -1.7922344049    2.1210600877
 H    0.9064784095   -2.5982760436    1.8084400393