12

 O    0.0156361688    1.4399857568   -0.1040785102
 C    0.0122780507    0.0400135900    0.0094207328
 C    0.1302926226   -0.5586142992    1.4453446725
 O   -1.1963109561   -1.1043849413    1.3700950048
 C   -1.4294232989   -0.5216563012    0.0770983258
 C    0.8940468116   -0.5800923926   -0.9851769473
 N    1.6178601239   -1.0445551884   -1.7574584443
 H    0.9271005584    1.7523552894   -0.1433041940
 H    0.8919875276   -1.3307271599    1.5938687538
 H    0.2248578354    0.2250286090    2.2066030512
 H   -2.1687148247    0.2867136483    0.0997314361
 H   -1.7002119593   -1.2661091008   -0.6772134311