22

 C   -0.1929128886    1.5362271824    0.0704913484
 C    0.0086681629    0.0192682406    0.0378361733
 C    0.6247570199   -0.4716907008   -1.2771027273
 C    0.8058296091   -1.9948155581   -1.3111314368
 N   -0.5080181091   -2.6751442958   -1.2646444015
 C   -0.5562576552   -3.4203419662   -2.2865722706
 O    0.4907419591   -3.4822929179   -3.1373258610
 C    1.5087410478   -2.5983433821   -2.5774417199
 C    1.9801675218   -1.6510715919   -3.6688301070
 H    0.7561019332    2.0689472955   -0.0605313161
 H   -0.8671349134    1.8637379560   -0.7289032743
 H   -0.6263555794    1.8592819591    1.0221775985
 H    0.6559438403   -0.2832194380    0.8721850666
 H   -0.9468114315   -0.4922828195    0.1913523433
 H   -0.0111737092   -0.1622223416   -2.1160130456
 H    1.5995543170    0.0110188839   -1.4253202872
 H    1.3673975982   -2.2847161768   -0.4143526022
 H   -1.3973635051   -4.0453867028   -2.5681128416
 H    2.3389187414   -3.2454115875   -2.2741445890
 H    1.1699155910   -1.0065102907   -4.0188240546
 H    2.7941801336   -1.0181136807   -3.3034415588
 H    2.3537472163   -2.2246134170   -4.5214986765