16

 C    0.1128465950    1.5344672255   -0.1947358973
 C    1.5998588702    1.5196497576    0.2632617316
 C    1.5368338686   -0.0285627764    0.4804895390
 C    0.0012427781    0.0048137602    0.0533744716
 N    0.4200920642   -0.8247932820   -1.0963062548
 N    0.2041946933   -1.1275293956   -2.4006243444
 C    1.4631731299   -1.3618304550   -2.7847642375
 N    2.4574020806   -1.1451717342   -1.8565210950
 C    1.7265870230   -0.8033185278   -0.8114936859
 H   -0.5392838524    2.1125729967    0.4628215592
 H   -0.0803673602    1.8300700261   -1.2270405182
 H    2.3441539302    1.8505671322   -0.4619065877
 H    1.7585419162    2.0598277472    1.1984818234
 H    1.8977674002   -0.4442089141    1.4189179178
 H   -0.8289865574   -0.3911940921    0.6362122511
 H    1.6782823605   -1.7216134584   -3.7808698229