20

 C   -0.3609066487    1.3595208368    0.1149688305
 C   -0.1038185912   -0.1227271236   -0.1306314997
 C    0.8457718349   -0.3743350197   -1.3019356279
 C    0.6877752126   -1.7888556455   -1.8980258005
 N    0.4661794804   -2.8476456883   -0.9211524086
 C    1.3212265476   -2.8088818582    0.2444515485
 C    1.1020144904   -1.7572258792    1.3518167009
 O    1.5431152337   -1.9510464066    2.4536353785
 O    0.4100264705   -0.6148544348    1.1308542434
 H    0.5826738065    1.8914516412    0.2702092587
 H   -0.8743361608    1.8016256124   -0.7440543589
 H   -0.9816103097    1.4966009886    1.0035425118
 H   -1.0636017438   -0.6245704277   -0.3165364521
 H    0.6636319344    0.3712915611   -2.0840674248
 H    1.8708253379   -0.2035365472   -0.9515052038
 H   -0.1606555296   -1.8036778567   -2.5903694857
 H    1.5781249371   -2.0332710093   -2.4919984404
 H   -0.5085489835   -2.9070225748   -0.6557137676
 H    1.2749499042   -3.7654289738    0.7733316614
 H    2.3632328569   -2.7027955047   -0.0837890436