21

 O   -0.0483581300    1.4002466250    1.1033302713
 C    0.0593241884    0.3727529268    0.1230886359
 C   -1.2400147517   -0.2549197644   -0.0770571657
 C   -2.3074161945   -0.7840583497   -0.2540705444
 C   -3.5933650638   -1.4289648564   -0.4739797546
 C   -4.1260128438   -1.3404703241   -1.9242434843
 C   -5.2526044310   -2.3952645109   -1.9800419402
 C   -4.9206881142   -3.4371787355   -0.8681643395
 C   -3.6099011517   -2.9537807260   -0.2107777145
 H    0.8265370405    1.7885613362    1.2062688321
 H    0.4168349665    0.7785775204   -0.8378458190
 H    0.7878398537   -0.3947883499    0.4329420684
 H   -4.3330135650   -0.9595582458    0.1910790146
 H   -4.4610947480   -0.3338412972   -2.1863050033
 H   -3.3136127681   -1.6025845123   -2.6109706933
 H   -6.2225485923   -1.9277415456   -1.7841081547
 H   -5.3223137525   -2.8544343878   -2.9696835004
 H   -5.7268314578   -3.4719049998   -0.1287181230
 H   -4.8195399020   -4.4500853688   -1.2667424203
 H   -2.7396508125   -3.4023830061   -0.7025134822
 H   -3.5431455800   -3.1958348981    0.8528170572