12

 O    0.0032285109   -0.0867591538    0.0031084130
 C   -0.0134020816    1.1397983160    0.0105404477
 C   -1.2495705100    1.9303880939    0.0303615015
 C   -1.2327753959    3.2826965447    0.0365008513
 N   -0.0519447188    3.9785807542    0.0238705385
 C    1.1473336935    3.3151629415    0.0042741208
 C    1.2008294295    1.9638133806   -0.0028173872
 H   -2.1925706517    1.3976778580    0.0403582160
 H   -2.1303847161    3.8898939438    0.0513618699
 H   -0.0655930171    4.9839143955    0.0286687521
 H    2.0281230701    3.9466193046   -0.0049420039
 H    2.1579314116    1.4570217609   -0.0185489196