18

 C   -0.2238140430    1.3971799521   -0.3385349151
 O    0.1840099067    0.0887825253    0.0321749388
 C    0.7510649883   -0.6249954704   -1.0256411543
 C    1.0837453530   -2.0951492206   -0.6484859132
 N    0.2828867014   -2.5175542433   -1.8131613227
 C   -0.2149074109   -1.2352560607   -2.0572721175
 N   -1.1083971634   -0.7366213736   -2.7961199736
 C   -1.8992964596   -1.6586504217   -3.6013115099
 H    0.6343909588    1.9975920033   -0.6785645623
 H   -0.9742539915    1.3694570142   -1.1362559020
 H   -0.6484409727    1.8597483401    0.5552790836
 H    1.5855985000   -0.0728429466   -1.4831808390
 H    2.1335699572   -2.3969314834   -0.6919311028
 H    0.6525940065   -2.3574098513    0.3224707414
 H   -0.2345775781   -3.3812846196   -1.8842542395
 H   -2.6850039378   -2.1404307312   -3.0013634724
 H   -2.3963151090   -1.1063435625   -4.4032845885
 H   -1.2948208259   -2.4547903301   -4.0621643611