13

 C   -0.0311557836    1.4952808352    0.0333826154
 C    0.0007096052   -0.0005309620   -0.0408204138
 N   -0.0336133830   -0.5919556532   -1.1823650868
 C   -0.0021505028   -1.9796607890   -1.2112134244
 N   -0.0333463269   -2.6242780904   -2.2963793422
 O    0.0657307794   -2.6899264544    0.0063929778
 N    0.1022847389   -2.0521816812    1.2263095954
 C    0.0710690865   -0.7702514605    1.1973376958
 H    0.8629049152    1.8726211998    0.5436260991
 H   -0.0831869157    1.9170312432   -0.9701923962
 H   -0.8959767536    1.8314337806    0.6174785824
 H   -0.0023473922   -3.6280302845   -2.1158960908
 H    0.1007410927   -0.2853084236    2.1679009482