16

 C   -0.4603992552    1.1774706203   -0.1527248408
 O    0.4234801495    0.1070411881    0.1413472371
 C    0.9484306224   -0.5241031318   -0.9789270236
 C    2.0128913874   -1.5746442184   -0.5965340867
 N    1.0507293857   -2.6635830706   -0.8833475668
 C    0.1240104607   -1.7412366933   -1.5690282443
 C   -1.2784128548   -1.8725914077   -1.1760199476
 N   -2.3941836718   -1.9595209692   -0.8867167228
 H    0.0393478474    1.9436742593   -0.7643366302
 H   -1.3618556883    0.8339251786   -0.6739692162
 H   -0.7515249770    1.6162234320    0.8033521838
 H    1.2421577653    0.2048319085   -1.7452836175
 H    2.8969501831   -1.5453792045   -1.2454963585
 H    2.3282306075   -1.5295972341    0.4497093501
 H    1.3905747131   -3.4300816527   -1.4511979255
 H    0.1763988550   -1.7577467045   -2.6664447006