16

 C    0.1390408317    1.3099081141   -0.3110813599
 O   -0.0600182030   -0.0448285507    0.1032064217
 C   -1.3300660752   -0.4688546194    0.1951188018
 C   -1.3952174526   -1.8995249618    0.6632036915
 N   -2.2891857219    0.3179949431   -0.0957841531
 C   -3.6535967223   -0.1755266268    0.0120932468
 C   -4.1101316230   -0.3150825051    1.4047498740
 N   -4.4452669166   -0.4313939442    2.5047983753
 H    1.2191236494    1.4596009379   -0.3081231240
 H   -0.2706950151    1.4726111280   -1.3113733161
 H   -0.3501226959    2.0005047290    0.3804936362
 H   -0.3913334464   -2.3107438160    0.7633234740
 H   -1.9079231444   -1.9588816313    1.6280293707
 H   -1.9615456637   -2.5110508055   -0.0466812367
 H   -4.3186793147    0.5375140550   -0.4858786119
 H   -3.8057095564   -1.1449260865   -0.4862930503