21

 C   -0.0550459969    1.5590002036    0.0410193336
 C    0.0097547802    0.0241112996    0.0128947862
 C    0.7398580079   -0.4834945204   -1.2175583838
 C    1.8422607043   -1.2156444389   -1.0646600494
 C    2.2823065706   -1.4992794961    0.3635466426
 C    3.6389168166   -2.1418196087    0.5097045026
 C    1.0508916413   -2.0328522595    1.1459596153
 C    0.7420593450   -0.5267926047    1.2526725303
 O    2.1630695824   -0.2396426215    1.1159997572
 H    0.9539712935    1.9691330106    0.1383699993
 H   -0.5009846445    1.9559181196   -0.8765754726
 H   -0.6556546160    1.9108736185    0.8868775159
 H   -1.0173845538   -0.3707163428    0.0106087912
 H    0.3532550628   -0.2119784135   -2.1964980088
 H    2.4136166061   -1.6116813794   -1.8985250957
 H    4.4121606059   -1.5132435871    0.0551748537
 H    3.8852125056   -2.2848560808    1.5648445609
 H    3.6549965377   -3.1160126930    0.0089860795
 H    0.3499939842   -2.6867681142    0.6238020912
 H    1.3325841023   -2.4532675685    2.1141302923
 H    0.3321618246   -0.1346145229    2.1884247285