19

 C   -0.1278286711    1.5671634959   -0.0346779860
 C   -0.0033597043    0.0589048983    0.0562373342
 N    1.1901684893   -0.5652793132   -0.6688311574
 C    2.0925580593   -0.2863335998    0.5660452010
 C    2.5818636314   -1.7365789757    0.5880324081
 C    1.0869001228   -1.7957473185    0.2694123508
 C    0.7112630945   -0.6195201010    1.2314140788
 C    0.3501673522   -0.6690932593    2.6939718860
 H    0.7840611421    2.0754735146    0.2935644709
 H   -0.3293733279    1.8708394416   -1.0672658380
 H   -0.9550466936    1.9252420957    0.5878645924
 H   -0.9410775512   -0.4228410804   -0.2546451986
 H    2.6724596598    0.6350382918    0.6375944049
 H    3.2573248999   -2.0267648775   -0.2210003484
 H    2.9058949532   -2.1407584284    1.5502907292
 H    0.4596006264   -2.6448280481   -0.0117363267
 H    1.0820589035   -1.2494982129    3.2666646300
 H    0.3118080468    0.3375174421    3.1251541671
 H   -0.6322942633   -1.1320002053    2.8399023617