17

 N    0.0122804788    1.4416533175    0.1555575515
 C   -0.0082873464    0.0383250173    0.0463784731
 C   -1.1172045848   -0.7931439051    0.0306933807
 C   -2.5602467475   -0.8418961933    0.0391342038
 C   -2.9683825506   -2.1255035468    0.0061292271
 C   -1.7683112871   -3.0554713794   -0.0271266794
 N   -0.6648964380   -2.1065442237   -0.0058294894
 C    0.6934819052   -2.1296342585   -0.0123311039
 C    1.1333471714   -0.8162479577    0.0203433204
 H    0.8355057519    1.8428391564   -0.2755755196
 H   -0.8074258836    1.8769259477   -0.2481305278
 H   -3.2043193266    0.0265452180    0.0720909616
 H   -3.9856978489   -2.4885853344    0.0044392309
 H   -1.7370031928   -3.7306430761    0.8388928176
 H   -1.7466794394   -3.6803982987   -0.9304778435
 H    1.2510160533   -3.0523478372   -0.0415436721
 H    2.1655491949   -0.4980042861    0.0299647290