16

 O    0.0102962571   -0.0974933733    0.0954954240
 C   -0.0164351811    1.1139853344    0.0290038677
 C   -1.3106406589    1.9276583221   -0.0198368104
 C   -1.0976531683    3.4343994080   -0.1015311538
 C    0.0220738051    3.9901731999   -1.0300254579
 O    0.0977498631    5.1998255292   -0.1940987650
 C    0.0160648978    4.0885321875    0.7682494441
 C    1.0670701220    3.3229726497   -0.0882020836
 N    1.1119286284    1.8890137146   -0.0096275195
 H   -1.8895461551    1.5675606684   -0.8775825516
 H   -1.8954253530    1.6630338211    0.8681545517
 H   -2.0221426273    4.0144474937   -0.1363408233
 H    0.0356306042    4.1141378242   -2.1133042388
 H    0.0224498021    4.3299093648    1.8316121068
 H    2.0636176112    3.7616273534   -0.1088603154
 H    1.9957233628    1.4041171923    0.0199214150