8

 O   -0.0795172125    1.2145407454    0.0093102630
 N    1.1853912658    1.8464446389    0.0005533143
 C    2.0108250655    0.8297812788   -0.0125250675
 O    3.2909231844    0.6141865625   -0.0257004435
 N    3.2950522612   -1.0701300188   -0.0347043646
 N    2.1430838837   -1.4302366003   -0.0259195423
 C    1.2554272717   -0.3720068693   -0.0117786519
 N   -0.0237390599   -0.1401046172    0.0016362825