18

 C   -0.1162759748    1.5520581685    0.0113924309
 C    0.0631311741    0.0360637277    0.0134183771
 C    1.0055895358   -0.5551080622   -1.0919353801
 C    1.9535534378   -1.3316224664   -0.1578357212
 O    1.0312840307   -1.9415364632    0.7933183118
 C    0.8081966016   -0.5680184502    1.2268703076
 C    2.3120823057   -0.2765291960    0.9323504732
 C    3.2284701987   -0.7479816957    1.9546565208
 N    3.9776521013   -1.0897676793    2.7657904590
 H    0.8409631308    2.0832409674    0.0474016517
 H   -0.6359360933    1.8787562481   -0.8946683793
 H   -0.7116517423    1.8806416593    0.8699874278
 H   -0.9180950301   -0.4444715612   -0.0353833790
 H    0.4890833439   -1.2291770348   -1.7772798971
 H    1.5192413442    0.2135461707   -1.6768547206
 H    2.6927139399   -2.0155706175   -0.5711457167
 H    0.3815629645   -0.4731858190    2.2244423298
 H    2.5936427714    0.7263232039    0.6029096145