17

 O    0.6177082705    0.7591872177   -0.7829559739
 C    0.2627817642   -0.2534802286    0.1018586278
 C    0.1924285995    0.0298467048    1.6293611209
 C   -1.1188854075   -0.8040374027    1.6891840992
 O   -2.1961706824   -0.3620664234    2.4497644660
 C   -1.2686375319   -0.6202257338    0.1321177719
 O   -2.0345752924    0.5326344764   -0.1347487160
 C   -1.7613550655   -1.7646320973   -0.6937072692
 O   -2.6905628789   -1.6425112104   -1.4601641239
 H   -0.1336722250    1.3685271685   -0.8046563431
 H    0.8810971889   -1.1282397491   -0.1234854298
 H    1.0324797965   -0.2822334106    2.2523288757
 H   -0.0193995580    1.0874665773    1.8118124474
 H   -0.9271226192   -1.8487647278    1.9538916982
 H   -2.5573123684    0.4027566375    1.9797001939
 H   -2.6872552373    0.2515164765   -0.8004154965
 H   -1.2303549432   -2.7286433351   -0.5659023385