18

 C    0.0391733874    1.4814035819   -0.0202543387
 C    0.0193553439    0.0256362054   -0.0199429381
 C   -0.0099603825   -1.1793755634   -0.0233215134
 C    0.0043225216   -2.6391151535   -0.0359327775
 O    0.7503835146   -3.1419988911   -1.1310221993
 C    0.3129514145   -3.2543470479    1.3749367412
 C   -1.2123985292   -3.4336927832    1.5898962775
 C   -1.4092837641   -3.2842389703    0.0588307650
 H    0.7518040627    1.8744986508    0.7132127540
 H    0.3233940609    1.8728501536   -1.0032594624
 H   -0.9478475519    1.8896827043    0.2236244767
 H    1.5129536958   -2.5676235552   -1.2577299932
 H    0.8217012990   -4.2115423126    1.2339899409
 H    0.8712740113   -2.6396828101    2.0835032795
 H   -1.5468239496   -4.3662651424    2.0473926409
 H   -1.6475312508   -2.5964352401    2.1407185748
 H   -2.2520704181   -2.6975111878   -0.3094516865
 H   -1.3839722755   -4.2497771787   -0.4528046315