17

 C   -0.0870857058    1.5928188120    0.0480504443
 C    0.0844077701    0.0726378971    0.0162127322
 C    0.9107782156   -0.4715984466   -1.1333868369
 C    1.6611923983   -1.5091056871   -0.7602384464
 C    1.4618787958   -1.8329345426    0.7037972423
 C    0.8186761417   -0.5345939568    1.2516678157
 O    1.8052693396    0.3409836854    1.7806944035
 H    0.8770496027    2.1033617122    0.1119789112
 H   -0.5988028387    1.9413491867   -0.8550932357
 H   -0.6809706907    1.9033517266    0.9131870863
 H   -0.9183428622   -0.3810360119   -0.0333338004
 H    0.8507805425   -0.0664837848   -2.1382895467
 H    2.3061812724   -2.0874181983   -1.4125757905
 H    0.7908923450   -2.6954066716    0.8246174355
 H    2.3833035277   -2.0685964612    1.2468433803
 H    0.1336896181   -0.7196130827    2.0831750841
 H    2.4603858679    0.4850179538    1.0876261212