20

 C   -0.1351134229    1.5478147784    0.0415924056
 C   -0.0293445211    0.0371729965    0.0045574799
 C   -0.8208536973   -0.7656965613    1.0295739208
 C    0.6787268904   -0.6626548122    1.1271865871
 O    1.5213908458   -1.7744905483    0.9018775912
 C    1.5726096264   -2.4015297044   -0.3116167682
 N    2.4679633450   -3.2618145303   -0.5624765160
 C    0.5014996342   -2.0630425016   -1.3181406744
 C    0.1902011275   -0.5615170043   -1.3748094941
 H    0.7512543877    2.0170000228   -0.4006672437
 H   -1.0111334398    1.8914229929   -0.5210613506
 H   -0.2346871232    1.9180116938    1.0666668529
 H   -1.4118656703   -0.2216354667    1.7589454436
 H   -1.2452712806   -1.7197777253    0.7393266772
 H    1.1025002782   -0.0760083412    1.9348671939
 H    3.0872821217   -3.3655761781    0.2446278848
 H    0.8340683609   -2.4399150869   -2.2858686805
 H   -0.4050489804   -2.6223991214   -1.0572581309
 H   -0.6843634750   -0.3865556758   -2.0126058687
 H    1.0312384727   -0.0372451066   -1.8471583895