17

 C   -0.0409266166    1.5585719955    0.0438473746
 C    0.0913637795    0.0631515386    0.0885978780
 N   -1.1956743278   -0.7504693944    0.1029740703
 C   -0.5865031277   -1.7451391326    1.0462039034
 C    0.2790506880   -2.7534524783    0.2575588234
 N    1.3702662098   -1.7059393596    0.1076737137
 C    0.6895764188   -0.8725935980    1.1832823937
 C    0.9745770949   -0.7337567051   -0.8966441517
 O    1.2401201519   -0.6764065335   -2.0567408326
 H    0.9411528621    2.0397517021    0.0716142127
 H   -0.5377243091    1.8587177863   -0.8845675727
 H   -0.6304045903    1.9330087743    0.8882854018
 H   -1.8915289249   -0.2064759523    0.6078120907
 H   -1.2400978032   -2.0974757291    1.8446941245
 H    0.6481063705   -3.5775973123    0.8737688708
 H   -0.1169363018   -3.1330755403   -0.6870518263
 H    1.2546075258   -0.5962357413    2.0713178356