19

 C    0.0371927469    1.5257529914   -0.0903945606
 O    1.4281859543    1.8181103000   -0.2026585555
 C    2.1626985282    0.8750701835    0.5789783823
 C    1.2047206461   -0.2604471335    0.8539542734
 C    1.2593925259   -1.2330728547    1.7552389308
 C    0.1008646653   -2.1785746754    1.9454670823
 O   -0.9547058339   -1.9923710939    1.0211022455
 C   -1.2347008444   -0.6295596195    0.7328705019
 C   -0.0354619284   -0.0021967966    0.0291985593
 H   -0.3967139116    2.0058392699    0.8033530659
 H   -0.4570624724    1.9322394028   -0.9764700641
 H    3.0414655936    0.5686663062   -0.0024593218
 H    2.5219882066    1.3349010173    1.5120463077
 H    2.1093014196   -1.3606871378    2.4215734863
 H    0.4214034817   -3.2210417166    1.8271282578
 H   -0.2725742084   -2.0794007503    2.9818694997
 H   -2.1313852226   -0.6353779985    0.1069771443
 H   -1.4622026975   -0.0711639947    1.6562061488
 H    0.0695876509   -0.4437225599   -0.9705517142