20

 N   -0.0760002295    1.2971038398   -0.2160896436
 C   -0.0008904106    0.0581316654    0.0337911100
 O    1.2080648535   -0.5587476781    0.2195515645
 C    1.2881899797   -1.8073288762    0.9322906905
 C    0.0242568671   -2.6584770648    0.8259586934
 C   -0.3076173608   -3.0114030240   -0.6445348110
 C   -1.1670324694   -1.8179709205   -1.1545564542
 C   -1.2238377869   -0.8289776728    0.0427526250
 C   -1.1622748875   -1.7776159653    1.2540266326
 H    0.8587205716    1.7120915227   -0.1981521075
 H    2.1553059847   -2.3261043687    0.5118500297
 H    1.5043302314   -1.5823251330    1.9859266769
 H    0.1615964819   -3.5452162181    1.4520516215
 H    0.5988917984   -3.1545076592   -1.2394715301
 H   -0.8714085254   -3.9472253950   -0.6915602347
 H   -0.7539573991   -1.3487063835   -2.0502022589
 H   -2.1820368278   -2.1441240390   -1.3994428939
 H   -2.0985044121   -0.1803460426    0.0155234973
 H   -2.0873148487   -2.3577185188    1.3365254950
 H   -0.9979482108   -1.2621075882    2.2055810577