21

 C   -0.3544696829    1.4994657358   -0.1174933830
 C   -0.0242282721    0.0012920465   -0.0005903198
 C    0.9204276298   -0.2122746505    1.1995636809
 C   -1.3230700098   -0.8015743007    0.1972967601
 C    0.6964005934   -0.5072695886   -1.2672927174
 C    0.5774226800    0.1567858481   -2.5844854083
 O    1.7426332370    0.3394929259   -1.7850274756
 C    1.0296491536   -1.9181382013   -1.2786737142
 C    1.2968318349   -3.0903853650   -1.2859746701
 H    0.5296445125    2.0764213327   -0.4002016677
 H   -1.1462317615    1.6884560232   -0.8490309364
 H   -0.7109300965    1.8715683151    0.8478113288
 H    0.4378031589    0.1162417188    2.1254757534
 H    1.1888034288   -1.2664968269    1.3108915624
 H    1.8433620955    0.3619902155    1.0729794227
 H   -1.9997045649   -0.6765216852   -0.6550594681
 H   -1.1197961394   -1.8692963433    0.3144475811
 H   -1.8458979045   -0.4544766726    1.0944253003
 H    0.7177473295   -0.4384408906   -3.4848788328
 H   -0.0580703818    1.0318163771   -2.6947728329
 H    1.5408238094   -4.1239872239   -1.2959895535