20

 O   -0.1642489392    1.4466187982   -0.0482488103
 C    0.0106442604    0.0335666255    0.0052593693
 C   -1.3808880269   -0.5775837008   -0.0209352607
 N   -2.0629372214   -0.2173438325   -1.2659506184
 C   -3.4384809951   -0.6960210673   -1.3227118081
 C   -3.4308162022   -2.2258462729   -1.3505617600
 C   -2.6835226569   -2.7865482997   -0.1253039276
 C   -1.3429369860   -2.1038226219    0.0942032880
 O   -0.3317535158   -2.7078538548    0.3685109497
 H    0.6975799128    1.8517729604   -0.1772921594
 H    0.5806415509   -0.3351749162   -0.8576724852
 H    0.5317871079   -0.2788975945    0.9185967510
 H   -1.9318381617   -0.2083531482    0.8714089652
 H   -2.0131024906    0.7907325933   -1.3664288478
 H   -4.0487922560   -0.3487681008   -0.4650750275
 H   -3.9059474994   -0.3039330765   -2.2316107572
 H   -4.4540430410   -2.6148903561   -1.3741524873
 H   -2.9290757831   -2.5563317419   -2.2664306989
 H   -3.2833759677   -2.5925416977    0.7766061335
 H   -2.5217049491   -3.8653299656   -0.1866687583