15

 O   -0.0482164750    0.4765570307    1.2501195697
 C   -0.1093645289    1.2575555396    0.3405613103
 O   -1.3143521944    1.7187072995   -0.0691328400
 C   -1.5664253396    2.1044512598   -1.4197356578
 O   -0.9719959835    3.2945665922   -1.8036426891
 C    0.3080508265    3.1594544217   -2.3833018039
 C    1.3751944136    2.6571615814   -1.4415758134
 O    1.4077144840    3.2019459093   -0.1366005248
 C    1.1727306527    1.7894232711   -0.2624624020
 H   -1.2802747085    1.2800806500   -2.0900391562
 H   -2.6462388722    2.2547409072   -1.4444015176
 H    0.2741408416    2.4980129136   -3.2643150402
 H    0.5863582650    4.1600954205   -2.7287746452
 H    2.3531320064    2.5685227967   -1.9239441498
 H    2.0079082423    1.1709684966    0.0612914400