19

 C    0.1192867782    1.6065015132   -0.0332034391
 C    0.0555101551    0.0778373763   -0.0208948807
 C    0.6722842517   -0.5320816303    1.2545102052
 C    0.6093300146   -2.0264904313    1.2936529867
 C   -0.3155479633   -2.8912776139    1.8514174519
 C    0.1553868191   -4.1768396829    1.5080342436
 O   -0.4334075674   -5.3440089710    1.8450914021
 N    1.2739034952   -4.1422499790    0.7999752817
 N    1.5290310490   -2.8113604200    0.6792899660
 H    1.1544226175    1.9626894873    0.0169221860
 H   -0.3293391049    2.0146005747   -0.9438481819
 H   -0.4172533845    2.0319346977    0.8221694543
 H   -0.9850756960   -0.2565224980   -0.1032420322
 H    0.5742225238   -0.3254374779   -0.8991855310
 H    1.7162874309   -0.2028962953    1.3449022575
 H    0.1505078895   -0.1369010321    2.1327323131
 H   -1.1930870436   -2.6377054685    2.4220514351
 H    0.1133467467   -6.0495944744    1.4772882644
 H    2.3541498085   -2.5191703345    0.1855603174