13

 C    0.0211122131   -1.1574044596   -0.0890302650
 C    0.0530256833    0.0345811027    0.0455263297
 C    0.0570752932    1.4745315068    0.2206343092
 O    1.3515197617    1.9834817552   -0.1379350257
 C    1.4260939969    3.3834799941   -0.0832826082
 C    1.3320954472    3.9043841370    1.3039307232
 N    1.2074438865    4.2804377508    2.3882755700
 C    2.6953077034    3.7993783698   -0.7025988890
 N    3.6722121545    4.1489765047   -1.2062919494
 H   -0.0011307382   -2.2129418996   -0.2089675049
 H   -0.7110095353    1.9410168417   -0.4163199964
 H   -0.1721058465    1.7347299311    1.2640276358
 H    0.6062328103    3.8490576752   -0.6576735093