20

 C    0.0389627118    1.4972265886    0.0108684146
 C    1.3525551753    0.7570108864   -0.0448321229
 C    2.0965047282    0.5549416126    1.2933421610
 C    1.1757166042   -0.3772313287    2.0619462874
 C    0.3519473553   -0.2492369500    3.3570885161
 C   -0.9354052363   -0.6039386655    2.5210596305
 C   -0.0394253098   -0.7077773403    1.2705378561
 N    0.9712517463   -1.7514815793    1.5578078987
 C    0.0221944040   -0.0113184075   -0.0455635231
 H   -0.2359093522    1.9834402642    0.9425408385
 H   -0.2768763717    2.0328097747   -0.8779103262
 H    1.9351416077    0.8323138531   -0.9567206357
 H    3.0994840180    0.1382651560    1.1386879199
 H    2.2297155606    1.5044850477    1.8252548275
 H    0.6239884946   -0.9358474724    4.1621898647
 H    0.3271068969    0.7726393747    3.7444460551
 H   -1.4644916717   -1.5186341355    2.7974369440
 H   -1.6438265606    0.2256295723    2.4716771226
 H    1.5408658179   -1.8642412783    0.7205680460
 H   -0.3363655887   -0.4877558029   -0.9535590547