13

 O    0.0017742315    0.0308365388    0.0036481954
 C   -0.0448212783    1.2168739754    0.0101362065
 C   -1.2934670808    2.1268443750    0.0329920485
 N   -0.6831496871    3.4324781174    0.0315588348
 C   -0.9639518320    4.7765397807    0.0429126709
 N    0.1421615906    5.4800606830    0.0311532785
 C    1.2013057156    4.5851888926    0.0113919292
 C    0.6809252167    3.3277182364    0.0117591111
 O    1.0837420634    2.0185624922   -0.0010873848
 H   -1.9094901161    1.9294650509   -0.8494568805
 H   -1.8842019517    1.9196008939    0.9303449840
 H   -1.9699875684    5.1647988306    0.0592398436
 H    2.2285272165    4.9066266129   -0.0012616872