19

 C   -0.0256044697    1.5545885323    0.4729981584
 C   -0.0336356784    0.1005679940   -0.0203593720
 C    1.0561183102   -0.7417446385    0.6787006594
 C   -1.3851296955   -0.5727833883    0.1160772579
 C   -2.3816280463   -0.1647847987    1.1889474832
 C   -1.8754616373   -0.3450174841    2.5519689785
 N   -1.4718769610   -0.4818499572    3.6262626528
 N   -1.8136274822   -1.5197529136   -0.6290830136
 O   -0.8923690052   -1.8820441989   -1.6165321015
 H    0.9506991578    2.0047174760    0.2699805007
 H   -0.7805280729    2.1631781355   -0.0359299309
 H   -0.1962721916    1.6226569188    1.5521865621
 H    0.1904875548    0.0978942449   -1.0919946470
 H    0.8824354695   -0.7980100594    1.7571733129
 H    1.0766150427   -1.7567340156    0.2754781877
 H    2.0385892590   -0.2870307702    0.5162380202
 H   -2.6644874579    0.8878991394    1.0712579753
 H   -3.2845192127   -0.7679205206    1.0617612833
 H   -1.3671813235   -2.5703525857   -2.0948259374