17

 C   -0.0423115316    1.4773459419    0.0180913553
 N   -0.0268134905    0.0237125100   -0.0591036923
 C    0.7738746746   -0.4932352062   -1.1399023008
 C    0.7084080480   -2.0453050555   -1.1426495806
 N    1.2657138083   -2.5400006838    0.1242927138
 C   -0.6949415300   -2.4961589519   -1.2441525768
 N   -1.7753979052   -2.8883659679   -1.3464443858
 C    1.4521929327   -2.5517752757   -2.3246182611
 N    2.0952467075   -2.9360676994   -3.2042510024
 H    0.9584294480    1.9356513658    0.1083681957
 H   -0.5168701694    1.8890620473   -0.8794536999
 H   -0.6388082722    1.7851247702    0.8806264994
 H    0.2822728364   -0.3881303841    0.8141294715
 H    0.3859319855   -0.1230076565   -2.0948561335
 H    1.8469761440   -0.2198676093   -1.1014245766
 H    1.1252519307   -3.5423905254    0.2080958204
 H    2.2687953031   -2.3735611495    0.1311885737