18

 N   -0.1298022540    1.1282778868   -0.5697387070
 C   -0.0180886020   -0.0790068485   -0.1698990647
 N   -1.1128392835   -0.9289270841   -0.1913276629
 C   -1.4057472909   -1.8505890362    0.9133405519
 C   -0.5532393881   -3.1233918037    0.8856777075
 N    0.8757328037   -2.9517747060    1.1015392554
 C    1.5911429107   -2.1606987490    0.1067064023
 C    1.3559184226   -0.6527337423    0.1946929556
 O    2.2437309901    0.1089875759    0.5058640016
 H    0.7919808983    1.5685070382   -0.5428910760
 H   -1.9258483493   -0.4066776018   -0.4942197374
 H   -1.3002976379   -1.3576316663    1.8934054758
 H   -2.4584777053   -2.1342257258    0.8136241260
 H   -0.9281543668   -3.8073148840    1.6560919195
 H   -0.6905515778   -3.6166369245   -0.0846148950
 H    1.0695665386   -2.6114938750    2.0376531328
 H    2.6678007440   -2.3152527749    0.2231851538
 H    1.2937660377   -2.5137407688   -0.8883704792