19

 C   -0.4168759705    1.4332694255   -0.0992986716
 C    0.2568294062    0.0651277673    0.0592679892
 C    0.8347236073   -0.4836150968   -1.2287879495
 C    0.6709042091   -1.9074985493   -1.6051129726
 N   -0.1194617134   -0.8568083920   -2.2978556103
 C    0.4970274594   -0.4937073160   -3.5559630245
 O    0.0126384522   -0.6799260978   -4.6414803876
 N    1.7092306948    0.0943502511   -3.2868666542
 C    2.0124489587    0.2520039885   -1.8819748740
 H    0.2913563212    2.2098091707   -0.4061521808
 H   -1.2089971387    1.3813258935   -0.8514884392
 H   -0.8622882608    1.7540915814    0.8467465892
 H    1.0579199755    0.1183066469    0.8086982446
 H   -0.4751641499   -0.6544514362    0.4405029580
 H    1.4582105745   -2.3966731892   -2.1738349653
 H    0.0819003754   -2.5668931664   -0.9748070995
 H    2.2746546823    0.4590842467   -4.0349431024
 H    2.0258559519    1.3069123084   -1.5798452184
 H    2.9814864849   -0.1863401763   -1.6116055411