14

 C   -0.3805124363    1.3593955543   -0.0394916776
 N    0.0628763862   -0.0290344606    0.0039439706
 N    0.2868031400   -0.6038741745   -1.2043562609
 N    0.6707875503   -1.7941043239   -1.2916279092
 N    0.8604770234   -2.5062101804   -0.1291652627
 C    0.6793618484   -2.0745267564    1.1603506442
 O    0.8688696067   -2.7681705389    2.1347427809
 C    0.2212138497   -0.6510346829    1.2385584756
 N   -0.0138680332   -0.0277745160    2.3216905351
 H    0.3279645306    1.9928987249    0.4999302807
 H   -0.4394440752    1.6501076583   -1.0867321505
 H   -1.3555764986    1.4534437468    0.4449196073
 H    1.1695815219   -3.4564378298   -0.2829261187
 H    0.1643519461   -0.6649189208    3.1002890652