21

 C   -0.2454534702    1.5021747599    0.2423374198
 C    0.0161372885    0.0108119895   -0.0164943171
 C    0.8425476582   -0.2066392722   -1.3132703047
 C    2.3508504499   -0.0850822866   -1.2641953771
 C    3.1558850252   -0.4181402848   -0.2532107781
 C    2.6577976701   -0.8891211415    1.0880789984
 C    1.4798401221   -1.8929954917    1.0370441783
 C    0.6170546292   -0.6311645741    1.2432587767
 O    1.7829470460    0.1001782415    1.7058168623
 H    0.6969149029    2.0299597631    0.4073849227
 H   -0.7634201669    1.9603171936   -0.6059402859
 H   -0.8667973942    1.6456643680    1.1328745632
 H   -0.9534092495   -0.4801781398   -0.1832463858
 H    0.6119486577   -1.2044402236   -1.7155975320
 H    0.4629243703    0.4889408518   -2.0705301146
 H    2.8094561214    0.2606799894   -2.1886513639
 H    4.2312051607   -0.3220974639   -0.3782714439
 H    3.4877477684   -1.1424132951    1.7540767302
 H    1.3441794024   -2.4759816690    0.1254925631
 H    1.4636330699   -2.5539424050    1.9053863071
 H   -0.1446235421   -0.6804051396    2.0304253814