12

 N    0.1234748267   -1.0880099145    0.0958884270
 C    0.0587842523    0.0615214999    0.0148835795
 C   -0.0344416050    1.5317036024   -0.0258153268
 C   -0.6220611859    2.1101509113    1.3205016852
 O    0.4437525441    2.9382984692    1.8186015426
 C    1.4443257395    2.8471789150    0.9262421750
 N    1.3243770993    2.1258154507   -0.1138631752
 C   -0.8423211807    1.9443419102   -1.1872098964
 N   -1.4981373212    2.3004275509   -2.0677137844
 H   -1.5049444286    2.7279997058    1.1544646162
 H   -0.8345101744    1.3272091134    2.0489612605
 H    2.3272213540    3.4262623359    1.1709895768