15

 O    0.4261596458    1.3382347063   -0.2852425281
 C    0.1744553101    0.0145865169   -0.1026229762
 C    0.1709155834   -0.9362647291   -1.1030741539
 N   -0.1459109317   -2.1180012022   -0.4965596057
 C   -0.1720595651   -3.4286553497   -1.0961214268
 C    1.2093349296   -4.0820349308   -1.1460401481
 O    1.4957506077   -4.9560256310   -1.9177370875
 N   -0.3260054692   -1.9896354511    0.8275638085
 C   -0.1393341225   -0.6925520400    1.0773501568
 H    0.3685298655    1.7847190188    0.5646570269
 H    0.3491648527   -0.8576569278   -2.1625602600
 H   -0.8227370253   -4.0581394780   -0.4802409147
 H   -0.5894150908   -3.3856169176   -2.1055235548
 H    1.9250832259   -3.6886536639   -0.3910518807
 H   -0.2447502161   -0.3128511307    2.0837381244