18

 C   -0.1500179490    1.5801731196   -0.0027811922
 C    0.0263150775    0.0713930306    0.0081735595
 C    1.1949727295   -0.6473926385   -0.7408882324
 C    2.1644949128   -0.1606725737    0.3738036365
 C    0.8784173429   -0.6494638319    1.1230946931
 C    0.9088816693   -1.8825231745    0.1591696608
 C    0.6311192267   -0.6462475362    2.5360003132
 C    0.4126714330   -0.6321928549    3.7195120031
 H    0.7854048220    2.1307683999    0.1216042230
 H   -0.6003026974    1.9016157037   -0.9484610576
 H   -0.8249578794    1.8872470899    0.8034017104
 H   -0.9441216145   -0.4146594763   -0.1459186003
 H    1.3807865556   -0.6515025135   -1.8148778093
 H    3.0608673075   -0.7644788266    0.5360503886
 H    2.3972945459    0.9029105319    0.4255816933
 H   -0.0424189850   -2.3993834018    0.0082254468
 H    1.7333572001   -2.5836256957    0.3088294014
 H    0.2219743423   -0.6231256021    4.7639253221