18

 C   -1.1995177066    0.7416462200    0.2886370552
 C    0.0793544049    0.0070802003   -0.0027084032
 N    1.0359805402   -0.1841961968    0.8244177302
 O    0.7875018346    0.3966138002    2.0724263311
 C    0.2607317352   -0.5860064684   -1.3878790316
 C    1.7092511792   -0.9295693561   -1.7503767800
 O    1.7814612262   -1.5588804381   -3.0208417860
 C   -0.6028819857   -1.8480049946   -1.4654072221
 O   -1.7318876012   -1.8746324981   -1.8778653752
 H   -1.4549637115    0.6753533251    1.3468038633
 H   -1.0905297994    1.8039751307    0.0378316265
 H   -2.0142522080    0.3380468890   -0.3178222134
 H    1.5702263934    0.1440258609    2.5737538550
 H   -0.1564359834    0.1218930943   -2.1163007944
 H    2.3347489217   -0.0290675113   -1.6924806019
 H    2.1141347767   -1.6465888010   -1.0326415704
 H    1.4980819527   -0.9257765509   -3.6885748504
 H   -0.1053620189   -2.7561078651   -1.0591874229