20

 O   -0.1125034858    1.4309587463   -0.0724115556
 C    0.0039655803    0.0105499225    0.0021439757
 C    0.7827989985   -0.4644090463    1.2252791157
 C    0.9099062603   -1.9968437733    1.1835174014
 N   -0.3214285085   -2.7376052646    0.9072296351
 C   -1.4979315706   -2.5132360374    1.7324097341
 C   -1.4700110365   -2.0261085306    0.3231726797
 C   -1.4385694352   -0.5188376476    0.0610048968
 O   -2.1543618534    0.1656067787    1.0791304719
 H    0.7364155270    1.8192893733    0.1595690222
 H    0.4838732748   -0.3765441087   -0.9109837114
 H    1.7885698531   -0.0246482776    1.2373871636
 H    0.2650168579   -0.1224428336    2.1273259386
 H    1.6200590515   -2.2649870195    0.3902293347
 H    1.3294787745   -2.3745601351    2.1220478476
 H   -2.0600452768   -3.4071171218    1.9910213753
 H   -1.4786220600   -1.7470944124    2.5024638510
 H   -1.9874419948   -2.6048019242   -0.4376150408
 H   -1.9123001292   -0.3303514310   -0.9137231975
 H   -1.9020223672    1.0939398630    0.9822411020