16

 N    0.0578512989    1.5189227248    0.2377605008
 C    0.0711903633    0.1099405154    0.0312031618
 C   -1.0731863332   -0.6401420513   -0.1434050258
 C   -2.4981484480   -0.1778476688   -0.1389376181
 C   -3.3272039144   -0.8874071434   -1.1163072306
 N   -3.9628996335   -1.4928751398   -1.8680700787
 N   -0.6924192569   -1.9489495282   -0.3188925830
 C    0.6747125892   -2.0413304316   -0.2929160375
 C    1.1803781614   -0.7835270553   -0.0631119152
 H    0.0364796756    1.7541878364    1.2256870566
 H    0.8946946282    1.9456174546   -0.1446050202
 H   -2.9773130376   -0.2927647575    0.8443832080
 H   -2.4974149315    0.8956703515   -0.3595651103
 H   -1.3231063549   -2.6998666049   -0.5438231859
 H    1.1686696597   -2.9881176878   -0.4395323098
 H    2.2241778235   -0.5237376841    0.0301821379