15

 C   -0.0303903303    1.5637919603    0.0937814303
 C    0.0184580392    0.0795861833   -0.0107458317
 C    0.0537674021   -0.7491696226   -1.0934666506
 O    0.0519249483   -0.3788190957   -2.3894431181
 N    0.0941233789   -2.0823298757   -0.7366128554
 C    0.0841502401   -2.0890455592    0.5667239315
 N    0.0386695619   -0.8097203458    1.0841880856
 C    0.0178716441   -0.4964487896    2.4417205027
 O    0.0376548081   -1.3200079051    3.3185651732
 H    0.8377749992    1.9814350849    0.6185414523
 H   -0.0359515273    1.9798764171   -0.9161533128
 H   -0.9318367971    1.9241722358    0.6046925113
 H    0.0823291705   -1.1914369052   -2.9088631463
 H    0.1069694847   -2.9504851870    1.2140380150
 H   -0.0187484824    0.5913286545    2.6185507631