15

 O    0.0791215199    1.4585661450    0.0506982497
 C    0.0473304377    0.0619032649    0.0064642151
 C    0.2620833996   -0.6984328476    1.3465621475
 O   -0.7272946378   -0.0797238401    2.2236396933
 C   -1.7293835830   -0.7530493085    1.4499424284
 C   -1.2957436520   -0.6732160873   -0.0484600618
 O   -2.1773453909   -0.8128797140   -1.0910567975
 C   -0.7989414486   -1.7749923727    0.8612676911
 O   -0.7891740115   -3.1246811061    0.6770773391
 H   -0.3147802370    1.6942629716    0.9026476894
 H    0.7257626984   -0.2854866868   -0.7767340555
 H    1.2382133067   -0.8338646439    1.8065726568
 H   -2.7571671463   -0.7782192581    1.7864595489
 H   -2.6241852079    0.0311062439   -1.2242807726
 H   -0.8130697773   -3.5552135303    1.5400033481