20

 C    0.0536669602    1.4603853207   -0.3050572299
 N    0.0401597847    0.0112578142   -0.1943756641
 C   -1.0194823011   -0.5772114633    0.1684114074
 C   -1.0187266396   -2.0973881410    0.2068793246
 O   -1.6259667894   -2.6450609441    1.3615477239
 C   -3.0037716799   -2.9351026735    1.2149792012
 C   -3.8231265241   -1.7150853270    0.7602345498
 C   -3.2164495538   -0.4037148872    1.2578616638
 O   -2.1715624549    0.1095444093    0.4194290049
 H    1.0722095945    1.8184076590   -0.1294249127
 H   -0.2262077905    1.7625606942   -1.3227850555
 H   -0.6319564682    1.9602679039    0.3889044489
 H   -1.4947775789   -2.4877636485   -0.7067366540
 H    0.0277172846   -2.4048487092    0.1962042209
 H   -3.1510499834   -3.7768189161    0.5201079260
 H   -3.3285644908   -3.2627950673    2.2074171841
 H   -3.8963422406   -1.6638263965   -0.3316107666
 H   -4.8482643949   -1.8081476635    1.1366415067
 H   -3.9676385942    0.3895615465    1.2425205985
 H   -2.8468906494   -0.5081217207    2.2845425020