15

 O   -0.0366321329    0.0737832910    0.3543158378
 C   -0.0479592824    1.2444454950    0.0850157450
 C   -1.2991218413    2.0884764338   -0.1932372673
 O   -0.8761556201    3.3395987947   -0.7220644316
 C    0.5026973189    3.5306438458   -0.4838807829
 C    0.9348791684    4.1476795270    0.8717537482
 O    0.3836795762    3.3279537462    1.9098635735
 C    1.5796686197    2.8815184788    1.2655637304
 C    1.1464459004    2.1848334931   -0.0478079273
 H   -1.9531946789    1.5913150061   -0.9178672475
 H   -1.8474378276    2.2132362688    0.7500291148
 H    0.9540068947    4.0305244869   -1.3442681031
 H    1.1646287987    5.1764592874    1.1229470843
 H    2.4426106354    2.6759550364    1.8858727584
 H    1.9512526109    1.7812920389   -0.6611364625