17

 C   -0.1399221335    1.6097659447    0.0299565098
 C    0.0303441685    0.0969580814   -0.0151082884
 C    0.8576575400   -0.6045898920   -1.1556083331
 C    2.2490044711    0.0583179045   -1.0239177656
 C    2.3612400515    0.0617292680    0.5188024966
 O    3.2553817366    0.4873018090    1.1962699766
 C    1.0633192114   -0.6110007664    0.9571386401
 C    0.9923742356   -1.7320770133   -0.1209306615
 O    0.9118308866   -2.9207062683   -0.1045976445
 H    0.8096119586    2.1488600409   -0.0167688359
 H   -0.7644206530    1.9481156534   -0.8030401621
 H   -0.6369782877    1.9044777933    0.9592751490
 H   -0.9435086022   -0.3903611637    0.0838920997
 H    0.4537836833   -0.7714367151   -2.1518470671
 H    3.0606986402   -0.5242364701   -1.4690022672
 H    2.2932057398    1.0694636324   -1.4369326329
 H    0.8970644432   -0.7701588889    2.0183331165