15

 C   -0.0144390330    1.4902660725    0.2586500994
 C    0.0041130680    0.0077378432    0.0422843384
 C   -0.9375889361   -0.9753116306    0.7227295840
 C    0.5305088449   -1.1463680268    0.9197082623
 O    1.0967068859   -1.8144967609   -0.2352680368
 C    0.7291514298   -0.7454246646   -1.0524728315
 O    1.0101197903   -0.5788552119   -2.1916266808
 C    1.2987743304   -1.0285288288    2.1675834239
 O    0.8531691203   -0.5028663651    3.1605152753
 H    0.9386721718    1.9442342269   -0.0257839468
 H   -0.8047487921    1.9576107674   -0.3372055993
 H   -0.2035101131    1.7147599510    1.3123939997
 H   -1.4748070978   -0.5566107996    1.5681476548
 H   -1.4618223195   -1.7334776732    0.1502946341
 H    2.3293180204   -1.4349967995    2.1134424034