19

 C   -0.0791872175    1.4484989269    0.0113942176
 C    1.2969465776    0.8384327715   -0.0204933784
 C    1.9578711043    0.6346630841    1.3298034865
 O    0.9585071490    0.0366429122    2.1580163937
 C    0.0761078063   -0.7266531740    1.3522595443
 C    0.2647357869   -2.2683621727    1.3615401863
 O   -1.0758509565   -2.4599415217    1.8540904895
 C   -1.2588860338   -1.0430474802    2.0550425826
 C    0.0767725610   -0.0524595417   -0.0022575678
 H   -0.4108003658    1.9233147263    0.9298021409
 H   -0.4388836080    1.9155083599   -0.8983330949
 H    1.9198561394    0.9428262524   -0.9005043720
 H    2.8354372528   -0.0231852743    1.2317320238
 H    2.2747334570    1.5593084444    1.8235740966
 H    0.4245812552   -2.7634191840    0.3959091571
 H    1.0263938867   -2.6000692587    2.0790893655
 H   -1.2575213447   -0.7672677584    3.1167739113
 H   -2.1696053178   -0.6681836890    1.5744924719
 H   -0.2397701022   -0.6220733732   -0.8674325647