24

 C   -0.0145381010    1.4481063727    0.1260757276
 C    0.0962129274   -0.0757712258    0.1932638039
 N   -1.2216563114   -0.6971512846    0.2882972719
 C   -1.8759888518   -1.0103409571   -0.9779499515
 C   -1.3077338513   -2.0918478301   -0.1268416017
 C    1.3388880269    2.1408367319    0.0474500428
 C    2.1881492829    2.0212060823   -1.2539049547
 C    2.5964557348    3.5083522384   -1.0794205603
 C    1.3855498554    3.6860088554   -0.1244778148
 H   -0.6168279007    1.7274651614   -0.7493957230
 H   -0.5670721141    1.7980741298    1.0069806070
 H    0.6611718719   -0.4489532127   -0.6820464487
 H    0.6660061291   -0.3664127724    1.0852144233
 H   -2.9480573778   -0.8395049490   -1.0161369661
 H   -1.3435014287   -0.7746682693   -1.8988048875
 H   -0.3987800026   -2.5753454166   -0.4827020899
 H   -1.9564952472   -2.7260749423    0.4707371860
 H    1.9525684941    1.8515311807    0.9102171903
 H    2.9827311217    1.2713368504   -1.2855614728
 H    1.5448589920    1.8812278719   -2.1297979780
 H    3.5478782246    3.6062296364   -0.5484892153
 H    2.6353903945    4.1339276867   -1.9743164142
 H    0.5013297261    4.0489002305   -0.6595195167
 H    1.5212080151    4.2960769314    0.7722458825