12

 N   -0.0372970625    1.4160923713    0.1336649243
 C    0.0135500687    0.0243923106    0.0288258255
 N   -1.0533256921   -0.7678855935    0.0486811771
 N   -0.5241575711   -1.9916328890   -0.0064774928
 N    0.8074495398   -2.0585161962   -0.0607110085
 C    1.1757750207   -0.7817216041   -0.0392426917
 N    2.4971886876   -0.3416898470   -0.1426223554
 H    0.5381067145    1.8703751901   -0.5668941524
 H   -0.9890776107    1.7552391047    0.0648782646
 H   -1.0965071508   -2.8167168107   -0.0075868677
 H    3.1481592051   -1.1145270901   -0.0747720498
 H    2.7207983509    0.3551388139    0.5592900568