20

 C    0.2943204376    1.3801665292    0.3163763559
 C    0.3936729709   -0.1286084085    0.0873823715
 C    0.4852759606   -0.4958994796   -1.3971651984
 N    1.7473325947   -0.0046026011   -2.0130664602
 C    2.7798285268   -1.0327119840   -1.8100041992
 C    2.0249643622   -2.3077756514   -1.4454822468
 O    2.4555719062   -3.3384957519   -0.9909744875
 C    0.5382516815   -2.0239964541   -1.6352669331
 O   -0.2597160622   -2.8336307714   -0.8220743712
 H    1.1438648635    1.8955092492   -0.1400402486
 H   -0.6217221359    1.7861987639   -0.1281899108
 H    0.2775239944    1.6177466170    1.3841431015
 H    1.2703677576   -0.5279067076    0.6157043999
 H   -0.4720664439   -0.6474777699    0.5104305648
 H   -0.3547983097   -0.0395018124   -1.9289100934
 H    1.6030660065    0.1475538835   -3.0035807202
 H    3.4027138886   -1.1797654845   -2.6980066974
 H    3.4587336188   -0.7775309082   -0.9862624639
 H    0.3176782577   -2.1990775081   -2.7059949316
 H    0.3157550043   -3.5539890202   -0.5206116614