17

 C   -0.0182604415    1.4830796284    0.0103614691
 C    0.0023948748    0.0287024693    0.0024908435
 C    0.0186256967   -1.1780459001   -0.0039980802
 C    0.0377655218   -2.6028514915   -0.0114582744
 C    1.2557031876   -3.3034355555   -0.0222247519
 C    1.2706652012   -4.6928602001   -0.0294991986
 C    0.0752409627   -5.4094771607   -0.0261948817
 C   -1.1388795101   -4.7251160957   -0.0155432259
 C   -1.1610245533   -3.3357689932   -0.0082279074
 H    0.9967514971    1.8951112939    0.0029012312
 H   -0.5434191451    1.8787875752   -0.8664941439
 H   -0.5266278711    1.8694698595    0.9011631703
 H    2.1842550822   -2.7438430589   -0.0247791424
 H    2.2198438379   -5.2186158119   -0.0377846918
 H    0.0897354307   -6.4941603877   -0.0318860146
 H   -2.0736775567   -5.2760903522   -0.0129154550
 H   -2.1041351047   -2.8011408990    0.0000587137