21

 C   -0.0930437072    1.4990963043    0.1137072090
 C    0.0199112620    0.0084754463   -0.1320264899
 O    1.0964635380   -0.4912237358   -0.4451045676
 C   -1.2175301444   -0.7823343599   -0.0094950578
 C   -1.3036742476   -2.1123583046   -0.8021982007
 O   -0.2596371613   -2.5043055604   -1.6133135445
 C   -1.2560455026   -2.1794293563    0.6855237525
 C   -0.0246690483   -2.7160564095    1.3849305072
 C   -2.5594349337   -2.4668822926    1.4084857280
 H    0.8827265689    1.9706648831   -0.0069469834
 H   -0.8066210694    1.9440330507   -0.5891134708
 H   -0.4779637158    1.6903361710    1.1216017799
 H   -2.1270734360   -0.1987302677    0.0889115763
 H   -2.2625801843   -2.3020379051   -1.2787598711
 H    0.5213010165   -1.9809975066   -1.3522086362
 H    0.8983371771   -2.4573531081    0.8675857981
 H    0.0389603879   -2.3283208750    2.4076701309
 H   -0.0868326899   -3.8082429008    1.4458137256
 H   -2.6786210235   -3.5454596207    1.5618931387
 H   -2.5817219558   -1.9841393346    2.3922877294
 H   -3.4260008507   -2.1129304277    0.8410282865