17

 C   -0.1887170099    1.6223977166   -0.0568979413
 C   -0.0336849161    0.1123626158   -0.0006324136
 C    1.1914382454   -0.5572262221   -0.6403623495
 C    2.1494223574   -0.2109442332    0.5379154688
 C    2.5272973096   -1.6924287091    0.6258453894
 C    2.9164657476   -2.2477915868    1.9154413071
 N    3.2344528166   -2.6691178492    2.9440009042
 N    1.0354744232   -1.7992408173    0.2838343547
 C    0.7515454347   -0.5349954355    1.1495041243
 H    0.7506272824    2.1378613992    0.1680616434
 H   -0.5173524146    1.9434553231   -1.0506385892
 H   -0.9379986193    1.9626079373    0.6650645326
 H   -0.9706819818   -0.4092266987   -0.2245644912
 H    1.4569034652   -0.6913211118   -1.6911209382
 H    2.7836302010    0.6669882333    0.6835172939
 H    3.1699368430   -2.0940773164   -0.1640801120
 H    0.4991342756   -0.6412547853    2.2051962065