12

 C    0.0227888922    1.4052145102   -0.1075011402
 O    1.2859691515    1.9200901439    0.3519375733
 C    1.9845477442    0.8064167205    0.7169474814
 C    3.2107932384    0.4006860141    1.1130385261
 O    3.1408538122   -0.9523679770    1.3625367022
 C    1.8572295335   -1.3876216452    1.1160430029
 C    1.1331239324   -0.3184713726    0.7188374055
 O   -0.1289880129    0.0506705137    0.3550784099
 H   -0.7836433664    2.0162921056    0.3043185164
 H    0.0086748991    1.4140512491   -1.2063086962
 H    4.1654932116    0.8677269602    1.2716046380
 H    1.6672375941   -2.4329302026    1.2771500706