18

 C   -0.1435897294    1.4235936580    0.2550791137
 C    0.0523863608   -0.0551552211   -0.0680491945
 C    0.7983519142   -0.2692824349   -1.3851911797
 O    1.1864004163    0.6281901786   -2.0860720185
 N    0.9798832300   -1.6294345160   -1.6852736875
 C    1.6165215834   -2.1900107477   -2.8031186663
 O    2.1141564643   -1.5646794319   -3.6955148118
 C    1.5969809927   -3.7245601530   -2.7411538887
 O    2.2410917380   -4.2231067022   -3.8790255850
 H    0.8186863779    1.9348489881    0.3324241403
 H   -0.7137208644    1.9208728780   -0.5329609409
 H   -0.6789411703    1.5411345951    1.2011545775
 H    0.6116889570   -0.5596550757    0.7316419310
 H   -0.9141615098   -0.5735709162   -0.1302303071
 H    0.6049810659   -2.2809983086   -1.0109316405
 H    2.0907697194   -4.0338833258   -1.8030589825
 H    0.5438165688   -4.0495849608   -2.6719338394
 H    2.2288464153   -5.1835410143   -3.8334587399