19

 C   -0.1014875981    1.5257153808    0.0115452030
 C    1.2292320070    0.7935666470   -0.0056713080
 C   -0.0579967991    0.0369957398    0.0026319393
 C   -0.5119127265   -1.0164742031    1.0099722277
 C   -2.0204328524   -0.9326844040    1.2196241931
 O   -2.6656724041   -0.4994430991    0.0251367967
 C   -2.0440204809   -0.9189717957   -1.1866291129
 C   -0.5316898111   -1.0049764976   -1.0075571092
 O   -0.2975034894   -2.0444811816   -0.0068825949
 H   -0.3988997667    2.0260987294    0.9274380861
 H   -0.4167358638    2.0364732626   -0.8925799399
 H    1.8099152977    0.8093549573   -0.9226008799
 H    1.8277766060    0.7989638579    0.8998216511
 H    0.0550027206   -1.1959965605    1.9281841338
 H   -2.3859036031   -1.9228574421    1.5323339303
 H   -2.2840954413   -0.2008016616    1.9917601286
 H   -2.4156608743   -1.9055581703   -1.5033778402
 H   -2.3226871968   -0.1783671491   -1.9450575548
 H    0.0170974763   -1.1739595402   -1.9386917198