16

 O    0.0206630892   -0.0913284509    0.0543726361
 C   -0.0325693711    1.1191126343    0.0503413826
 C   -1.3191921867    1.9302587890    0.0646952913
 C   -1.1923947258    3.2766512300    0.7935012892
 C    0.0656377046    4.0111838611    0.3626526766
 C    1.1367794086    3.2820779978   -0.0054671480
 N    1.1133621588    1.8926644879   -0.0353153615
 C    0.1048247307    5.4245144384    0.4006593141
 C    0.0870708706    6.6295678409    0.4511933083
 H   -1.5802855862    2.1070097517   -0.9877973001
 H   -2.1037942135    1.3026932149    0.4906042043
 H   -2.0749020671    3.8909583991    0.5980898003
 H   -1.1620081472    3.1170685299    1.8805418507
 H    2.0785787532    3.7371793732   -0.2853003207
 H    1.9733363096    1.3786986051   -0.1560456701
 H    0.0869131824    7.6902794674    0.4933037768