17

 C   -0.3104367327    1.4235625223    0.0945666353
 C    0.1241149571   -0.0180929740   -0.0518397833
 O    1.3700405053   -0.1714222152   -0.7938090815
 C    2.0298331521   -0.8357174115    0.2979219938
 C    0.7780898055   -0.6929492467    1.1557135522
 N    0.6443949649   -0.2546919427    2.5258853487
 C    0.2185205069   -1.6304280636    2.1679742709
 C   -1.1975696299   -1.9011594262    2.2274237389
 N   -2.3300300101   -2.1334065635    2.2401566903
 H    0.4652479137    2.0189490372    0.5834435933
 H   -0.5152067460    1.8518641812   -0.8909152536
 H   -1.2228634641    1.4813447030    0.6957818634
 H   -0.6686411256   -0.6228556453   -0.5111561619
 H    2.3264742916   -1.8626196209    0.0489249764
 H    2.9096792227   -0.2827386319    0.6547024539
 H    1.5330421245   -0.2876798476    3.0216650611
 H    0.8447745442   -2.4649422046    2.4733825221