18

 C   -0.0874295544    1.4704239195   -0.0046585173
 C    0.0356694044   -0.0234682120   -0.0087555005
 C    0.9536891666   -0.8672685801   -0.8937301323
 C    0.0923689770   -2.0892888090   -0.4492919339
 C    0.4072493314   -2.2283074626    1.0731315890
 C   -0.2954873624   -0.8837028817    1.2264195539
 C   -1.0615851527   -1.0607158489   -0.0646247459
 C   -0.0443872412   -3.2470796379   -1.2902027183
 N   -0.1613237831   -4.1778704720   -1.9674456322
 H    0.8187944637    1.9423027684    0.3921789164
 H   -0.2510414382    1.8579242997   -1.0161985784
 H   -0.9287475697    1.7956278687    0.6163562714
 H    0.8041826853   -0.6383883433   -1.9519890196
 H    2.0249908927   -0.9163198959   -0.6688391757
 H   -0.1694591308   -3.0383878592    1.5252374986
 H    1.4635060292   -2.3211145332    1.3467981753
 H   -0.6506264036   -0.4242291523    2.1394902220
 H   -2.1117627740   -1.0203131883   -0.3142920626