21

 C    0.1116906058    1.2908704452    0.2999944987
 O   -0.0647679023    0.0134417915   -0.2810191833
 C   -1.3405870148   -0.5338855555   -0.0909312991
 C   -1.6073978454   -1.1721592283    1.2482285451
 C   -1.3515351847   -2.0315068432    0.0200234944
 C   -2.4919137934   -2.8110198413   -0.6317328281
 O   -3.2237678097   -2.0667504216   -1.5920289499
 C   -3.6458249845   -0.8164950418   -1.0881396071
 C   -2.4540682446    0.1274454323   -0.8845855944
 H    1.1605941228    1.5613765054    0.1572236973
 H   -0.5146408352    2.0567649442   -0.1785099486
 H   -0.1121939163    1.2820010631    1.3765578794
 H   -0.8168030082   -1.1128259700    1.9877201870
 H   -2.6139001871   -1.1531140644    1.6570648539
 H   -0.3738516250   -2.4981310287   -0.0276829705
 H   -2.0942427358   -3.6743275603   -1.1717890609
 H   -3.1806603423   -3.1905135259    0.1422643652
 H   -4.3366991647   -0.3991971062   -1.8261717734
 H   -4.2081799063   -0.9483898867   -0.1473567338
 H   -2.7952055380    1.0561214019   -0.4107697097
 H   -2.0432410605    0.3863508201   -1.8670711921