15

 O   -0.1567556970    0.0136080894    0.1923583328
 C   -0.0240783691    1.1778276560   -0.0946372591
 C    1.2710452035    1.8886238846   -0.1045471870
 C    1.2865736535    3.3842251377    0.2332504728
 C    1.6243085740    2.9356182568   -1.1559583396
 C    3.1020444755    2.7165194116   -1.4602543402
 O    3.7370026761    3.2948878769   -2.3078245716
 C    3.5733214062    1.6495805617   -0.5342123517
 C    2.5495911864    1.1719062961    0.1859960818
 H   -0.8965535843    1.8134318983   -0.3696113923
 H    0.3264063864    3.8724735603    0.3726306075
 H    2.0770297526    3.7201151886    0.8947612683
 H    0.9567074293    3.1882740652   -1.9701206319
 H    4.6083749276    1.3388661404   -0.4875026920
 H    2.5893755994    0.3749664464    0.9180154123