19

 O    0.1735272921    1.3562992668    0.0144326107
 C    0.0359813671   -0.0283747779   -0.0349956649
 C   -0.4337765075   -0.7603830983    1.1951496404
 O   -0.9094236661    0.0588053688    2.2418428932
 C   -2.3165942089    0.3571355851    2.1879798523
 C   -2.6643719007    1.1714396564    0.9150785191
 C   -2.6933512775   -0.2075888710    0.1930088838
 C   -3.1438725035   -0.8026029072    1.5699504146
 C   -1.2977030360   -0.7738675264   -0.0477589329
 H    0.1506973960    1.5925613524    0.9522073176
 H    0.8217552061   -0.5011712668   -0.6203470215
 H    0.0851646763   -1.6405808140    1.5633293366
 H   -2.5671995104    0.7458071331    3.1759379260
 H   -3.6749599181    1.5824776009    0.9899537657
 H   -1.9739629667    1.9356064668    0.5692703164
 H   -3.3387858703   -0.3200158108   -0.6794851828
 H   -2.8600717866   -1.8296278073    1.8111726667
 H   -4.2094483079   -0.6529835686    1.7601325528
 H   -1.2852141474   -1.6924987019   -0.6291058540