17

 N    0.0181194980    1.4031999177   -0.1134750768
 C   -0.0141736006    0.0092564205   -0.0504215864
 C   -1.2142845140   -0.7126207288   -0.0087803695
 C   -1.1808831799   -2.1025830638    0.0013446686
 C    0.0214285580   -2.8004391584   -0.0250822516
 C    1.2313412084   -2.0951576067   -0.0666886394
 N    2.4685420475   -2.7365440450   -0.1452831535
 C    1.1937051684   -0.6964723380   -0.0805169842
 O    2.3952062008    0.0145989120   -0.0564578716
 H    0.8904877527    1.7869535618    0.2241579617
 H   -0.7818217515    1.8556327747    0.3048119390
 H   -2.1595052660   -0.1800380325    0.0099953826
 H   -2.1143125493   -2.6553235369    0.0366548879
 H    0.0336227554   -3.8854525514   -0.0188276748
 H    2.4827163807   -3.6608169029    0.2610391369
 H    3.2266058398   -2.1608048422    0.1955786153
 H    2.6733520317    0.1820395901   -0.9650892443