21

 C    0.6200565785    1.4303888474    0.1570695817
 O    1.2013150111    0.1999342550   -0.2840671620
 C   -0.1909972464    0.2095442261    0.0379152272
 C   -0.6302013980   -0.5915979821    1.2198021932
 C    0.3775258222   -0.9943881450    2.2667854318
 C   -0.2485426324   -2.0523157924    1.3872399616
 C   -1.4553005845   -2.8064991703    1.9253730162
 C   -2.3756822990   -1.7093042202    2.5091354739
 C   -2.0816653337   -0.4451825755    1.6691759888
 H    0.9339775732    1.7621462297    1.1454764092
 H    0.5498288790    2.2095372708   -0.6005406189
 H   -0.8425284232    0.1282340574   -0.8358501345
 H    1.4100475496   -0.7472295415    2.0470201057
 H    0.1104565834   -0.9377305405    3.3174141970
 H    0.3926109410   -2.5353394871    0.6579081246
 H   -1.9538474827   -3.3261662699    1.0979788880
 H   -1.1943517664   -3.5664239191    2.6702098990
 H   -3.4318219818   -1.9898129530    2.4835928738
 H   -2.1264923673   -1.5274754413    3.5591391819
 H   -2.2701169391    0.4790272362    2.2267779885
 H   -2.7257998235   -0.4185655649    0.7800007733