18

 C   -0.3069972684    1.7278289064    0.3752772863
 C    0.1033702202    0.2756296996    0.1160725878
 C    0.8850769910    0.0502317208   -1.1881114861
 C    1.9335325789   -1.0077647991   -0.8305643618
 O    2.7141563806   -1.5298462558   -1.5796612459
 C    1.8104703232   -1.2759143430    0.6792717787
 N    0.9486199600   -0.2254232325    1.2281597359
 C   -1.1803368717   -0.5680410893    0.1525428108
 O   -1.6886835790   -1.1034664212   -0.7964241211
 H    0.5817564518    2.3678970133    0.4110293588
 H   -0.9607352088    2.0975730826   -0.4192458213
 H   -0.8334042811    1.8199811986    1.3309623096
 H    0.2516455157   -0.3032771673   -2.0054573825
 H    1.3976568105    0.9588777119   -1.5221682556
 H    1.3574787217   -2.2684917232    0.8146275077
 H    2.7910625849   -1.3032109249    1.1596649684
 H    1.5163997507    0.5358778539    1.5842685218
 H   -1.6095623502   -0.6435676408    1.1759570885