25

 C    0.0651549331    1.6132268091    0.1192302797
 C    0.0322400142    0.0738992357    0.1175197695
 C   -1.3667759390   -0.4939283333   -0.0171164654
 C   -1.9262778783   -0.8526281831   -1.1834949169
 C   -1.2596293871   -0.7111191885   -2.5292606315
 C   -3.3233366644   -1.4383264842   -1.2657792232
 C   -3.8914454356   -1.8893773060    0.0828081957
 C   -3.6169228886   -0.8290401007    1.1499339782
 C   -2.1082356638   -0.6184475179    1.3016021256
 H    1.0808823362    1.9856666685    0.2885318371
 H   -0.2883618296    2.0120550480   -0.8368144773
 H   -0.5760564925    2.0252983690    0.9053891144
 H    0.6884585385   -0.2987365399   -0.6741802320
 H    0.4642501831   -0.2878960236    1.0601674870
 H   -1.0928095126   -1.6939259251   -2.9907347998
 H   -1.9098284632   -0.1573313870   -3.2196636379
 H   -0.3022286629   -0.1901503522   -2.4919863466
 H   -3.9938682757   -0.6932102192   -1.7227396395
 H   -3.3145344452   -2.2809242817   -1.9710463222
 H   -4.9645132866   -2.0910302439   -0.0069192624
 H   -3.4169952991   -2.8330292787    0.3828424488
 H   -4.0902762969    0.1156998953    0.8514418953
 H   -4.0583471486   -1.1134858263    2.1114833209
 H   -1.6718955455   -1.4523516999    1.8741393219
 H   -1.9133297999    0.2751562655    1.9096278308