18

 C   -0.0208446763    1.5326842867    0.0578204221
 C    0.0761686740    0.0417658621    0.0023378687
 N   -0.7957922505   -0.8738006783    0.7364541136
 C    0.6882822499   -0.9264354786    0.9990637431
 C    1.2731606893   -1.7078542138   -0.1369829001
 O    2.1589597930   -2.5084588639   -0.2512514725
 C    0.5894505102   -0.7822130864   -1.2069893389
 C   -0.4137805225   -1.3592517628   -2.1864229773
 O    1.6221104495   -0.0513029035   -1.8506653601
 H    0.8770768808    1.9807463845   -0.3742415425
 H   -0.8867616196    1.8890737291   -0.5115421975
 H   -0.1275065447    1.8830390399    1.0898639950
 H   -1.1924578994   -0.3588530140    1.5238528357
 H    1.0775470250   -0.7627547581    1.9964540482
 H   -1.2535815967   -1.8126964811   -1.6557902351
 H   -0.7848955500   -0.5724412390   -2.8509440975
 H    0.0645738837   -2.1273868191   -2.8037019630
 H    2.2655255144   -0.6919718238   -2.1771830620