18

 C    0.0391247234    1.3307415325   -0.1270997918
 O    0.0199005541   -0.0823654947   -0.0287323554
 C   -1.2569518394   -0.6237287426    0.0365165755
 O   -1.9275697091   -0.4236661259   -1.2103696809
 C   -2.8102970821   -1.5123410826   -1.4548338753
 C   -2.2062143024   -2.7044232799   -0.7327348377
 C   -0.7304037881   -2.9183400128   -0.9367355985
 C   -1.2174557152   -2.1226240370    0.2468757795
 H    1.0860077982    1.6386927151   -0.0816551274
 H   -0.4012088873    1.6743865646   -1.0700003936
 H   -0.5065019799    1.7961445313    0.7081029091
 H   -1.8308777116   -0.1230050935    0.8402936903
 H   -3.8175731017   -1.3008456493   -1.0619871059
 H   -2.8865691049   -1.6360248330   -2.5409305022
 H   -2.8471076714   -3.5378492545   -0.4713005945
 H   -0.3376314905   -3.9084700067   -0.7362726791
 H   -0.2323506260   -2.3800014502   -1.7358054767
 H   -1.0981863462   -2.4992868510    1.2546632747