15

 O    0.2944507955    1.2927381102    0.3468637472
 C    0.0668137111   -0.0057547952    0.0868277024
 N   -0.4690185992   -0.5036205566   -0.9962042967
 C   -0.4548852248   -1.8728264787   -0.7858105578
 C    0.0881616220   -2.1789655261    0.4302717512
 C    0.2812875008   -3.4772123624    1.1382944347
 C    1.4142980156   -3.5497738871    2.1392715464
 O    2.0041983113   -2.6035895108    2.6021622988
 N    0.4082015491   -0.9463998817    0.9991964287
 H   -0.0034898488    1.7770865064   -0.4333736307
 H   -0.8494056706   -2.5540807283   -1.5247514229
 H   -0.6088542367   -3.7726775110    1.7251381037
 H    0.4106641593   -4.2906950586    0.4141434996
 H    1.6525334442   -4.5821384512    2.4764548319
 H    0.9724927910   -0.8330620789    1.8267125034