17

 O   -0.0115707532    0.1773221924   -0.6932344020
 C    0.1232977402    1.0592007975    0.1165489270
 C    1.2886435125    1.9674765821    0.1933042290
 C    1.6556788393    2.9914265500    1.2879993747
 C    2.1773208228    3.9201484895    0.1638579634
 C    1.9425880534    5.3964762926    0.0416002252
 C    3.3495474240    4.8525435772    0.1534810770
 C    1.8144985911    2.8779563123   -0.8729101796
 O    2.4734163255    1.6658045326   -0.5432910939
 H   -0.6555646899    1.2787751665    0.8818406923
 H    0.7791861117    3.3969053942    1.8013890111
 H    2.3852429037    2.6341757945    2.0184400361
 H    1.6193048367    5.7840260726   -0.9194581618
 H    1.5216156886    5.9174651221    0.8953066477
 H    3.8796756452    5.0013669791    1.0883319740
 H    3.9829273232    4.8731188319   -0.7268834116
 H    1.4734506952    3.0014998430   -1.8954916386