21

 C   -0.2384763058    1.5527866995   -0.0085033013
 C    0.0353985484    0.0491504079    0.0021736977
 C    0.7719899024   -0.4867311923   -1.2719223462
 C    1.9306564900   -1.3568751277   -0.6964734875
 C    1.3024138378   -1.8866004059    0.6119801797
 C    0.9307741797   -0.4849124177    1.1539240292
 C    2.3080582797    0.2104441441    1.1367493850
 C    2.9438667401   -0.3524564847   -0.1489433487
 O    4.0074285360   -0.0467692736   -0.6215769010
 H    0.6742408866    2.1371122828   -0.1639394402
 H   -0.9290898404    1.8128577045   -0.8176458489
 H   -0.6924496918    1.8818201598    0.9327162696
 H   -0.9302155713   -0.4630836678    0.0871862754
 H    0.1129925921   -1.1023247312   -1.8906170057
 H    1.1476049013    0.3221624963   -1.9062637718
 H    2.3621488570   -2.0695162772   -1.3980321221
 H    0.4308209586   -2.5246183941    0.4383565440
 H    2.0124062436   -2.4253778092    1.2474041803
 H    0.4397010083   -0.4675269654    2.1289330798
 H    2.2938928576    1.3025876080    1.1296657258
 H    2.9173585401   -0.0975724862    1.9948880367