17

 N    0.0641085260    1.3597683505    0.2740607018
 C   -0.0392062267   -0.0736111437    0.1106330809
 C   -0.6173732584   -0.8558697502    1.2487222944
 N   -1.6327822261    0.0529988997    1.9034172362
 H   -2.0811627108   -0.3054788440    2.7426659307
 H   -1.2285219202    0.9884046641    2.0425837231
 C   -2.4789727622   -0.0012278481    0.6147904831
 C   -1.3640851927   -0.7540928670   -0.0881174175
 C   -1.6192642022   -1.9003109038   -1.1073340686
 O   -2.8308172970   -2.0645718353   -1.3289880959
 O   -0.5821361221   -2.4624597851   -1.4869002115
 H    1.0176701066    1.6237223066    0.5037501208
 H   -0.1687697604    1.8307779302   -0.5951029403
 H    0.7305437273   -0.6301291211   -0.4228224805
 H   -0.1926500510   -1.6740284449    1.8142064222
 H   -3.3420421800   -0.6483703467    0.7606264341
 H   -2.7696548301    0.9978163489    0.2849893970