15

 C   -0.4138780585    0.9465493269    0.0442182436
 O    0.6189049655   -0.0241217916   -0.0995314994
 C    1.0234731736   -0.5961846713    1.1015604018
 C    0.1234930714   -1.6279009111    1.7776829804
 O   -1.1187025514   -1.9154427451    1.2240648978
 C    1.3341569634   -2.0691246013    0.9789522493
 O    1.0222431159   -2.6643269380   -0.2497704584
 H   -0.0735972895    1.7905334100    0.6597899520
 H   -0.6437701438    1.3112727784   -0.9594912964
 H   -1.3063490522    0.5004404123    0.4930527872
 H    1.6577301392    0.0324109777    1.7278416735
 H    0.1442079395   -1.6886729751    2.8626097907
 H   -0.9355852285   -2.5058130482    0.4763349017
 H    2.2084540782   -2.4956725603    1.4607453191
 H    0.9313135572   -1.9363721934   -0.8824992831