22

 C    1.4679506560    0.3889778539    1.1702690526
 C    0.5658305905    0.8438782000    0.0157733642
 C    0.9274161660    0.1358156430   -1.2762043880
 C    0.2696437897   -1.1457139697   -1.6650262957
 N    0.0664465329    0.0578051473   -2.4630831304
 C   -1.2675437547    0.6729797844   -2.4529623183
 C   -1.1565398633    2.1275785039   -2.9367718255
 C   -2.1616113308   -0.1045046704   -3.3150277732
 C   -2.9085485146   -0.7315393304   -4.0169427846
 H    1.3544376083   -0.6834268275    1.3587798445
 H    2.5231555541    0.5761186807    0.9435424902
 H    1.2258077418    0.9230262025    2.0938633022
 H   -0.4795764334    0.6568524789    0.2814003096
 H    0.6671247184    1.9289218442   -0.1173600402
 H    1.9761598252    0.2606605418   -1.5479986660
 H    0.8224269184   -1.9488214370   -2.1451262765
 H   -0.5550246444   -1.4808350479   -1.0356153874
 H   -1.7145777232    0.6765198055   -1.4443832568
 H   -0.7208359873    2.1530413211   -3.9381759696
 H   -2.1424241471    2.5984505232   -2.9660630838
 H   -0.5141930565    2.7004648390   -2.2621403143
 H   -3.5656120659   -1.2889723365   -4.6374106429