21

 C   -0.0662348919    1.4443332260   -0.7173483125
 C   -0.0076583840    0.0289677474   -0.1850020091
 C   -1.3127894843   -0.7485850331   -0.1221071957
 C   -2.2993461699   -0.1655759985    0.8718971947
 C   -3.3468961078    0.8503972638    0.4470317127
 C   -3.7469779977   -0.5547191641    0.8222107000
 O   -4.1194256036   -1.4556147890   -0.1825267815
 C    1.2591851757   -0.7148614904   -0.2568393617
 O    0.8261070562   -0.1370346798    0.9772974652
 H    0.9253087938    1.9030889487   -0.6940645772
 H   -0.4319946353    1.4549361093   -1.7500251875
 H   -0.7426705444    2.0580829014   -0.1156200976
 H   -1.7682345372   -0.7960229225   -1.1165926569
 H   -1.0846905588   -1.7804320948    0.1675360664
 H   -1.8841941744   -0.0347086579    1.8672757389
 H   -3.5967346802    1.6677555643    1.1151491392
 H   -3.3932247575    1.0959952670   -0.6094321743
 H   -4.2605331490   -0.6996733040    1.7727006680
 H   -4.9906127175   -1.1996266033   -0.5020600255
 H    1.2471375761   -1.8039178974   -0.2936234286
 H    2.1353476917   -0.2494551229   -0.7079677773