19

 C   -0.1823736578    1.5171356715    0.0254220296
 C    0.0209929740    0.0130221071   -0.0790413981
 C    1.2325061320   -0.5452166795   -0.9171309304
 C    1.7245907103   -1.2594030373    0.3444428563
 N    1.9685788436   -0.1939559121    1.3501273722
 C    0.5889763911   -0.7295232778    1.1482913296
 C   -0.1852086151   -1.3003450969    2.2917940731
 O   -0.7581918979   -0.2916538992    3.1159151086
 H    0.7356997254    2.0020079513    0.3681055960
 H   -0.4578024566    1.9472118284   -0.9436525518
 H   -0.9808766876    1.7483095209    0.7382639001
 H   -0.9041509009   -0.4771225885   -0.4002215581
 H    0.9206288582   -1.2238746966   -1.7138543944
 H    1.9251499801    0.1989893486   -1.3187570578
 H    2.2446394145   -2.2075542126    0.4182276740
 H    2.3467674057   -0.6585755967    2.1775855279
 H   -1.0311787796   -1.8914877321    1.9237499015
 H    0.4609270602   -1.9806185942    2.8738327785
 H   -0.0549135196    0.3247618156    3.3470123032