21

 C   -0.3607003493    1.3193523187    0.2376207724
 C    0.1481216139   -0.0721611022   -0.0250967313
 O   -0.3031406736   -1.0872452344    0.8985399412
 C    1.1017871447   -0.7975912384    0.8375470230
 C    1.8936623112   -1.8122701332    0.0365585751
 C    1.1971825011   -1.8514399787   -1.3407208587
 C   -0.0458965206   -2.7702485571   -1.5435426680
 C   -0.8991736075   -1.5267855195   -1.9249690252
 C    0.2598226580   -0.6019971992   -1.4476785523
 H    0.2633231347    2.0640482202   -0.2679256860
 H   -1.3848429522    1.4336364468   -0.1350664272
 H   -0.3652331088    1.5333308374    1.3094181900
 H    1.5195524240   -0.3598859843    1.7429418390
 H    2.9332028958   -1.4723383641   -0.0491141933
 H    1.9117072809   -2.7937603223    0.5238302537
 H    1.9160881203   -1.9442411954   -2.1574579592
 H    0.0534948036   -3.5393155865   -2.3139508503
 H   -0.3767466526   -3.2385147988   -0.6154048982
 H   -1.0798179468   -1.4453974301   -2.9997508927
 H   -1.8503834664   -1.4119990621   -1.4008674325
 H    0.5565315195    0.1989778133   -2.1309252494