21

 C    0.0465135865    1.4888783948    0.0764070806
 C    0.0022870233    0.0001835379   -0.0651635652
 C    0.7070417161   -0.9293813658   -1.0904668250
 C    0.0863721687   -1.7954489635    0.0259608501
 O    0.5959235507   -0.8314878625    1.0268172251
 C   -1.2146491948   -0.9652432552   -0.0549847207
 C   -2.2788129736   -1.0272855560    1.0577993442
 C   -3.2872826561   -1.5721897912    0.0047251811
 C   -2.3138066098   -1.1402484201   -1.1298561068
 H    1.0802856262    1.8369635684    0.1622399843
 H   -0.4072870255    1.9664941223   -0.7980055110
 H   -0.5010003657    1.8075544908    0.9690037060
 H    0.2904427573   -0.9988733623   -2.0986199353
 H    1.7970523940   -0.8792499149   -1.0810570579
 H    0.2224048042   -2.8565175037    0.2396600361
 H   -2.0546292617   -1.6561529617    1.9213436417
 H   -2.5556392287   -0.0324223018    1.4217339018
 H   -3.3966014445   -2.6583700023    0.0608793013
 H   -4.2839527269   -1.1260980341   -0.0054849929
 H   -2.6029456864   -0.1871187706   -1.5848857502
 H   -2.1272958434   -1.8594087582   -1.9318244471