17

 C    0.4446553526    1.4147907677    0.2080617598
 O   -0.0347822660    0.0834647646    0.2182729650
 C    0.6298793578   -0.7432047261    1.1630896055
 C   -0.1083262716   -2.0050918050    1.2656600580
 C   -0.7074762178   -3.0384375845    1.3794808872
 C    2.0434651197   -0.9799445385    0.8226258277
 C    3.1998176226   -1.1480374356    0.5300411922
 C    4.6136841332   -1.3624995957    0.2226496157
 O    5.4877159280   -0.4831955753    0.9147292160
 H    1.5033880183    1.4659915388   -0.0779795108
 H   -0.1541875669    1.9550262638   -0.5276017865
 H    0.3220958168    1.8938589266    1.1920253662
 H    0.6036872278   -0.2501213684    2.1526940480
 H   -1.2389058478   -3.9536085254    1.4698005576
 H    4.8662398350   -2.4175858932    0.4140294525
 H    4.7933733529   -1.1845804080   -0.8432421472
 H    5.2972260953   -0.5662845060    1.8549450628