25

 C   -0.1303990590    1.6562275007   -0.4733276871
 C   -0.0338676107    0.1271390007   -0.4642186427
 C    1.0576238264   -0.4578281503   -1.3837780715
 C    2.4713306145   -0.0425951580   -0.9411625384
 C    0.9556731590   -1.9739757625   -1.4346736572
 C   -0.0236306514   -2.7232781547   -2.3289091841
 C   -0.9901523935   -2.0346842697   -3.2697179620
 C    1.4506398417   -2.7623975291   -2.6301280219
 O    1.8614336693   -2.0818399220   -3.7848922973
 H    0.7768023121    2.1297382759   -0.0856680427
 H   -0.2946056384    2.0353319528   -1.4885668292
 H   -0.9659818652    1.9980234487    0.1458070490
 H    0.1404033801   -0.2242569313    0.5625584110
 H   -1.0006307128   -0.2926377583   -0.7652649103
 H    0.8955356944   -0.0635977769   -2.3936313171
 H    3.2346652455   -0.4619142631   -1.6057475337
 H    2.5988002495    1.0436780842   -0.9417788728
 H    2.6864737833   -0.4045252091    0.0715554788
 H    1.1420694008   -2.4432926078   -0.4691611731
 H   -0.4198314388   -3.6375578459   -1.8937980699
 H   -0.5223841647   -1.2004446092   -3.7941916916
 H   -1.3420004349   -2.7389189136   -4.0314581456
 H   -1.8695705390   -1.6604424033   -2.7347889095
 H    1.9867794934   -3.6940583005   -2.4477923104
 H    2.7303309884   -1.7039000080   -3.6149349307