23

 C    0.0998268030    1.6528151510   -0.1290260988
 C    0.0295353648    0.1253199717   -0.0127486499
 C    0.7910621834   -0.6239888299   -1.1413915659
 C    1.4765910955   -1.8537579378   -0.4773804833
 C    1.4654632188   -1.4732697686    0.9895408927
 C    0.6748252592   -0.4318998801    1.2382879319
 C    0.7535472200   -3.1695787991   -0.7258130557
 C    1.0535832447   -3.9885482214   -1.9560413102
 C    1.4841857910   -4.4816059013   -0.5953334207
 H    1.1398091816    1.9969784440   -0.1055236673
 H   -0.3485366670    1.9974191591   -1.0670982730
 H   -0.4338415806    2.1408183980    0.6938629273
 H   -1.0343589120   -0.1578639374   -0.0211430067
 H    0.1405387579   -0.9136531336   -1.9712311526
 H    1.5583507162    0.0422274850   -1.5510274537
 H    2.5035295892   -1.9718911521   -0.8499053523
 H    2.0033413849   -2.0471697623    1.7368678626
 H    0.4757964698   -0.0170251140    2.2217802192
 H   -0.2821952477   -3.1707201599   -0.3937839258
 H    0.2352050223   -4.4973347541   -2.4534988971
 H    1.8242091431   -3.6266804084   -2.6294826232
 H    2.5436360552   -4.4496116307   -0.3606109536
 H    0.9619483565   -5.3280712080   -0.1631574837