21

 C    0.1049530993    1.2704422087    0.1513795322
 O   -0.2825008307   -0.0142317568   -0.2851602807
 C    0.5432340002   -0.5526088795   -1.2890963468
 C    1.8534498821   -1.2642893173   -0.8270494699
 C    0.9457760995   -2.4211225795   -0.3219644487
 C    0.0983392711   -2.0153949967   -1.5782415627
 O   -1.2398737902   -2.3352356421   -1.7436045880
 C    1.0205862137   -2.4039980519   -2.7375459350
 C    2.3614239860   -1.8190091191   -2.1760596827
 H    1.0959776101    1.2624846740    0.6269835465
 H    0.1272039394    1.9883615667   -0.6826348242
 H   -0.6353504449    1.6021624013    0.8834964614
 H    0.6199638741    0.1452069460   -2.1376295884
 H    2.5771451304   -0.7739160195   -0.1772697035
 H    1.3667584066   -3.4296730175   -0.2928267266
 H    0.4379652917   -2.1821013196    0.6117373146
 H   -1.7266769657   -1.8419564468   -1.0718458506
 H    1.0507401652   -3.4865841486   -2.8846558037
 H    0.7081592763   -1.9409068630   -3.6775003538
 H    2.7789581553   -1.0380644022   -2.8187053376
 H    3.1285604808   -2.5855145867   -2.0382691820