23

 C    0.1195232558    1.5950967560    0.2269721769
 C   -0.0127024630    0.0798025032   -0.0036365413
 C    0.6446524989   -0.3953565884   -1.3196361505
 C   -0.0163644859    0.1499376336   -2.5944339736
 C    0.6098710684   -0.4078203646   -3.8559024518
 C    0.1729322749   -1.7449287706   -4.4012290891
 C   -0.1759389959   -0.4750524888   -5.1397039736
 C    0.6416572866   -0.6560247829    1.1489224964
 O    0.1006294343   -1.4600556178    1.8628788561
 H    1.1728166706    1.8972060102    0.2608209366
 H   -0.3643854825    2.1610752719   -0.5725829935
 H   -0.3461648022    1.8912933111    1.1720074251
 H   -1.0699977378   -0.2086237450   -0.0023440184
 H    1.7081192674   -0.1176749685   -1.3127747369
 H    0.6137502806   -1.4913068624   -1.3545376686
 H   -1.0862042359   -0.0982057897   -2.5820120772
 H    0.0452301351    1.2449310537   -2.6144210477
 H    1.6681936981   -0.1803915949   -3.9640433822
 H    0.9208986709   -2.4026827844   -4.8297820008
 H   -0.6286239201   -2.2643661296   -3.8851730092
 H   -1.2099667734   -0.1457770975   -5.1182650434
 H    0.3356596648   -0.2627901009   -6.0720155832
 H    1.7189829402   -0.3955432135    1.2946729401