16

 C   -0.0252587044    1.5330938215    0.1036518162
 C    0.0249706657    0.0283292029   -0.0290605409
 C    0.6854038822   -0.6727020736   -1.1928977722
 N    1.4378590630    0.1015475781   -2.1444184619
 C    1.3436523907   -0.7099730708    0.1975143442
 O    2.5067794325    0.0317087256    0.3363274653
 C    1.3324958213   -1.9462378987    0.9386315506
 N    1.2857368940   -2.9443075512    1.5219000208
 H    0.9482800396    1.9834935184   -0.0958189824
 H   -0.7610198999    1.9660595759   -0.5830374799
 H   -0.3166304084    1.8114410791    1.1205761759
 H   -0.8516927061   -0.4937397065    0.3432035973
 H    0.2165133544   -1.5897925224   -1.5405062664
 H    1.8288510026   -0.4876897305   -2.8698686767
 H    0.8748358918    0.8184545960   -2.5882137053
 H    2.7128172109    0.3299986063   -0.5698312547