20

 C   -0.0449768744    1.4215742508    0.1837443153
 C   -0.2128990922   -0.0217026412   -0.2773191501
 N    0.9959024448   -0.4801961607   -0.9723289313
 C    1.0672549650   -1.8068750590   -1.3670755639
 C    1.4691020184   -2.4177106143   -2.5235378491
 C    1.8826986289   -1.7621738879   -3.8048197652
 C    1.4119442333   -3.8292181042   -2.2388854160
 C    0.9695054802   -3.9613142857   -0.9670739961
 O    0.7592774871   -2.7248043679   -0.4127800586
 H    0.8217405577    1.5186073455    0.8435908356
 H    0.1004426903    2.0963245087   -0.6682087514
 H   -0.9353259818    1.7582510863    0.7224324286
 H   -0.3626627086   -0.6774296639    0.5842363614
 H   -1.1104428859   -0.1164068664   -0.9108415138
 H    1.2583095973    0.1359402855   -1.7306567401
 H    2.9723738558   -1.7351763114   -3.9334262388
 H    1.4707183764   -2.2898734273   -4.6719667421
 H    1.5256724042   -0.7273838916   -3.8613059641
 H    1.6584605159   -4.6321251565   -2.9174885271
 H    0.7426404275   -4.7991509888   -0.3305045930