18

 C    0.0057066277    1.5804578871    0.0351965640
 C   -0.0148353777    0.0503934310    0.0738024633
 C   -1.4298742278   -0.5191921093   -0.0804728508
 O   -2.0598724564   -0.1122693920   -1.2728047773
 C   -1.4424904458   -2.0865299645    0.0530156827
 C   -2.7994823381   -2.6173593156    0.1610480320
 C   -3.9182326320   -3.0344721878    0.2789066890
 C   -0.7333623030   -2.6731966823   -1.0953758785
 N   -0.1644890922   -3.0717496908   -2.0188831600
 H    1.0300095301    1.9578638160    0.0988904321
 H   -0.4421041711    1.9503989220   -0.8904179684
 H   -0.5612048140    2.0043046641    0.8711213956
 H    0.6205870938   -0.3556081585   -0.7247025112
 H    0.4109729170   -0.3081298293    1.0195704165
 H   -2.0692415264   -0.1452729038    0.7263458032
 H   -1.5174875497   -0.4025770388   -2.0172867500
 H   -0.8801260845   -2.3500520665    0.9588475731
 H   -4.9093858601   -3.4049613910    0.3726019846