17

 C    0.0803875033    1.4616268857   -0.1474745924
 O    1.4963093236    1.4113355533    0.1791623499
 C    1.3342853037    0.0993743955    0.7839444020
 C    2.1190247984   -1.1264065884    0.2821966898
 C    0.9460209540   -1.8238424083   -0.4558427980
 O   -0.0571205268   -2.2496161743    0.4898656108
 C   -0.9014335707   -1.0924646072    0.7181066733
 C   -0.0209743375   -0.0425467520    0.0671159508
 O    0.3473332650   -0.7474451278   -1.1343562336
 H   -0.4810401229    2.0656762182    0.5759666403
 H   -0.1045157283    1.8136267333   -1.1655150767
 H    1.3004020714    0.1841484138    1.8754745539
 H    2.9110708991   -0.8594704378   -0.4219466976
 H    2.5344451903   -1.7261762036    1.0941921658
 H    1.1854591265   -2.6492563509   -1.1259507158
 H   -1.8740226876   -1.2293933408    0.2326619046
 H   -1.0353981916   -0.9498780389    1.7943006427