20

 C   -0.0488603033    1.5293271769    0.0267671382
 C    0.1329636316    0.0350879911   -0.0259245485
 N   -0.5251335929   -0.8199336387    0.9978469116
 C    0.9536351871   -0.7348206649    0.9392947722
 C    1.5479898196   -1.9705449809    0.2548272068
 O    1.2071400121   -3.1721811098    0.9204367099
 C    1.0901963646   -1.8790858976   -1.2140658635
 C   -0.3756231311   -2.0039475340   -1.5508690125
 C    0.2414407971   -0.6384586724   -1.3908517834
 H    0.7218630611    2.0375258521   -0.5629229590
 H   -1.0239200266    1.8229720932   -0.3785170665
 H    0.0168117397    1.9005115217    1.0549828484
 H   -0.8691452754   -0.2361139195    1.7569310697
 H    1.4813451088   -0.2733298464    1.7687289221
 H    2.6414017077   -1.9158390994    0.2872806515
 H    0.2590200173   -3.1098785532    1.0937014238
 H    1.8031795964   -2.1823717179   -1.9725382040
 H   -0.6124658484   -2.3282707039   -2.5586936102
 H   -1.0733377273   -2.3302952164   -0.7904277176
 H    0.3448788918    0.0113546300   -2.2528090090