21

 C    0.0152942000    1.5185551458    0.0125238657
 O    1.3330934996    2.0302824003   -0.1253363847
 C    2.3529416663    1.1519591104    0.3654514507
 C    1.8191390737    0.3196828106    1.5331189040
 O    0.7002333882   -0.4875018712    1.1694290300
 C   -0.0016760052   -0.0066473408    0.0182907640
 C    0.5759284479   -0.6245659287   -1.2817454354
 C    2.0822561631   -0.9055588501   -1.1833949720
 C    2.9313956306    0.3142427952   -0.7911966890
 H   -0.4429756997    1.8828990478    0.9451336419
 H   -0.5756830337    1.9072266839   -0.8243271576
 H    3.1431622418    1.8078966724    0.7506179357
 H    2.5997435714   -0.3520417882    1.9086873003
 H    1.5380346803    0.9973583817    2.3532444441
 H   -1.0394595521   -0.3336561309    0.1488109078
 H    0.0598304956   -1.5676537380   -1.4910598991
 H    0.3582811110    0.0451963913   -2.1229250649
 H    2.2270060748   -1.6972508993   -0.4413654330
 H    2.4396308822   -1.3061793404   -2.1384838863
 H    3.0419035998    0.9968622101   -1.6412599195
 H    3.9409472343   -0.0195788520   -0.5204402828