18

 C   -0.0043968430    1.5168426119   -0.0507338023
 C   -0.0034646620   -0.0093617582    0.0028703115
 O    0.6179958203   -0.4634014204   -1.1900447125
 C    0.8850715912   -1.8547556592   -1.1920470030
 C    1.8298008794   -2.2155258838   -0.0694303668
 C    1.5796816976   -1.5316516185    1.1935506594
 C    0.6859524418   -0.5360060695    1.2363739233
 N    2.7193548477   -3.1057131156   -0.3142169713
 O    3.5116588614   -3.3883498505    0.8067386723
 H    1.0212265488    1.8959574228   -0.0463507818
 H   -0.4971695979    1.8548048432   -0.9657540495
 H   -0.5381755734    1.9320214003    0.8090778592
 H   -1.0546229909   -0.3604528187    0.0210239234
 H   -0.0540717834   -2.4246057104   -1.0815236217
 H    1.3241573285   -2.1018302590   -2.1599870561
 H    2.1066539170   -1.8702739087    2.0764760046
 H    0.4306936478   -0.0557352115    2.1775175887
 H    4.1049243992   -4.0669052442    0.4684406127