15

 N    0.0051596950    1.3525572053    0.0741952228
 C    0.0619708175   -0.0037331974    0.0229590254
 N    1.1834777381   -0.6304111355   -0.0071115168
 C    1.2107922012   -1.9944369299   -0.0150510031
 C    2.3019846486   -2.8255547723    0.0113616969
 N    3.6500706613   -2.4635204946    0.1363578676
 C    1.7275383782   -4.1224112269   -0.0173898971
 N    0.4152262520   -4.0941336951   -0.0642018190
 O    0.0743731401   -2.7433502009   -0.0488990879
 H    0.8593894154    1.8650457484   -0.0804874816
 H   -0.8585545649    1.8197859654   -0.1383590805
 H   -0.9107298017   -0.5003435545    0.0454968389
 H    3.7566180522   -1.4617837177    0.0228195827
 H    4.2490811639   -2.9393551573   -0.5277748396
 H    2.2308998031   -5.0797035069   -0.0095721887