17

 C    0.1137333040    1.4389471780    0.0293840189
 C    0.0428493708   -0.0149520058   -0.0028291379
 C   -0.0088371091   -1.2178214004   -0.0132126703
 C   -0.1023899542   -2.6763310589   -0.0476661016
 C   -1.5629730810   -3.1652964199   -0.0212853137
 N    0.6170670097   -3.1914810593   -1.2183660062
 C    1.2403462002   -4.3963004886   -1.2079611573
 O    1.2422631368   -5.1670368801   -0.2697087446
 H    1.1513538571    1.7879887513   -0.0079379698
 H   -0.4192331463    1.8843460039   -0.8177087335
 H   -0.3356362857    1.8333494295    0.9472492238
 H    0.4112766192   -3.1019929761    0.8221148967
 H   -2.1083742939   -2.7986267347   -0.8953685328
 H   -1.5781949784   -4.2577372202   -0.0195984519
 H   -2.0663426399   -2.8017972168    0.8786770765
 H    0.6800599737   -2.6052090593   -2.0350505110
 H    1.7571425971   -4.6045114327   -2.1658549353