19

 C    0.1774951664    1.4477811186    0.0302044698
 C   -0.0407330093   -0.0237104889    0.0140313378
 C   -1.1621181211   -0.8010983568    0.0499208541
 C   -2.5950139620   -0.3800525012    0.1432066830
 C   -0.6956392525   -2.1645678235   -0.0106630017
 N   -1.4973839109   -3.3121186595    0.0824034070
 C    0.6621313154   -2.1174004557   -0.0800976951
 N    1.5962436190   -3.1537148048   -0.1410517842
 O    1.0783632864   -0.7972421649   -0.0532587017
 H    0.8209106921    1.7480375645    0.8654247800
 H    0.6594469221    1.7951554014   -0.8917339633
 H   -0.7745219353    1.9734696017    0.1301299529
 H   -3.1597223377   -0.6382894393   -0.7626392381
 H   -3.0973104677   -0.8755598549    0.9823413118
 H   -2.6918653940    0.6993952868    0.2860499447
 H   -2.3018340643   -3.2775074967   -0.5327919607
 H   -0.9530077522   -4.1424329983   -0.1236369845
 H    2.1734945132   -3.2173507735    0.6930312191
 H    2.2180784221   -3.0709202948   -0.9398249908