21

 C   -0.1341585418    1.4968140056   -0.0227612759
 C   -0.0225684874   -0.0100375729    0.0454762652
 C    1.3039661917   -0.6967186602   -0.2097414112
 C    0.7109191480   -0.6771049116    1.1707418468
 C    1.3528722651   -0.0667296137    2.4438986676
 C    0.9027968349   -1.3405757546    3.1989816932
 C    1.5362254228   -1.9791126209    4.3911917358
 O   -0.5255132495   -1.4077183776    3.0648829917
 C    0.2869302298   -1.8884325279    1.9759639680
 H    0.7742858115    1.9793017349    0.3531015658
 H   -0.2866691530    1.8365213701   -1.0532128410
 H   -0.9751019359    1.8596790049    0.5781846723
 H   -0.9006686847   -0.5416898307   -0.3146452035
 H    1.3088194785   -1.6340902162   -0.7579066278
 H    2.1718364104   -0.0702266304   -0.3958526761
 H    2.4397134442    0.0319809063    2.3693528447
 H    0.9217596360    0.8637967210    2.8229861587
 H    1.4054593359   -1.3541851281    5.2822369237
 H    1.0800437981   -2.9526001319    4.5898069159
 H    2.6107918389   -2.1181816102    4.2342490063
 H    0.1259450264   -2.9108380258    1.6496573299