21

 C   -0.0651843059    1.5242115928    0.1183061333
 C    0.0450692543    0.0227796649   -0.0312362283
 C    0.6741781508   -0.6699112033   -1.2129390532
 C    0.0247943671   -1.9551851583   -1.6945748513
 C    1.3075708352    0.1403030686   -2.3294000754
 C    1.3922038907   -0.6904926281    0.1523707049
 N    2.5642564390    0.1367488650    0.3137830255
 C    1.3923087815   -1.9270826043    0.9060346308
 N    1.4373077530   -2.9032400387    1.5281144707
 H    0.8474017236    2.0342181257   -0.1916977736
 H   -0.8970344067    1.9065543182   -0.4830221884
 H   -0.2631965645    1.7928097469    1.1615254009
 H   -0.7894728658   -0.5210137208    0.4044575505
 H   -0.7783947505   -1.7249976524   -2.4035942884
 H    0.7507197451   -2.5944491891   -2.2092652705
 H   -0.4051954327   -2.5341504077   -0.8738801786
 H    1.8717770570    0.9940472961   -1.9561819096
 H    1.9907848667   -0.4864415582   -2.9136839815
 H    0.5325726312    0.5039223034   -3.0135870486
 H    2.6901217324    0.3852002378    1.2905605238
 H    3.3979826082   -0.3662863185    0.0251831270