17

 O    0.2596712072    1.3877499202    0.0504378180
 C    0.0382874729    0.0361004293    0.0447001703
 C   -0.8846698535   -0.6753026290   -0.9203830012
 O   -1.1791082573   -1.7014826093    0.0708425883
 C   -0.4432552402   -1.0038109596    1.0831141808
 C    0.9956908101   -0.9309571038    0.6744868962
 C    2.0319907571   -1.9382326537    0.1880175598
 C    2.9707766603   -1.1961185630    1.1639542379
 O    1.9126682072   -0.2821291796    1.5706344122
 H    1.0802307510    1.5219727343    0.5480987012
 H   -1.7860652353   -0.0993936163   -1.1592744032
 H   -0.4502181029   -1.0892069857   -1.8381240038
 H   -0.8249660023   -0.9869231085    2.0978540071
 H    1.8150462874   -2.9765845715    0.4413038651
 H    2.3003805175   -1.8679338825   -0.8676724534
 H    3.3330611036   -1.7799965108    2.0156891011
 H    3.8074438372   -0.6568850004    0.7086011938