27

 C    0.7869916915    1.7305791451    0.3719900135
 C    0.7669804191    0.1985496981    0.4121995517
 C    1.1125639182   -0.4859582274   -0.9295226043
 C    2.6111813215   -0.3320085513   -1.2331873297
 C    0.6228393791   -1.9658962054   -0.9248467539
 C   -0.9065888537   -2.0339100854   -1.0855048566
 C    1.3251597345   -2.8414781107   -1.9812204514
 C    0.9083740753   -4.3139068482   -1.9493064529
 O    1.0544460907   -2.2588361361   -3.2585038134
 H    1.7717973473    2.1255109519    0.1040851870
 H    0.0675538136    2.1127818723   -0.3609386250
 H    0.5215501425    2.1513959387    1.3472739999
 H    1.4707941795   -0.1582219758    1.1776212313
 H   -0.2250503125   -0.1213186536    0.7490400613
 H    0.5618095377    0.0300136780   -1.7276611596
 H    3.2224555974   -0.9040649469   -0.5240047308
 H    2.8487216569   -0.6659774530   -2.2452673171
 H    2.9177702874    0.7150207688   -1.1541722531
 H    0.8972321329   -2.3979900071    0.0490042037
 H   -1.2993305249   -3.0263912922   -0.8467849155
 H   -1.4147681967   -1.3230736275   -0.4292880572
 H   -1.1831506790   -1.7985527235   -2.1171613601
 H    2.4065806890   -2.8033604948   -1.7838753303
 H    1.0719536686   -4.7475875948   -0.9570322825
 H   -0.1439763323   -4.4397185000   -2.2162131146
 H    1.5078969710   -4.8931479621   -2.6620213045
 H    1.4434328356   -2.8248438372   -3.9322335758