13

 N    0.0114339077    1.0932962996    0.1499177052
 H    0.1341712998    0.1525364841   -0.1907089603
 H    0.7345009529    1.7303912551   -0.1518420390
 C   -1.2618482426    1.5897009154    0.0634133211
 O   -1.3709471764    2.9251899725    0.0650172351
 C   -2.7233383724    3.2248818084    0.0401709717
 C   -3.1444468724    4.6010600498    0.0302240802
 O   -2.4197567602    5.5762131769    0.0402560678
 C   -3.4332943560    2.0505009083    0.0225575143
 C   -2.5012112360    0.9852977379    0.0360981275
 H   -4.2540036990    4.6936332159    0.0104655864
 H   -4.5100489224    1.9724116441    0.0000145908
 H   -2.6994807428   -0.0740215978    0.0318162893