15

 N   -0.0734394587   -1.1390943559   -0.0609920603
 C   -0.0213728484    0.0137485945   -0.0222674332
 C    0.0477299642    1.4735111102    0.0544797328
 N    1.4064742591    1.9425925907   -0.1544904001
 C    1.6010635068    3.3218460781   -0.0426528781
 C    0.6632393340    4.3145908764    0.0002016418
 O    1.2786320766    5.5371087328    0.0413144013
 C    2.6107305870    5.3095774058    0.0397405291
 C    2.8786903989    3.9803527223   -0.0138567503
 H   -0.5951033870    1.8936039918   -0.7299504825
 H   -0.3831743793    1.7942296098    1.0194912076
 H    2.0886910437    1.4009899219    0.3589402090
 H   -0.4122946212    4.3316532088   -0.0061591469
 H    3.2384560971    6.1847360668    0.0765529082
 H    3.8508151374    3.5132403962   -0.0385935085