14

 N   -0.0238951473    1.3642936990    0.0099296347
 C    1.2962226550    1.7634832778   -0.0007233876
 N    2.1427061941    0.7728843459   -0.0142291436
 C    1.3456523680   -0.3644617409   -0.0126976299
 C   -0.0208783893   -0.0122392314    0.0024212673
 C   -1.0107395145   -0.9903686611    0.0066860907
 C   -0.5492962348   -2.3007089992   -0.0048812615
 N    0.7470914667   -2.6680939980   -0.0194029332
 C    1.6792894727   -1.7203015809   -0.0232736455
 H   -0.8286251799    1.9678193663    0.0210196830
 H    1.5602089213    2.8120117335    0.0023974041
 H   -2.0709417889   -0.7650131769    0.0181629100
 H   -1.2663480540   -3.1176003898   -0.0023730041
 H    2.7196112809   -2.0355490243   -0.0350377360