15

 O   -0.0220148427    0.0280823627    0.0546613838
 C   -0.0040672429    1.2243593543   -0.0262388469
 N   -1.0628182076    2.1216082939   -0.1105038787
 C   -0.4122857294    3.4425093493    0.0276407564
 C    0.7124631936    3.2980359568   -1.0284769647
 C    1.2044652519    2.2109492564   -0.0063524912
 C    0.6768348546    3.1949105985    1.1128877012
 C    2.5326605369    1.6560206364   -0.0113443282
 N    3.6106543044    1.2396380313   -0.0152686015
 H   -1.9309835519    1.9028593666    0.3563533332
 H   -1.1063151575    4.2786907027    0.0470491809
 H    0.4268574144    2.9600039365   -2.0250734494
 H    1.3886564375    4.1526609172   -1.0689672604
 H    1.3530853536    4.0363654546    1.2725345217
 H    0.3645135653    2.7525388130    2.0610263938