21

 C    0.3174823077    0.8955935304   -1.0898434884
 O   -0.1082265507    0.3531328097    0.1422938656
 C   -1.2791218947   -0.4372215548    0.0884811659
 C   -1.0330769021   -1.8310868404   -0.5215650834
 C   -1.0455923322   -1.8769222282   -2.0283580889
 O   -0.2285034336   -2.4315475929   -2.7185499392
 C   -1.7945954980   -0.5528367149    1.5403381040
 C   -2.0506356396    0.8100040627    2.1751511666
 O   -2.9504458396   -1.3835406978    1.5900773244
 H    1.1622751595    1.5538229415   -0.8732275282
 H    0.6501752297    0.1225950070   -1.7949888340
 H   -0.4789218554    1.4870881714   -1.5674451329
 H   -2.0558138306    0.0840244149   -0.5049188035
 H   -0.0974135287   -2.2545468540   -0.1458921692
 H   -1.8659639106   -2.4636735079   -0.1834723822
 H   -1.9209628485   -1.3566423720   -2.4892373583
 H   -1.0327174416   -1.0878200080    2.1196921910
 H   -2.8195537306    1.3589001627    1.6147721081
 H   -2.3997127683    0.6859051031    3.2036687383
 H   -1.1412889754    1.4129103384    2.1730703967
 H   -3.7028325967   -0.8589306607    1.2940606976