15

 O    0.0667293424    1.4324808095   -0.1233114659
 C   -0.0355467575    0.0394475982    0.0379048895
 C   -1.4678766592   -0.5151811896   -0.0193290293
 O   -2.0156960000   -0.0164427336   -1.2324154850
 C   -1.1941661669   -1.1983848468   -1.3228250841
 C   -1.8291243100   -2.4340325079   -1.8301611480
 O   -1.2027864348   -3.3864165891   -2.2210388947
 C    0.2851780599   -0.7800933068   -1.2767339199
 O    0.7999149917   -0.0438275737   -2.3379158552
 H   -0.6970579573    1.6983940895   -0.6550658366
 H    0.5527805505   -0.2516697929    0.9083882505
 H   -2.1569382742   -0.7817306339    0.7742039005
 H   -2.9399749922   -2.4128252810   -1.8027964088
 H    0.9054185278   -1.6590854549   -1.0689888571
 H    0.8787761496    0.8659926531   -2.0163038559