19

 O   -0.2003954629    1.3362953714    0.2618005756
 C    0.0122974184   -0.0410240384    0.0669816477
 C    1.1149472149   -0.5035868775   -0.8474556615
 C    1.2301992821   -0.6988179111    0.6586061777
 C   -1.3103689321   -0.7602419177    0.0749669962
 C   -2.2519739989   -0.5053451746    1.2981991934
 C   -3.3929175658   -0.2713436982    0.2977078288
 O   -4.5852123157   -0.2343239230    0.3937462370
 C   -2.4193113227   -0.2218846476   -0.8885200307
 H    0.6466187519    1.7911323419    0.2559190285
 H    0.9505555965   -1.3743662467   -1.4734418726
 H    1.7415568016    0.2560564046   -1.3050208508
 H    1.9328478990   -0.0679815964    1.1946971848
 H    1.1444820638   -1.7028673862    1.0606972718
 H   -1.1388157243   -1.8283457940   -0.0766172211
 H   -2.3949113388   -1.3076306238    2.0258189385
 H   -1.9922056914    0.4182700217    1.8245364235
 H   -2.2233700368    0.8098508046   -1.1962609591
 H   -2.6850698388   -0.8161174288   -1.7658930075