19

 O   -0.1688718813   -0.0001458609    0.0180264723
 C   -0.0315830256    1.2024756491    0.0882644181
 C    1.2531011063    1.9062439223    0.0038501267
 C    1.2649845257    3.2517855394    0.0593962407
 C    2.4963738276    4.0501224312   -0.0265632070
 C    3.6552930891    3.7357051997    0.9243427198
 C    3.7476935610    3.3281660334   -0.5116775338
 C    3.5901742352    1.8847834566   -0.9570801733
 C    2.5211266199    1.1079087515   -0.1644830483
 H   -0.9115358389    1.8731766561    0.2213393193
 H    0.3210886533    3.7844303978    0.1626306658
 H    2.3717652826    5.0938119158   -0.2930742377
 H    4.2511612164    4.5764324898    1.2619319011
 H    3.4787036695    2.9803831691    1.6814457601
 H    4.4116635236    3.9232517771   -1.1319565117
 H    3.3126529932    1.8874071278   -2.0186043663
 H    4.5505486524    1.3619194445   -0.8866535919
 H    2.9148289604    0.8289512639    0.8214225442
 H    2.2831904497    0.1620008555   -0.6590603983