18

 C    0.2218473857    1.5753582352    0.0006751151
 C   -0.0182826643    0.0565410486    0.0282187776
 C    0.6281223086   -0.6375281853   -1.1509592191
 C    1.7052947342   -1.3630483051   -0.8139204245
 C    1.8929066554   -1.3020091882    0.6306680200
 N    2.8579417669   -1.6506815425    1.3893511583
 O    3.9224946867   -2.2174719075    0.6724670844
 C    0.6575214930   -0.6539571211    1.2408192316
 O    0.9357304278    0.2107266842    2.3173997410
 H    1.2916151477    1.8010718674    0.0031535167
 H   -0.2209515625    2.0158024168   -0.8983816150
 H   -0.2229483071    2.0481372849    0.8786728178
 H   -1.1004476169   -0.1196913844    0.0361088666
 H    0.2654527706   -0.5008027391   -2.1645606869
 H    2.3654302202   -1.8984337387   -1.4814518095
 H    4.5496189631   -2.4344934389    1.3702846888
 H   -0.0110857138   -1.4650164872    1.5751047772
 H    1.7509220547   -0.1133325691    2.7204001800