17

 C   -0.0084571902    1.3831772138   -0.0799133675
 N   -0.0020351948   -0.0650080623    0.0336923643
 C   -1.1104084836   -0.6636262111    0.0929451340
 N   -1.3083953932   -2.0307465264    0.1991302201
 C   -2.6736365341   -2.3144284023    0.1628571249
 C   -3.2314356557   -3.7011912109    0.2170710888
 O   -4.6001456140   -3.7347312386   -0.1286393298
 C   -3.3022161551   -1.1339971638    0.0906504030
 O   -2.3752065941   -0.1023519059    0.0590853347
 H    0.9712626095    1.7163363640   -0.4336508258
 H   -0.7717200099    1.7603772044   -0.7746640060
 H   -0.1874718120    1.8647411290    0.8920155080
 H   -0.5508762370   -2.6822203148    0.0967173861
 H   -2.6255519398   -4.3669825671   -0.4218615780
 H   -3.1675976274   -4.1043850242    1.2351702822
 H   -4.6804322338   -3.3841791559   -1.0227145616
 H   -4.3413346748   -0.8606051778    0.0922149627