23

 C    1.7623589949    0.6213991106    1.2426059935
 O    0.9802325719   -0.3476724789    0.5566170301
 C    1.3147753698   -0.5671465417   -0.7845508810
 C    1.0642349717    0.5918499787   -1.7202355373
 O    2.1099490862    1.5530718073   -1.5891716124
 C    2.4460011037   -1.5317893287   -1.0997728727
 C    3.3251615914   -2.1248583420   -0.0199242962
 C    0.9971385089   -1.9612150759   -1.2777459508
 C    0.3306309730   -2.9787297481   -0.3765342265
 H    2.8354162091    0.4111041110    1.1585652432
 H    1.5842329612    1.6330004251    0.8641319413
 H    1.4651267772    0.5665659368    2.2933798464
 H    1.0152415843    0.2135569669   -2.7523662094
 H    0.0860251262    1.0341515063   -1.4763819132
 H    1.8787537005    2.3179737671   -2.1249635392
 H    2.9763494658   -1.3145585636   -2.0237680260
 H    2.8079451039   -2.1784195283    0.9401170045
 H    3.6426931098   -3.1391201024   -0.2873252208
 H    4.2296948541   -1.5236692580    0.1197266871
 H    0.6602658449   -2.0120166674   -2.3107535184
 H    0.5558424655   -2.7957386373    0.6746311986
 H   -0.7579171138   -2.9342431226   -0.4890434791
 H    0.6491125399   -3.9959206749   -0.6300478816