14

 O   -0.0889915999    1.4008217522    0.0613430675
 C   -0.0452815313    0.0168245839   -0.0092476819
 C   -1.3393288843   -0.7344750995    0.0375004438
 C   -0.5141628711   -0.7370661092   -1.2431870887
 C   -1.2967768700    0.0880467999   -2.2132873020
 O   -1.0681842292    0.3184830371   -3.3603410890
 O   -2.4197578707    0.5899039299   -1.5767749642
 C   -2.5524538867    0.0636721429   -0.2988182678
 N   -3.5625046526    0.2175237811    0.4309647342
 H    0.6489210529    1.7615524682   -0.4431304125
 H    0.7830555733   -0.4560344752    0.5169686603
 H   -1.4581570829   -1.5837234734    0.6955671135
 H    0.0511155297   -1.5747562966   -1.6279069468
 H   -4.2681469972    0.7909743887   -0.0335896864