18

 C   -0.0167549760    1.5522423593    0.0017764380
 C    1.5451729956    1.5225419148    0.0054469977
 C    1.4419907441    0.0924800779    0.5030317687
 C    2.1541204202   -0.6815936117    1.3055943938
 C    1.6687327224   -1.9940861356    1.8506999605
 O    0.4596269730   -2.5025552205    1.2765561919
 C   -0.7046303977   -1.7878534422    1.3840964206
 N   -0.9966771726   -0.6812646405    0.8554585400
 C   -0.0052001084   -0.0064095519    0.0509807303
 H   -0.4150262488    1.9594374709    0.9334105712
 H   -0.5165289925    2.0233168521   -0.8465909329
 H    1.9602954571    1.5917587987   -1.0061597107
 H    2.0668183446    2.2393678907    0.6438776096
 H    3.1377371921   -0.3715509003    1.6548609519
 H    2.4096000544   -2.7827848130    1.6763130653
 H    1.5407501962   -1.9185324337    2.9423589215
 H   -1.4662968811   -2.3365199726    1.9406618023
 H   -0.0722985423   -0.4025637124   -0.9727476999