16

 C   -0.0222640375    1.5325186596    0.0989547529
 C   -0.0085563223    0.0035300553    0.0219727283
 O    0.6503013766   -0.4576095368    1.1859286010
 C   -1.4008170400   -0.4954594129   -0.0354761415
 N   -2.4865775827   -0.8862266173   -0.0960297135
 C    0.7710737994   -0.4986284985   -1.2599452895
 N    2.1394379706   -0.0262360404   -1.3617350433
 C    0.7801908972   -1.9729826869   -1.2289243233
 N    0.7890568589   -3.1233907671   -1.1233392471
 H    1.0011504233    1.9009185009    0.1935239993
 H   -0.4873962073    1.9647817902   -0.7905846536
 H   -0.5848043958    1.8470685911    0.9794914185
 H    0.5724338550   -1.4204232839    1.2287416427
 H    0.2177874067   -0.1790614297   -2.1499517001
 H    2.1632752057    0.9595201817   -1.5947206079
 H    2.6178610920   -0.1572942353   -0.4750771629