24

 C    0.1775833536    1.4964604330   -0.3009580294
 C   -0.0375327047    0.0090026985   -0.0096566957
 C    0.7658762468   -0.4905938498    1.1962646492
 C    0.5395408259   -1.9832070196    1.4871650245
 C    1.3844967210   -2.5511924329    2.6140640021
 C    1.0804404910   -2.0385129163    4.0208587836
 O    2.0161965752   -2.5026798564    4.9669844744
 C    1.9404522023   -3.9203660987    2.4796916484
 N    2.8341784894   -2.7432791313    2.4011802708
 H    1.2317499616    1.7111240135   -0.5088137693
 H   -0.4053511256    1.8219378193   -1.1681069450
 H   -0.1220584647    2.1145462761    0.5525987247
 H   -1.1051803408   -0.1807133499    0.1636801613
 H    0.2336013208   -0.5817089942   -0.8950712162
 H    1.8353651079   -0.3108657840    1.0203973436
 H    0.5011360056    0.1083824017    2.0761426819
 H   -0.5213329947   -2.1510387223    1.7197826919
 H    0.7411600473   -2.5581966373    0.5732731887
 H    1.0462758375   -0.9367102634    4.0067323845
 H    0.0903302359   -2.3908565824    4.3355498854
 H    2.8745003771   -2.4335527687    4.5217908470
 H    2.0849347561   -4.5292897676    3.3661232858
 H    1.7321821250   -4.4698987755    1.5657149557
 H    3.0875778604   -2.5479998217    1.4363470519