19

 C    0.0837664040    1.5230099966   -0.2041295535
 C   -0.0429090878    0.0367222819    0.1538555069
 C   -1.4788549461   -0.4970832508    0.1355526805
 C   -2.3864298795    0.1435902000    1.1810077131
 C   -2.0768335765   -0.7532447455   -1.2918305754
 O   -1.1338909704   -1.8906066294   -1.4620414073
 C   -1.5863839529   -2.0497627341   -0.0547013555
 C   -2.9954667795   -1.8399095108   -0.6705191362
 O   -4.0728942507   -2.3279818213   -0.7553394696
 H    1.1354038897    1.8247158908   -0.2075680226
 H   -0.3201580309    1.7284278163   -1.2013762369
 H   -0.4391937082    2.1686227853    0.5078736952
 H    0.5567094259   -0.5556641189   -0.5411255133
 H    0.3706209006   -0.1324686051    1.1566392514
 H   -2.4940671922    1.2178252996    1.0059919240
 H   -3.3904992682   -0.2918409056    1.1801611152
 H   -1.9657825909    0.0121953193    2.1836608852
 H   -2.2100872650   -0.0798762737   -2.1367690573
 H   -1.1513224016   -2.8620249449    0.5255850262