15

 O    0.1681922208    1.4556171496    0.5549665034
 C    0.0152775001    0.0782278113    0.6793990343
 C   -1.1449911436   -0.4341060830   -0.1542302267
 O   -1.8400525733    0.3418477514   -0.7727168513
 C   -1.3665959808   -1.9228264354   -0.1537738740
 O   -2.6840494721   -2.3888534352   -0.3817690842
 C   -1.7289325029   -2.6750455544   -1.3940059627
 C   -1.9270305051   -1.9953758413   -2.7199594301
 O   -1.4443567994   -2.4370019900   -3.7312849043
 H   -0.5645545587    1.7506987771   -0.0085023221
 H    0.9285891367   -0.4584354288    0.3687506525
 H   -0.1688070310   -0.2204542038    1.7273237754
 H   -0.8053474221   -2.4771075511    0.5997214786
 H   -1.3906315105   -3.7089547491   -1.4600904979
 H   -2.5522374579   -1.0853623572   -2.6860639809