17

 C    0.4268981737    1.5927740941    0.1565251590
 C    0.1264159944    0.1030177627    0.0825089327
 N    1.0519587815   -0.7038906026   -0.7748125683
 C    1.3696675620   -1.6736082129    0.3170681514
 C    2.8735508087   -1.7945347576    0.5699594399
 O    3.4890244819   -0.5278061719    0.5074450522
 C    0.5714264809   -0.7656854212    1.2735241448
 O    0.3899969107   -0.7382804279    2.4523104279
 H    1.4742405927    1.7539361996    0.4263604964
 H    0.2351086302    2.0780985787   -0.8052302179
 H   -0.2041269971    2.0650586508    0.9155714629
 H   -0.9361234033   -0.0687481181   -0.1434305519
 H    0.6123663990   -1.1160375654   -1.5888411835
 H    0.9072774640   -2.6652525780    0.2158055715
 H    3.0409107844   -2.2028087495    1.5724161083
 H    3.3133314183   -2.4962183269   -0.1583059876
 H    3.1168944381   -0.1161041238   -0.2868794177