21

 C   -0.0405262621    1.5188920541   -0.1173132852
 C    1.5005209672    1.3529263726    0.0315501539
 C    1.2028963026    0.0642238223    0.8889025798
 C   -0.0196571216   -0.0025268950   -0.0246269181
 O   -1.0656976062   -0.9075138280   -0.2979706289
 C    0.0533518335   -0.8231488962   -1.2224993933
 C    0.0259439294   -0.0964137137   -2.5437937185
 C    1.2571533800    0.8849500587   -2.6090206754
 C    2.1648801024    1.0230394890   -1.3443712363
 H   -0.4839256027    1.9665841773    0.7770452679
 H   -0.4404483713    2.0083002398   -1.0047544252
 H    2.0351244220    2.1487142699    0.5530664292
 H    1.9191509348   -0.7603930769    0.8536697871
 H    0.9779087120    0.3275002500    1.9269987358
 H    0.6839078086   -1.7116127501   -1.1799511013
 H    0.0469699114   -0.7924414169   -3.3876522564
 H   -0.9086294048    0.4650654905   -2.6230831320
 H    1.9162993712    0.5784201382   -3.4278316387
 H    0.8953149672    1.8805274033   -2.8867552318
 H    2.8846644747    1.8149516606   -1.5792732751
 H    2.7638192917    0.1107148704   -1.2343546976