22

 C   -0.1356193052    1.4325700702   -0.2460754531
 C   -0.0586020936   -0.0803985591   -0.1379831616
 O   -1.3655673708   -0.5873473391    0.0676676431
 C   -1.4283467126   -1.9980341824    0.1591838013
 C   -2.9106594210   -2.3672771659    0.2275562401
 O   -3.5942033312   -1.7894193100   -0.8724979845
 C   -3.1082764791   -3.8693167719    0.1931259618
 C   -4.3701778856   -4.4518273031   -0.3155737031
 N   -3.1225753531   -4.5723946996   -1.0983397351
 H    0.8623861395    1.8531701130   -0.3999040054
 H   -0.7684731329    1.7275605642   -1.0881349701
 H   -0.5566499323    1.8622375447    0.6671886778
 H    0.3737710613   -0.5165664257   -1.0532885951
 H    0.5924660675   -0.3769179589    0.7002367562
 H   -0.9667133382   -2.4630675755   -0.7264838837
 H   -0.8955057448   -2.3599217956    1.0527431529
 H   -3.3150732899   -1.9730067549    1.1751870169
 H   -3.2113477175   -0.9096634368   -0.9801719739
 H   -2.5723752526   -4.3964563516    0.9808658273
 H   -4.7426645278   -5.3828915915    0.1020235845
 H   -5.1293346261   -3.7637185678   -0.6731342197
 H   -3.1520512941   -3.8616186627   -1.8280748269