15

 O   -0.1635785059    1.3489268325    0.0130646901
 N    0.0277461098   -0.0478228471    0.0305258213
 C   -1.0868037988   -0.6379605658    0.1018807600
 C   -2.5456522125   -0.2205837494    0.0083168567
 O   -2.8716315433    0.7547547806   -0.9419034947
 C   -2.8611336579   -1.6824799073   -0.4238992947
 C   -1.4231015338   -2.1231661831    0.0434323851
 C   -0.6470283585   -2.9800143079   -0.8370023552
 N   -0.0442463189   -3.6647814747   -1.5462999063
 H    0.7318987863    1.6818709818   -0.1128151990
 H   -2.9635470960    0.0108409378    1.0011668428
 H   -2.2473075631    1.4814273623   -0.8245108899
 H   -3.6961354275   -2.1840153322    0.0634531085
 H   -2.9628309599   -1.7375913172   -1.5078633093
 H   -1.4451109499   -2.5646425301    1.0457664446