21

 C    0.0546119847    1.5993587087    0.0883220841
 C   -0.0714183942    0.0808014126   -0.0581585721
 C    0.6613469332   -0.5150336270   -1.2877441245
 N    0.1371558292   -0.0484558228   -2.5912916748
 C    2.0842267696   -0.1280782398   -1.2241791649
 N    3.1837287028    0.2151172959   -1.1340327419
 C    0.6090208001   -2.0822887023   -1.3126015372
 C   -0.8145908984   -2.6466874657   -1.2639562255
 O    1.2947382257   -2.5392386032   -2.4559367101
 H    1.0973380066    1.9018567526    0.2192197195
 H   -0.3413612427    2.1206607887   -0.7893423702
 H   -0.5098888933    1.9451444737    0.9586172658
 H    0.3069743929   -0.4130351463    0.8447100611
 H   -1.1281879366   -0.1948606601   -0.1449203792
 H   -0.8714041190    0.0553564428   -2.5369734970
 H    0.5195762052    0.8578028014   -2.8363488008
 H    1.1707510909   -2.4482501551   -0.4456625483
 H   -0.7557994375   -3.7301252522   -1.3927586521
 H   -1.3167843579   -2.4420835070   -0.3140448957
 H   -1.4292000488   -2.2515697720   -2.0801510045
 H    0.9971988773   -1.9620293130   -3.1762316217