17

 O    0.0422538168    0.0494135401    0.7141929525
 C    0.1132900506    1.1190762994    0.1720466892
 C    1.4260794111    1.7677959480   -0.2345897409
 O    1.1321903910    2.9808470974   -0.8844120872
 C    2.2664061239    3.7124489694   -1.2707772747
 C    3.0489590920    3.2095730114   -2.5301918058
 C    2.8986240438    4.6302349922   -3.1020316706
 O    3.4194684963    5.2190890070   -4.0022239328
 C    1.9007129286    5.0273589717   -2.0031618024
 H   -0.7818364837    1.7302801539   -0.0768249155
 H    2.0370049460    1.9254099284    0.6703428462
 H    1.9816373260    1.0703104064   -0.8818766859
 H    2.9320102197    3.8740500565   -0.4115776323
 H    4.0673653850    2.8336737442   -2.4102382861
 H    2.4602663358    2.4865822811   -3.1060557789
 H    0.8679264766    4.9946180404   -2.3665388616
 H    2.0720250504    5.9768815425   -1.4924115134