14

 O   -0.2008636029    1.4478081351    0.0480452201
 C   -0.0274270535    0.1048546336    0.0151168554
 C   -1.0455154654   -1.0052673002   -0.0350471171
 C   -0.4513245932   -1.6126868591   -1.3003347535
 C    0.8743350867   -0.9245052442   -0.8671044314
 O    1.2540691066   -1.6205944137    0.3459225483
 C    0.1377248288   -1.0134136343    0.9879430342
 C    1.9528060276   -0.6319842351   -1.7700567421
 N    2.7958751672   -0.3465808058   -2.5081519688
 H    0.5780848927    1.8591491377    0.4435823047
 H   -2.0767151307   -0.9748106313    0.2894494397
 H   -0.3929831490   -2.6996267131   -1.3977687278
 H   -0.8654541392   -1.1563065645   -2.2011988098
 H    0.0298514541   -1.1026054750    2.0596585882