14

 N   -0.2968362239    1.3099651143   -0.1536104836
 C   -0.1369917383    0.0602438564   -0.1164524739
 O    1.0842750367   -0.5267871675   -0.3843325633
 C    1.2470370218   -1.8576782230   -0.7193261027
 O    2.3538210053   -2.2976910017   -0.7692501336
 C   -0.0047788237   -2.6394410000   -1.0802730771
 C   -1.2015850314   -2.2311241274   -0.2627447021
 O   -0.9255764731   -1.9467103445    1.1056904920
 C   -1.2535763735   -0.8512478586    0.2388273374
 H    0.5642537245    1.7794906083   -0.4403315346
 H   -0.2101097736   -2.4785907603   -2.1469859371
 H    0.2334753526   -3.6977964539   -0.9522017264
 H   -2.1348786838   -2.7590927956   -0.4499794761
 H   -2.1954963096   -0.3494135866    0.4339262410