16

 O   -0.9173743216    1.6826614344   -0.0130610182
 C    0.0920344024    1.3471682454    0.5535370854
 C    1.4505307634    1.9345369851    0.2658942714
 C    1.7171239521    2.8089807362   -1.0289357993
 C    2.6051254709    3.7208924558   -0.2764179029
 N    1.5321272904    4.3208497133   -1.0319918221
 C    0.6714618050    4.9880975619   -0.0154113371
 C    0.8146157321    4.0953312828    1.2110348167
 C    1.8435063703    3.2522287639    0.9871184591
 H    0.0733240957    0.5665856353    1.3479931149
 H    2.2133221922    1.1441946611    0.3011965548
 H    1.8639870429    2.3843495039   -2.0157236519
 H    3.6525473510    3.9722734805   -0.3916917357
 H    1.0028787941    6.0315327676    0.0555589270
 H   -0.3828719354    4.9855430974   -0.3134545067
 H   -0.0616992055    3.8276717056    1.7922644245