17

 O    0.0702385113    1.3713789026    0.2093496651
 C    0.0345489322   -0.0190276339    0.0614703429
 C   -1.3892562227   -0.5822637841   -0.0377427986
 N   -2.2351848037    0.2664747448   -0.9198110731
 C   -2.4596013841   -0.8697304011   -1.8567974367
 C   -1.3389383302   -1.6590444725   -1.1446236531
 O   -0.0627858056   -1.5471072895   -1.7750815758
 C    0.6901730510   -0.5372681621   -1.2265267705
 N    1.7726998226   -0.1140032455   -1.7094682159
 H   -0.5289395806    1.7125485862   -0.4711625329
 H    0.5695300617   -0.4456836940    0.9170631701
 H   -1.8319055783   -0.8640860704    0.9200572128
 H   -3.0713383833    0.6376892077   -0.4861293355
 H   -3.4381030554   -1.3542864205   -1.7543171054
 H   -2.2812999495   -0.6310441663   -2.9094365383
 H   -1.5219829232   -2.7077402793   -0.9116532572
 H    1.9964379875   -0.6030880820   -2.5784256779