23

 C    0.0746111130    1.5397271766    0.0965931261
 C    0.0110611347    0.0210799556    0.0342305321
 C    0.6090915176   -0.5481609131   -1.2619190848
 C    0.9223513296   -2.0468713696   -1.1772834682
 C    0.5038903697   -2.8602607224   -2.3856760473
 C    2.1933387290   -2.4525506559   -0.4620875270
 C    0.8575566722   -2.7001506659    0.1899165551
 C    0.4484819464   -1.8574399967    1.3804617281
 O    0.7018689841   -0.4800696497    1.1747663282
 H    1.1166797661    1.8743816325    0.0828822967
 H   -0.4421306114    1.9827833725   -0.7604258306
 H   -0.3915209225    1.9072651282    1.0146009927
 H   -1.0432480521   -0.3017602451    0.1026948298
 H   -0.1024901012   -0.3681913214   -2.0764327606
 H    1.5185894637    0.0112340414   -1.5155037351
 H    0.9859023351   -2.4872303536   -3.2976530689
 H    0.7791366316   -3.9139222637   -2.2718778506
 H   -0.5805085137   -2.8132783857   -2.5426593916
 H    2.7474237064   -3.3044318021   -0.8429228196
 H    2.8076232435   -1.6605971994   -0.0450187589
 H    0.5039777488   -3.7275327876    0.2273263617
 H   -0.6237426059   -2.0118436729    1.5953850028
 H    1.0126308851   -2.1401542023    2.2762853101