19

 C    0.8501309080    1.2787011031   -0.8593704767
 C    0.1903334698    0.0547001090   -0.2536262938
 C    1.0929592612   -1.0172577843    0.3318657549
 C    0.2491275206   -0.1533738141    1.2359255617
 O    0.8346933289    0.8615944676    1.9996151049
 C   -1.0807720875   -0.4231291586   -0.9750504594
 O   -1.4621664229   -1.7163351202   -0.5900532348
 C   -2.2317836828    0.5339041974   -0.7093994055
 O   -3.2750335244    0.1457236395   -0.2388745146
 H    1.7105069688    1.5808983550   -0.2606311547
 H    1.1909189389    1.0700381427   -1.8799514355
 H    0.1736405356    2.1393651385   -0.9018169036
 H    0.8062399224   -2.0541156738    0.2093990615
 H    2.1577966118   -0.8097831422    0.3041031949
 H   -0.6153264264   -0.6340023745    1.6932678405
 H    1.3054550633    0.4464025540    2.7296358077
 H   -0.8805346095   -0.3907845155   -2.0626277266
 H   -2.3820238755   -1.6346047933   -0.2884250400
 H   -2.0726667903    1.5994823297   -0.9600784007