14

 O   -0.1763401163    0.0663106371   -0.2857858093
 C   -0.0107971100    1.1856393746    0.1159982923
 C    1.3140931953    1.9443307327    0.0268009721
 C    2.4546182257    1.1396417212   -0.6507503434
 O    2.3320752315    1.8959101558   -1.8716628250
 C    1.3861739338    2.7971374430   -1.2920405894
 C    1.5819313277    2.6329534230    1.2700756464
 C    1.7705175621    3.1942494823    2.3166935314
 H   -0.8332425702    1.7750338551    0.5743119247
 H    3.4335688923    1.2676376422   -0.1778426814
 H    2.2250428124    0.0805506275   -0.7943439518
 H    0.4563131625    2.8634117358   -1.8699211066
 H    1.7941686616    3.8015911571   -1.1302742100
 H    1.9544872616    3.6927398327    3.2365702401