24

 C   -2.5182785328   -2.6847329924    0.8001609657
 N   -1.2999047426   -2.0491213020    0.3200801252
 C   -0.9460248066   -2.0393854057   -1.1100796964
 C    0.5039266099   -2.3953623214   -1.4063904582
 C   -1.8835463449   -2.6332210693   -2.1516571073
 C   -1.3276651654   -0.7628272450   -0.3994136796
 C   -2.6374696256   -0.0418543531   -0.6785449282
 C   -0.2702996587    0.1992323503    0.1393639369
 O   -0.5202588768    0.4843789267    1.5072054741
 H   -3.3657426265   -2.6840150532    0.1017244503
 H   -2.2943026237   -3.7274081312    1.0491020080
 H   -2.8422746160   -2.1851712412    1.7189655528
 H    0.5897150186   -3.4715015265   -1.5979006918
 H    0.8674014057   -1.8727909908   -2.2987162711
 H    1.1594120508   -2.1598331949   -0.5679482957
 H   -2.9258825437   -2.3390477628   -2.0349980889
 H   -1.5649064917   -2.3193552865   -3.1515442440
 H   -1.8363912065   -3.7282111388   -2.1256642332
 H   -3.4900524870   -0.7054025180   -0.8226747629
 H   -2.8630641038    0.6173642055    0.1659936885
 H   -2.5449597138    0.5821410298   -1.5742527298
 H    0.7406672043   -0.2016744956    0.0023930963
 H   -0.3220084667    1.1567183004   -0.3904138678
 H   -0.5444922465   -0.3800631746    1.9372452671