21

 C    0.1977834073    1.4504179428    0.0660765192
 C    0.0734330339    0.0006790141    0.0189257086
 C   -0.0226665850   -1.2000146900   -0.0039895557
 C   -0.1776135652   -2.6571212554   -0.0837240763
 O   -1.5569002334   -3.0366973770   -0.0958658952
 C    0.5767078273   -3.2209255749   -1.2773794276
 C    2.0144901616   -3.6642806592   -1.1423959479
 C    0.9280724776   -4.6869891779   -1.3735455228
 C    0.5473075390   -5.6939518024   -0.3090720643
 H    1.2476474051    1.7585058500    0.0088634168
 H   -0.3301712283    1.9230557006   -0.7695437304
 H   -0.2177898297    1.8573344958    0.9944525114
 H    0.2169636948   -3.1057561347    0.8347980798
 H   -1.9854393692   -2.5267329810   -0.7920268880
 H    0.3126669226   -2.7302209476   -2.2112680119
 H    2.7091026357   -3.4300948341   -1.9414232816
 H    2.4540267244   -3.6226508343   -0.1498213490
 H    0.8771979424   -5.0859739954   -2.3838491215
 H    0.7049968301   -5.3042716239    0.7007327046
 H   -0.5069155533   -5.9766352476   -0.3908863385
 H    1.1537145424   -6.6012389878   -0.4040081497