18

 C    0.0385269298    1.6141714551   -0.0358735038
 C    1.5465664599    2.0420455139   -0.0563483760
 C    2.0477407084    0.8745508297    0.7698138487
 O    3.0864482616    0.6982984160    1.7168932812
 C    1.7287097962    0.8879137468    2.1974254140
 C    0.7858814611   -0.2770149969    2.4634495354
 N    0.4255834922   -0.8410855391    1.1435645104
 C    0.0471193574    0.0598266780   -0.0053984041
 C    1.4394032865   -0.3959136967    0.1895274644
 H   -0.4727651039    2.0511986747    0.8282319610
 H   -0.4974724510    1.9451556945   -0.9296344298
 H    1.9377812912    2.0478695295   -1.0790039281
 H    1.7303141963    3.0199622880    0.3947277697
 H    1.5927291696    1.8250595968    2.7315933142
 H    1.2360897783   -1.0860517948    3.0488557384
 H   -0.1002035597    0.0755447125    3.0024732935
 H   -0.6382307852   -0.4466889455   -0.6758966487
 H    2.0089796213   -1.1095327024   -0.3967382202