20

 C   -0.1078693573    1.4296589186   -0.8667450450
 O   -0.0784742618    0.0557234729   -1.1889088317
 C    0.8002987547   -0.6742981142   -0.3651833196
 C    0.7648068999   -2.1594434609   -0.7276256316
 C   -0.3844207090   -2.7264816794   -1.5528329798
 C    0.9899667047   -2.6750858077   -2.1526998500
 C    1.3469678193   -1.7474146090   -3.2927228125
 C    1.2903314688   -2.9868057964    0.3283064079
 N    1.7237741002   -3.6381517980    1.1813502552
 H   -0.4386034833    1.5923113695    0.1700641353
 H    0.8800187270    1.8979199133   -0.9923799371
 H   -0.8173045697    1.9063099036   -1.5463634793
 H    1.8294479437   -0.2900804181   -0.4610515617
 H    0.5103258921   -0.5622185046    0.6917793869
 H   -0.7954173910   -3.6834640660   -1.2542820507
 H   -1.1060670208   -1.9897190138   -1.8840395530
 H    1.5084555060   -3.6295985774   -2.1792023012
 H    0.8077772072   -0.8022363563   -3.2193719113
 H    2.4210913977   -1.5330411574   -3.3023949798
 H    1.0957120116   -2.2177387288   -4.2494173608