15

 N    0.0182195694    0.6002100126    1.4105161885
 C    0.0969851560    0.0515818958    0.2675787659
 O    1.2883811970   -0.4432745205   -0.1968332983
 C    1.4468477492   -0.6239334300   -1.5831433813
 O    0.8616093732   -1.8120210721   -2.0580678574
 C   -0.4895922281   -1.8296991435   -2.2902545973
 N   -1.0083019430   -2.6919742292   -3.0654507278
 C   -1.3658342992   -0.8712614856   -1.6031856267
 C   -1.1220665932   -0.0894245245   -0.5401854919
 H    0.9369861168    0.6118419884    1.8582573117
 H    1.0610426521    0.2425532490   -2.1318929895
 H    2.5183629743   -0.7380841896   -1.7449009408
 H   -0.2815265904   -3.2960412086   -3.4548610501
 H   -2.3685712252   -0.8813800709   -2.0154838524
 H   -1.9378102289    0.5001930985   -0.1370889925