17

 C   -0.0200782892    1.5124715720   -0.0140916713
 C    1.4064797022    2.0955445906    0.0453233487
 C    2.1962857627    1.5469114491    1.2161422339
 O    1.4542719549    1.2857609858    2.4113107878
 C    1.9535787207    0.1673097489    1.6785268957
 C    0.9662227429   -0.6833699438    0.9277863407
 N   -0.4515218356   -0.6246831764    1.3184163736
 C   -0.0246464231   -0.0100790511    0.0452946450
 H   -0.5933563412    1.8911422418    0.8353104370
 H   -0.5144950526    1.8566781259   -0.9275479260
 H    1.9603307283    1.8686989987   -0.8761713059
 H    1.3548481511    3.1882693382    0.1162733440
 H    3.1802783271    1.9868046095    1.3826396277
 H    2.7575056335   -0.3707372241    2.1811131153
 H    1.3694701557   -1.6426164610    0.6093531082
 H   -0.8861906037   -1.5268258915    1.1411945014
 H   -0.2949965938   -0.5286074025   -0.8715219057