17

 C   -0.8587492491    1.0209054563    0.1543107425
 C    0.5569571192    0.4604817121    0.0041722478
 C    1.0312701504   -0.3340167653    1.1796990699
 C    0.3909468668   -0.6300639355    2.3449814010
 N    1.2853445621   -1.3983655560    3.0924263059
 C    1.0769348488   -1.9371687082    4.3608706799
 O    1.8904102544   -2.5926322061    4.9541504763
 C    2.4271444251   -1.5193766575    2.3197507503
 N    2.3079397447   -0.9010129827    1.1829925782
 H   -0.9323626580    1.6909686520    1.0174239992
 H   -1.1456529675    1.5899088673   -0.7339877993
 H   -1.5925929451    0.2189327927    0.2874384514
 H    0.6188266564   -0.1732657417   -0.8897482086
 H    1.2692918561    1.2765928087   -0.1718252135
 H   -0.5866173886   -0.3855351455    2.7242620589
 H    0.0747032750   -1.6882749837    4.7528795247
 H    3.2806815595   -2.0743852971    2.6755761353