20

 C   -0.3170108126    1.4524078328   -0.0012291000
 C    0.2001344434    0.0085213938   -0.0645924508
 C    0.8678192688   -0.4508048285    1.2017240519
 C    0.1086852256   -0.9496595441    2.4231147725
 C    1.0321950145   -1.9026281244    1.7319893767
 O    0.5463956635   -3.0772296544    1.1958545331
 C    2.4702574834   -1.6132192295    2.0704431573
 N    3.1347071174   -1.1834932200    0.8045218180
 C    2.3131416960   -0.2141964705    1.5790937371
 H    0.4984651765    2.1572310555    0.1940955813
 H   -0.7896235433    1.7442256867   -0.9445012597
 H   -1.0560491196    1.5713647002    0.7980112739
 H   -0.6321846833   -0.6703007359   -0.2903182536
 H    0.9144629392   -0.0937410715   -0.8908275626
 H    0.3261455821   -0.5755788686    3.4204533980
 H   -0.9430659208   -1.1521997343    2.2425694910
 H    1.1062744404   -3.2934128520    0.4399296195
 H    3.0552639348   -1.9783616346    2.9071456522
 H    4.1136518560   -0.9982394371    1.0315181806
 H    2.7627223779    0.6775401065    2.0012816537