22

 C    0.0530901427    1.5329181751   -0.0119039337
 C   -0.0240426549    0.0329376349   -0.0263688525
 C    0.0228267347   -0.6861071888   -1.1526088150
 C   -0.0207504539   -2.1682173881   -1.1401259345
 N    0.9386729967   -2.8704745742   -0.2290772913
 C   -0.5000443342   -2.8749194363    0.0819884371
 C   -1.2725336516   -4.1680983856   -0.0546044570
 C   -0.9059491373   -1.9889589584    1.2480338074
 C   -0.1198733593   -0.6670703073    1.3127673227
 H    0.9095573035    1.8784506478    0.5822271839
 H    0.1524240074    1.9451301146   -1.0198706323
 H   -0.8402651629    1.9712346724    0.4524296133
 H    0.1046593919   -0.1926674052   -2.1177449434
 H   -0.2138247925   -2.6487310963   -2.0961223173
 H    1.1983835139   -3.7634355153   -0.6439242693
 H   -0.9784637450   -4.7125798800   -0.9583853255
 H   -1.0950822407   -4.8229821878    0.8072354350
 H   -2.3510339302   -3.9826129592   -0.1103529618
 H   -1.9768237690   -1.7699452173    1.1421963052
 H   -0.7889410718   -2.5353757144    2.1919653819
 H    0.8938512500   -0.8695803534    1.6784220212
 H   -0.5874334477   -0.0041705371    2.0506286057