18

 O    0.0476087636    1.3773730649    0.0465950862
 C   -0.0098343835   -0.0087507859    0.0438435428
 C    0.7048101222   -0.7228695120    1.2414753162
 C    0.1741804307   -2.1833600312    1.1543188143
 C   -0.7454251051   -2.1143355307   -0.0960905946
 C   -1.3826585599   -0.7168123526    0.0516903179
 N    0.0921859051   -1.8826329729   -1.2877326008
 C    0.6166036147   -0.6218381257   -1.2146257244
 O    1.4190668146   -0.0708293619   -1.9404231520
 H    0.6688049806    1.6119465768   -0.6608195863
 H    1.7920014006   -0.6483967951    1.1625492462
 H    0.4022595222   -0.2249125246    2.1661127578
 H    0.9683861007   -2.9228749232    1.0249530324
 H   -0.4002982077   -2.4644300239    2.0416285829
 H   -1.4196226642   -2.9578860980   -0.2390040179
 H   -1.9299478381   -0.5885803034    0.9887691405
 H   -2.0133041149   -0.4412212842   -0.7958720898
 H    0.5398637985   -2.6183062163   -1.8130927113