18

 C   -0.0576256124    1.4347124577    0.0351128149
 N   -0.0238127769   -0.0165240387    0.1198668838
 C   -1.0916010684   -0.6562000272   -0.0404613396
 N   -2.4670446108   -0.2830375578   -0.2961155391
 C   -2.8911136832   -1.6788682971    0.0186783292
 C   -2.3298014155   -2.5623694776   -1.0673579297
 N   -2.1339537912   -2.2043468800   -2.4474174464
 C   -1.4222515205   -2.1241586037    0.0723291011
 O   -0.7951256709   -3.0032148779    0.9243705821
 H    0.7895568307    1.7746231245   -0.5693785127
 H   -0.9787260162    1.8433152976   -0.4043491716
 H    0.0730145637    1.8670078614    1.0348090509
 H   -2.8361350672    0.4340829416    0.3181139675
 H   -3.7223634198   -1.8903946209    0.6783672727
 H   -2.5958708830   -3.6087258013   -0.9327817283
 H   -2.9730299537   -2.4372444340   -2.9726689838
 H   -2.0384857489   -1.1934429976   -2.5122778503
 H   -0.0624293059   -3.4111592591    0.4487397392