15

 O    0.0517971410    1.4253179014   -0.0064605392
 C   -0.0202307905    0.0581226847    0.0489998126
 C    0.2895402336   -0.8446317419    1.2903252352
 N   -0.4482220794   -1.9277260446    0.5279103019
 C   -1.3198776752   -0.8127189169   -0.0158685511
 C    0.4820608667   -2.1423904229   -0.6234816972
 C    0.8033230111   -0.6868750698   -0.9838626588
 O    1.4967143233   -0.1766642023   -1.8257447815
 H    0.6522607546    1.6371192729   -0.7405317895
 H    1.3271887370   -1.0742057585    1.5474815476
 H   -0.2735386681   -0.5535338995    2.1791050018
 H   -2.0667653449   -0.5179813287    0.7237363794
 H   -1.7901960387   -1.0123995115   -0.9825520642
 H    1.3667397877   -2.7076171533   -0.3174171511
 H   -0.0126366882   -2.6803377789   -1.4369307359