17

 C   -0.0469743998    1.5329858252    0.0289957523
 C    0.0140132205    0.0344013604    0.0134624697
 C   -0.8827768224   -0.8835323822    0.8022986173
 C    0.6054180393   -0.9339166262    1.0318353946
 C    1.3467235230   -1.6782227624   -0.1194386589
 N    0.3474070611   -2.1568029032   -1.1219072089
 C    0.7539909586   -0.7446524207   -1.1207629534
 C    2.6611451153   -2.2121530730   -0.0579694936
 N    3.7350905394   -2.6422004060    0.0053179253
 H    0.9306689483    1.9770272691   -0.1920172638
 H   -0.7607889273    1.9107336409   -0.7129711647
 H   -0.3638767742    1.8984422654    1.0105812689
 H   -1.4290656972   -0.3866350628    1.5985002606
 H   -1.4007055575   -1.7101549130    0.3336680574
 H    1.0820216471   -0.7195467978    1.9787907190
 H    0.8629178396   -2.6325520023   -1.8626976486
 H    1.2333774161   -0.2885756514   -1.9776995532