16

 C    0.1111700157    1.4344916408    0.0690606818
 C   -0.2331253875   -0.0168150264   -0.0695165567
 N   -1.3254291694   -0.4995448133    0.3266870310
 C   -1.6200119512   -1.9123446514    0.0937038815
 C   -0.6247991014   -2.8391844876    0.7397598793
 C    0.6969721076   -2.7677980334    0.5629172564
 C    1.3935322788   -1.8630932639   -0.3694147975
 O    2.4714077449   -2.1085401555   -0.8352648743
 O    0.7841807808   -0.6818092105   -0.7535388234
 H    1.0122603314    1.5532168834    0.6797156642
 H    0.3341851649    1.8580372276   -0.9152534933
 H   -0.7197925815    1.9704816998    0.5255237719
 H   -2.6196401847   -2.1117032647    0.4856926158
 H   -1.6573450054   -2.1107370587   -0.9885047839
 H   -1.0188347122   -3.6164845708    1.3897273449
 H    1.3631300693   -3.4845389154    1.0302756623