12

 O   -0.1387924650    0.0649471371    0.4902452655
 C    0.0688477782    1.0138373097   -0.2276340243
 C    1.2679223116    1.8189112839   -0.1693298023
 C    2.2533581585    2.5153661920   -0.1429814108
 C    3.4425157592    3.3110348979   -0.0782501850
 O    3.7348127099    4.1731261065   -1.1858208164
 C    3.3827337778    4.7964359111    0.0392049324
 C    2.1153383681    5.4923158696    0.0867378942
 N    1.1172678256    6.0705058691    0.1491272899
 H   -0.6582596281    1.3417409475   -0.9956271074
 H    4.3180673790    2.8281652670    0.3529712149
 H    4.1952805154    5.2982608985    0.5616670793