19

 C   -0.0936724770    1.4952605131    0.1206037476
 C    0.0279786603   -0.0213934689    0.0921551306
 C   -1.3553387070   -0.7058787348    0.2832775139
 C   -0.9963060955   -1.3402393258    1.6831749942
 C    0.2427747274   -2.1400625911    1.2876930486
 C    0.7591350719   -0.6936066268    1.2244773264
 C    2.0428882263   -0.4095360565    0.4283878555
 O    1.1843383850   -0.4008425965   -0.7651304353
 O   -0.0817302771   -0.3859673416    2.3886503453
 H    0.8787882803    1.9884786410    0.1912051510
 H   -0.5789828764    1.8389927018   -0.7991971665
 H   -0.7025988014    1.8104999562    0.9718573877
 H   -2.1706758428    0.0191695947    0.3061164331
 H   -1.6047767351   -1.4919664263   -0.4325978359
 H   -1.7954492751   -1.7024875845    2.3278589491
 H    0.6915123847   -2.6686424008    2.1298149784
 H    0.2303479627   -2.7431051779    0.3781737441
 H    2.5252714670    0.5595230299    0.5897136187
 H    2.7885620920   -1.2076607650    0.3902786136