16

 N    0.2397424344    1.1099979069   -0.7094380687
 C    0.0634125235    0.2223917164    0.3153080292
 O    0.9247513407    0.0076147561    1.1445960423
 C   -1.3016455159   -0.4234215598    0.3260514539
 N   -1.3955812025   -1.7679287848    0.9189339454
 C   -2.0824206116   -0.6590627452    1.5845957180
 C   -1.5864604209   -0.3311562050    2.9753630225
 O   -2.0538292255   -1.3038320193    3.9007766520
 H    1.1395817620    1.5529386828   -0.7978912513
 H   -0.4262402371    1.2215352846   -1.4529725610
 H   -1.9038588484   -0.2296128603   -0.5605896736
 H   -2.0467835966   -2.3331651989    0.3810785240
 H   -3.1651566691   -0.6070860144    1.4729293508
 H   -0.4950671289   -0.2597659029    2.9692275484
 H   -2.0006978566    0.6283024684    3.3029611172
 H   -1.6244177475   -2.1315581944    3.6572127812