14

 N   -0.0417042347    1.3623614228    0.0107243269
 C   -0.0070889596    0.0819506140    0.0033980718
 N    1.1672836472   -0.7052656631   -0.0069963282
 C    1.1537797886   -2.0664576702   -0.0145142111
 N    0.0939252597   -2.7986672124   -0.0131822206
 C   -1.1162881802   -2.1023344625   -0.0031222868
 C   -1.1971290064   -0.7427451407    0.0048747636
 C   -2.2946525154   -2.9067236365   -0.0015873050
 C   -3.2943611664   -3.5763549370   -0.0002114500
 H    0.8932730099    1.7725653784    0.0082385922
 H    2.0559396856   -0.2253084816   -0.0088581295
 H    2.1330048171   -2.5404230744   -0.0221570874
 H   -2.1498366623   -0.2310032887    0.0125964406
 H   -4.1734868532   -4.1720815682    0.0009643935