22

 C   -0.1323260853    1.5691326603    0.0790312050
 C    0.1611169282    0.0792014092   -0.1377852402
 C    0.7279821938   -0.5851497124    1.1044109867
 C   -0.1283886299   -0.8652023156    2.4009450718
 C   -1.2677185557   -1.7339572432    1.8222148221
 C   -0.6003967222   -2.5953235025    1.0505664829
 C    0.8654102234   -2.1470740185    1.2536835413
 N    0.9511477882   -1.8582883585    2.7255175899
 C    0.6961364988   -2.9162603577    3.6876899210
 H    0.7638228983    2.1108535161    0.4013212334
 H   -0.4931585845    2.0393430495   -0.8409273823
 H   -0.8989011224    1.7136971514    0.8483120460
 H   -0.7489782661   -0.4324198167   -0.4651246428
 H    0.8908731769   -0.0321033584   -0.9508764047
 H    1.6692777418   -0.1103439201    1.3962548750
 H   -0.3596852954   -0.1014288456    3.1446498931
 H   -2.3285768849   -1.6293409909    1.9994123139
 H   -0.9606350941   -3.3948054238    0.4190484363
 H    1.6716905852   -2.7221357086    0.7956665017
 H    1.5368053966   -3.6180175823    3.6724497657
 H    0.6490176234   -2.4781623705    4.6903094256
 H   -0.2321726141   -3.4814618112    3.5107974286