14

 N    0.0100218782    1.3913024512    0.1439465978
 C   -0.0587900243    0.0161800122    0.0525935130
 C   -1.2071693041   -0.7160287988    0.0310831151
 N   -1.1610849425   -2.0948983006   -0.0076148329
 C    0.0165506531   -2.7661169071   -0.0220635617
 C    1.2039864561   -2.0981650451   -0.0082877639
 C    1.2602214700   -0.6564086184    0.0191466168
 O    2.2942773849    0.0197072290    0.0049619902
 H    0.9525724416    1.7051067150   -0.0640500055
 H   -0.7221225227    1.9271545446   -0.2948016859
 H   -2.1973200114   -0.2780262257    0.0483700378
 H   -2.0257330272   -2.6076861165   -0.0204542647
 H   -0.0556431806   -3.8466640488   -0.0487482450
 H    2.1377322588   -2.6455411211   -0.0323637412