20

 C   -0.1276137931    1.5726933783    0.1082884187
 C    0.0287199110    0.0492492560    0.0773731463
 C    0.6537215006   -0.4982207762    1.3642046462
 C   -1.3178877987   -0.6248908245   -0.1964769267
 O    0.8217932196   -0.3597453864   -1.0904482146
 C    2.0959590062    0.0097767935   -1.2743572024
 N    2.7674502492    0.7460324838   -0.4785709019
 C    2.6120141182   -0.5412952779   -2.5037933446
 C    3.0926332844   -0.9745775474   -3.5171111400
 H    0.8249862054    2.0638170505    0.3041202646
 H   -0.5248166479    1.9331485571   -0.8454988861
 H   -0.8364762668    1.8463083152    0.8961980260
 H   -0.0234667197   -0.3082029335    2.2029323571
 H    0.8003967695   -1.5797061221    1.2849379326
 H    1.6128624923   -0.0243537858    1.5703481329
 H   -1.7436186581   -0.2670726232   -1.1379417267
 H   -1.1992415417   -1.7098436773   -0.2630784927
 H   -2.0208917626   -0.4006695337    0.6107325519
 H    3.7082756035    0.8811372704   -0.8413302832
 H    3.5133550286   -1.3593866469   -4.4136279475