14

 C   -0.0557347629    1.4900161204    0.0423118064
 C    0.0116069477   -0.0012531929   -0.0190527940
 C   -0.0483946128   -0.8065239556   -1.0762471938
 C    0.0624026535   -2.2406027516   -0.6478330355
 O    0.1941150298   -2.1970544980    0.7721512826
 C    0.1698287984   -0.8475751002    1.2199232803
 H    0.8513256348    1.9093276943    0.4956410215
 H   -0.1725320412    1.9276620110   -0.9520341593
 H   -0.8967323340    1.8235259006    0.6632496236
 H   -0.1607376751   -0.5038882312   -2.1106224655
 H   -0.8242880637   -2.8351583195   -0.9214943266
 H    0.9360063713   -2.7487448757   -1.0873856015
 H    1.0998751907   -0.6140805702    1.7648784467
 H   -0.6608546065   -0.7006601912    1.9304699851