23

 C    0.1219207814    1.5273776286    0.0258851451
 C    1.4393266461    0.8035577481    0.0357988102
 C    1.6304956126    0.0717345662    1.3683624590
 C    0.2959910506   -0.7158806379    1.1124377645
 C    0.1342323989    0.0447366291   -0.2158886752
 C    0.4759631805   -2.2134921024    0.9700863696
 C    0.7187943157   -3.0720419856    2.2463271820
 C   -0.1875302581   -4.1725459232    1.6318817849
 C   -0.7659919159   -3.1034913383    0.6664075720
 H   -0.2919816718    1.9304487022    0.9485426582
 H   -0.0663849067    2.1412454248   -0.8494882100
 H    2.2285109819    1.0555527431   -0.6625371000
 H    2.4948039447   -0.5978684055    1.3739352750
 H    1.6746423002    0.7031711345    2.2623470914
 H   -0.5017227506   -0.5152008088    1.8406514354
 H   -0.2405557148   -0.3875838012   -1.1368225555
 H    1.2623096856   -2.4172329052    0.2319174420
 H    1.7485786409   -3.3362522537    2.4993634131
 H    0.2534398495   -2.6115588978    3.1244602632
 H    0.3979010209   -4.9260693212    1.0969277992
 H   -0.8847405253   -4.6869702909    2.2974827793
 H   -1.6807783244   -2.6529560348    1.0663991785
 H   -0.9483946120   -3.3935693401   -0.3713856016