17

 O   -0.1672946239   -0.0500676916    0.3598299578
 C   -0.0444175187    1.0967149366   -0.0100672889
 C    1.2242533723    1.8312025210    0.0026576514
 C    1.3571212803    3.1127021756   -0.3629102371
 C    2.7828763182    3.6048295556   -0.1897611057
 C    3.5766119250    2.2687404262   -0.0218341885
 C    2.5338878877    1.2380500386    0.4718947801
 C    3.2618628105    4.4609499086   -1.2681912298
 C    3.6565975028    5.1566247030   -2.1653203699
 H   -0.9133675418    1.6755129222   -0.3950391385
 H    0.5579496067    3.7577236379   -0.7112069162
 H    2.8292509318    4.1816150448    0.7481192665
 H    3.9591976964    1.9712412567   -1.0017191937
 H    4.4310764353    2.3814932889    0.6481349920
 H    2.5340140278    1.1424114641    1.5652363927
 H    2.7010191681    0.2330638067    0.0755919265
 H    4.0070823614    5.7737126452   -2.9553030989