21

 C    0.0155119050    1.6028220873    0.0611281438
 C   -0.0122019935    0.0742371966    0.1310432498
 C   -1.4124543775   -0.5110430513   -0.1154703237
 C   -1.4422051026   -2.0111740890   -0.0452567005
 C   -0.8955124912   -2.9705159771   -1.1002165620
 O   -1.9543904331   -3.9404546172   -0.8390152332
 C   -2.5764563830   -3.0293055467    0.0805763675
 C   -1.6467846745   -2.8222284531    1.2290600768
 O   -0.7883362156   -3.8332329306    1.6531777131
 H    1.0224146499    1.9918685135    0.2405589828
 H   -0.3101495653    1.9614794344   -0.9217424555
 H   -0.6507672155    2.0451911198    0.8103009237
 H    0.6877725874   -0.3399806457   -0.6063438260
 H    0.3471466734   -0.2619257837    1.1112586281
 H   -2.1120910654   -0.1003277290    0.6246027012
 H   -1.7802150272   -0.1773776462   -1.0964138801
 H   -0.9789036490   -2.5911933071   -2.1247459899
 H    0.1018596294   -3.3923293914   -0.9339272978
 H   -3.6594736888   -2.9640959324    0.0697845080
 H   -2.0407218386   -2.2399974676    2.0586533703
 H   -0.9236160445   -4.5676909135    1.0383618337