20

 C   -0.3704251211    1.7876863704   -0.1505646104
 C   -0.2681128685    0.2782884809    0.0851276365
 C   -1.6094091085   -0.4437172006   -0.0783203879
 C   -1.5058369723   -1.9598324355    0.1628068654
 N   -2.8091304998   -2.6038538282    0.1129780654
 C   -3.2374132845   -3.0500908750   -1.0003293798
 N   -2.6136522293   -3.0694212912   -2.2366078735
 C   -4.5438774309   -3.6886726955   -1.0091158151
 N   -5.5820196632   -4.1945550050   -1.0551379634
 H    0.6004651418    2.2767645768   -0.0258803665
 H   -0.7266505096    2.0077543580   -1.1631064248
 H   -1.0704618813    2.2511512828    0.5530303632
 H    0.4669448647   -0.1522045475   -0.6082430725
 H    0.1214913907    0.0892838992    1.0936984616
 H   -2.3463822003   -0.0332172395    0.6217237006
 H   -2.0106231340   -0.2563538124   -1.0841959797
 H   -0.7845430630   -2.4043916643   -0.5431499585
 H   -1.0996005837   -2.1285877616    1.1661340319
 H   -1.8835798653   -2.3953569175   -2.3984184470
 H   -3.1884791821   -3.2694606544   -3.0393607554