19

 C   -0.7288226345    0.7596149656    0.2191178696
 C    0.1641408953   -0.4793487081    0.3290970405
 C    1.1503045482   -0.3713234598    1.4873639241
 O    2.0443223967   -1.4916828120    1.5310988403
 C    1.6482738543   -2.5487718807    2.2494181883
 N    2.3401534131   -3.6052997024    2.2488091688
 C    1.9276170794   -4.7357075552    3.0545907747
 C    0.6736976018   -4.5889314075    3.8189160400
 N   -0.3139346739   -4.4253098693    4.3970639767
 H   -0.1347752941    1.6654476501    0.0563576996
 H   -1.4255024892    0.6648531394   -0.6180778258
 H   -1.3211278589    0.9090852870    1.1284102576
 H   -0.4518617680   -1.3766679299    0.4661160112
 H    0.7312590328   -0.6265305139   -0.5967945862
 H    1.7929356833    0.5060937815    1.3713474039
 H    0.6233103032   -0.2769099224    2.4464967112
 H    0.7198438299   -2.4003017314    2.8174568854
 H    1.8262507734   -5.6153313136    2.4066448829
 H    2.7287007971   -4.9791438773    3.7639738773