20

 O   -0.1229668811    1.4622794731   -0.0622881076
 C    0.0001034742    0.0487064978   -0.0547888558
 C   -1.3998813788   -0.5420466680    0.0410921480
 C   -1.4006037430   -2.0734165915    0.0531906858
 C   -2.8036221027   -2.6789221178    0.0863243186
 O   -3.5950474841   -2.2831472756   -1.0427455974
 C   -2.7984927194   -4.2075407918    0.1693899437
 O   -4.1116003529   -4.7205087708    0.1328707705
 H    0.7590515674    1.8417906760   -0.1121951720
 H    0.4953518922   -0.3137074323   -0.9715404102
 H    0.6099300498   -0.2943204401    0.7977969708
 H   -1.8780326159   -0.1605408744    0.9512601229
 H   -1.9983442644   -0.1772580941   -0.7998414735
 H   -0.8714640620   -2.4567423969   -0.8332361282
 H   -0.8407910953   -2.4448110143    0.9220063130
 H   -3.3576219096   -2.2894708506    0.9490350460
 H   -3.0902848592   -2.4905798564   -1.8387978604
 H   -2.1842693059   -4.6091142818   -0.6591035051
 H   -2.3373748721   -4.5391062614    1.1065110576
 H   -4.5768549071   -4.1746723192   -0.5150662568