13

 O    0.1091051656    0.0253339905   -0.5345767811
 C    0.0137366746    1.1413175730   -0.1427425106
 C   -1.1428860230    2.0284215448    0.3277453720
 C   -0.1037757088    3.1231966772    0.7573025234
 C   -0.0211932985    3.3481189852    2.1898345749
 N    0.0209506753    3.5274412035    3.3304545319
 C    1.0697968235    2.2716162064    0.1183411373
 C    2.2397184735    1.9457157178    0.9040628095
 N    3.1669674298    1.6648600115    1.5339205155
 H   -1.8098959213    2.3384363374   -0.4807924918
 H   -1.7404532582    1.5990955357    1.1344199124
 H   -0.2357313536    4.0811452152    0.2524717120
 H    1.3765428712    2.7066826119   -0.8391193052