20

 C   -0.0600344659    1.6508377646    0.1912574445
 C   -0.0248429618    0.1218109618    0.0181772005
 C    0.8285818922   -0.5398443977    1.1191973757
 C   -1.3995945880   -0.4735679055   -0.0628570317
 C   -1.9301387947   -1.3861750359   -0.9625733023
 N   -1.2471101102   -1.9387024983   -2.0757555224
 C   -3.2707014022   -1.5671200544   -0.5500231538
 N   -3.5654009299   -0.8323338718    0.5195258539
 N   -2.4149058139   -0.1947018432    0.8028724057
 H    0.9532401349    2.0633845134    0.1585306423
 H   -0.6504446928    2.1260626260   -0.5967905911
 H   -0.4931083309    1.9379981060    1.1570799443
 H    0.4422347149   -0.0985575898   -0.9494406136
 H    0.8875492861   -1.6231188784    0.9786792428
 H    1.8474008087   -0.1381967684    1.1154956145
 H    0.4002201585   -0.3578874844    2.1113428627
 H   -0.5664396101   -2.6382620356   -1.7987024829
 H   -1.8958643534   -2.3867014759   -2.7119537644
 H   -4.0286962925   -2.1941585833   -0.9989982766
 H   -2.3927847589    0.4333404107    1.5876161317