21

 C    0.0464268481    1.6255007044   -0.0350654257
 C    0.0646885188    0.1046941372    0.0077495918
 C    1.1090340359   -0.6585893764   -0.8556999865
 O    2.3876220180   -0.0919622069   -0.4498133258
 C    2.1870093189   -0.7665025851    0.7929730615
 C    0.6986516646   -0.6413816278    1.1915561072
 C    0.2119576039   -0.7256837921    2.6075681543
 C    1.2020534527   -1.7612184389    0.2726144411
 C    1.0885854556   -3.2502969032    0.2935367541
 H    1.0607073183    2.0197877323    0.0635539551
 H   -0.3719708833    1.9884632950   -0.9807810678
 H   -0.5663166758    2.0362148949    0.7749413535
 H   -0.9301977475   -0.3150910262   -0.1843260061
 H    1.0153544108   -0.7887252473   -1.9329933367
 H    3.0114649741   -0.8430372046    1.4914296727
 H    0.2446424602    0.2539094875    3.0983808704
 H   -0.8210905352   -1.0893235853    2.6581817797
 H    0.8297036598   -1.4085751958    3.2019523514
 H    0.0955575835   -3.5853157965   -0.0282045933
 H    1.8295388150   -3.7196764433   -0.3634894241
 H    1.2519248638   -3.6354653019    1.3059791334