17

 O    0.1391089568    1.3944240323   -0.2630219726
 C   -0.0128260356    0.0372715767    0.0205985279
 C    0.1958259176   -0.5358928288    1.4533018774
 O   -0.5829115364    0.1543004957    2.4728584985
 C   -1.7622708036   -0.6113059853    2.1320370778
 C   -2.4278432460    0.0770809160    0.9203169864
 O   -2.4426972796    1.4902172404    0.9809015388
 C   -1.4084879034   -0.6289536471   -0.0325970264
 C   -0.9666736002   -1.5394377621    1.1818889400
 H   -0.7007357483    1.8203183989   -0.0480208791
 H    0.6691279981   -0.5246918976   -0.6326916774
 H    1.2025560588   -0.7604735186    1.8078860785
 H   -2.3480276420   -0.8880439739    3.0103871664
 H   -3.4462838366   -0.2811410912    0.7399434147
 H   -1.8066375037    1.7110227192    1.6807835014
 H   -1.7782623979   -0.9860330794   -0.9927928555
 H   -0.9178158579   -2.6227236653    1.2077222931