13

 N   -0.1009547808    1.3151382732    0.0099802749
 C   -0.0476083405    0.0643581843    0.0028946400
 O    1.0643183416   -0.7408847758   -0.0062932836
 C    0.7192471374   -2.1481160788   -0.0125383330
 C   -0.7720915491   -2.1131085592   -0.0059325930
 N   -1.8191650801   -2.8998997445   -0.0057494525
 C   -2.8444657286   -1.9783792902    0.0037205074
 N   -2.4885884779   -0.7012094758    0.0091958191
 N   -1.1406997824   -0.8169353271    0.0027630725
 H    0.8335480270    1.7201083127    0.0081850448
 H    1.1413984737   -2.6139862603   -0.9081808323
 H    1.1490678480   -2.6237771316    0.8742657899
 H   -3.8841911383   -2.2697288969    0.0065937659