17

 C    0.2317384048    1.2454751462    0.2327977304
 O    0.1759746807   -0.1551065978    0.0134740005
 C    0.5376078558   -0.5310717835   -1.2870087885
 O    1.9104144991   -0.3190823296   -1.5691236093
 C    2.6178914484   -1.5595518638   -1.5517368632
 C    1.5397357522   -2.6101598978   -1.5272426887
 C    1.8018247319   -4.0510186385   -1.5954804975
 O    2.9128111540   -4.5258847156   -1.6712801744
 C    0.3482120185   -2.0207136171   -1.4068965715
 H    1.2533614007    1.6265589462    0.1219060089
 H   -0.4253356024    1.7849781586   -0.4659945007
 H   -0.1133711296    1.4211109227    1.2535382743
 H   -0.0395011525    0.0652523570   -2.0131294011
 H    3.2470651049   -1.6211397812   -2.4467127834
 H    3.2765339245   -1.6344431842   -0.6756819956
 H    0.8954336251   -4.6937606472   -1.5718071241
 H   -0.6189419461   -2.5011599245   -1.3365053259