16

 O    0.0175025903   -0.0089693940    0.0220596216
 C   -0.0160848026    1.1932901588   -0.0299675467
 C   -1.2672554912    2.0772523867   -0.0978365279
 C   -0.8299236911    3.3459362192   -0.8609437256
 C    0.6879559155    3.4233789786   -0.6596599326
 N    1.0505952010    3.2791379148    0.7657841814
 C    1.1789876819    2.1018917756   -0.1330839394
 C    1.4884576216    4.2418564057   -1.5184837186
 C    2.1360571237    4.9541818213   -2.2398150801
 H   -2.0895754754    1.5365404476   -0.5685317560
 H   -1.5645679868    2.3170419670    0.9281242127
 H   -1.0381194516    3.2469040633   -1.9304158891
 H   -1.3207087786    4.2548625110   -0.5041760115
 H    1.9819780929    3.6664923588    0.9064882853
 H    2.1562268500    1.6984395170   -0.3679982885
 H    2.7138177506    5.5760099084   -2.8782699149