22

 C   -0.1876360543    1.3079278151    0.0378732926
 O    0.1782358084   -0.0472138861   -0.0863008619
 C    0.7725741451   -0.5873049246    1.0769618678
 C   -0.2105242891   -0.8681120537    2.2402073433
 C    0.3640054685   -2.1315662708    2.9192291763
 C   -0.6626868669   -3.0159422293    3.6163567350
 N    1.1338331922   -2.8777998823    1.8910609152
 C    0.4130983271   -3.0783216021    0.6250053388
 C    1.3684580379   -1.9522456197    0.7704273157
 H    0.6748269019    1.9392172151    0.3055995700
 H   -0.5709548258    1.6301012595   -0.9334599191
 H   -0.9724742430    1.4614252971    0.7935845863
 H    1.5763408081    0.0871548213    1.4176375022
 H   -0.2993007054   -0.0337009251    2.9398951907
 H   -1.2069348302   -1.0524033143    1.8241277324
 H    1.1128096119   -1.8196787877    3.6587827388
 H   -1.4289275966   -3.3604557582    2.9135685050
 H   -0.1795728012   -3.8956078484    4.0510308939
 H   -1.1649295988   -2.4666183951    4.4189247507
 H    0.7116701999   -3.9664101140    0.0765734974
 H   -0.6467307010   -2.8486254720    0.5642747319
 H    2.3421978813   -1.9894036045    0.2915680969