23

 C    0.0668341147    1.5794592532   -0.0086909389
 C    0.0141502143    0.0490973006    0.0607181729
 C    0.5808752481   -0.5727261324   -1.2420843274
 C    1.1323088562   -2.0051090585   -1.0683687869
 C    1.6850462265   -2.1970768180    0.3531304635
 C    2.2496403271   -0.8590382221    0.9187833529
 C    0.7682128418   -0.5210312964    1.2816574273
 O    0.4808515534    0.2820961408    2.3991981663
 C    0.5227654277   -2.0509415794    1.3711309601
 H    1.1024647557    1.9350741259   -0.0612581272
 H   -0.4525962734    1.9369023640   -0.9044721716
 H   -0.3984185263    2.0329207852    0.8679312445
 H   -1.0368055979   -0.2480831963    0.1785625101
 H   -0.1757391197   -0.5380141515   -2.0325725116
 H    1.3976026673    0.0719574406   -1.5870595642
 H    0.3504915998   -2.7536489241   -1.2473253478
 H    1.9129834079   -2.1873811831   -1.8158132268
 H    2.3137662487   -3.0858316026    0.4341132800
 H    2.8360998227   -1.0314508763    1.8272519586
 H    2.8064757199   -0.1894990140    0.2582532999
 H    0.9067703293   -0.1145827716    3.1658023072
 H   -0.4647002180   -2.4351459931    1.0962817042
 H    0.7997755741   -2.4350677107    2.3593431949