18

 C   -0.0539482315    1.5327491884    0.1509240067
 N    1.4710924151    1.3090307239    0.0931210148
 C    1.2505942390   -0.0251209583    0.7994383370
 C    2.3943970978   -0.9814704398    0.2951589827
 C    1.7578227436   -0.9941286627   -1.0803360336
 C    0.7295718120   -1.8666499085   -1.2751966708
 C   -0.6189868540   -1.1706678829   -0.9932994545
 C    0.0257585321    0.0466501781   -0.2542197240
 C    1.1870165078    0.4191959398   -1.1542109841
 H   -0.4082591274    1.8035263990    1.1503669087
 H   -0.4160801129    2.2400376146   -0.6003573347
 H    1.0670533278    0.0387851812    1.8750785855
 H    3.3648417823   -0.4863998231    0.3996374656
 H    2.4014448942   -1.9512911481    0.7956485630
 H    0.8321048372   -2.9242857000   -1.0520901486
 H   -1.2155666971   -0.8094121847   -1.8415201562
 H   -1.2576860554   -1.8446585979   -0.4115964917
 H    1.0471728894    0.9360022007   -2.1027105357