18

 C   -0.1057285050    1.5673871269    0.0059366275
 C    0.0254086016    0.0541256628    0.0293412308
 C    1.2452956494   -0.6448684811   -0.6852596641
 C    2.0581518574   -0.1429964232    0.5350216001
 O    3.0978257145    0.3745509438    0.7936634300
 C    0.7740366825   -0.6581091149    1.2208220442
 C    0.9314797258   -1.8445728142    0.2393869138
 C    0.1732828753   -3.0823343488    0.0125996186
 N    1.6005185901   -3.1011116761    0.4556766050
 H    0.8393495552    2.0661468156    0.2422430245
 H   -0.4305527238    1.9116525025   -0.9815301320
 H   -0.8525935438    1.9000729495    0.7343127367
 H   -0.9176880673   -0.4450479792   -0.2084912088
 H    1.4935934425   -0.6494830591   -1.7449228833
 H    0.5017841513   -0.6827219829    2.2729179243
 H   -0.5316589580   -3.4505054825    0.7526333963
 H   -0.0527041098   -3.3691956508   -1.0115165932
 H    2.2119688021   -3.3359867683   -0.3229995105