16

 N    0.0814998783   -1.0742581267    0.0476152295
 C    0.0409908900    0.0822661694    0.0274649469
 C   -0.0410941817    1.5094158133   -0.0057871892
 C    0.3677718867    2.2761673132   -1.2538439423
 C    1.1905211087    2.4252790237   -0.0093152706
 C    0.7317683667    3.3896901458    1.1066452879
 C   -0.7396425300    3.7400617449    0.7938682325
 C   -0.8359300272    2.2353240370    1.1184795510
 O    0.2173181706    2.4490079281    2.1151766436
 H    0.8060317061    1.6675925281   -2.0384095724
 H   -0.2577730791    3.0779835165   -1.6238301662
 H    2.1905061178    2.0133251896    0.0339737512
 H    1.4566052710    4.1033506472    1.4942150931
 H   -1.1693874776    4.3240335201    1.6062163482
 H   -1.0429976790    4.1406212130   -0.1729394362
 H   -1.7266038912    1.7419732268    1.5021778429