19

 C    0.1719854230    1.5709833047    0.1496839661
 C    0.0740312792    0.0498561733   -0.0238567640
 N    0.6551291186   -0.7341892368    1.0678364228
 C   -0.0627045202   -0.7609865540    2.3293791800
 C    2.0220940228   -0.8004469084    1.1747504040
 C    2.8961397420   -0.9896210057    2.2071282224
 N    4.1892539801   -1.0608911124    1.6910855394
 C    4.0461978764   -0.9024599506    0.4237335940
 O    2.7475253691   -0.7363689831    0.0195153598
 H    1.2169277393    1.8889671240    0.2117075236
 H   -0.2870217807    2.0785264084   -0.7047218732
 H   -0.3427110369    1.9074140454    1.0550650111
 H   -0.9750049160   -0.2538399799   -0.1083742329
 H    0.5689156326   -0.2515921158   -0.9499794901
 H    0.2559121506   -1.6308874021    2.9118967470
 H    0.0974262317    0.1383051232    2.9445612189
 H   -1.1322541957   -0.8579828939    2.1273442054
 H    2.6978259444   -1.0761053819    3.2613359571
 H    4.7937227495   -0.8714001944   -0.3518343413