18

 O    0.1888982957    0.6295220923   -1.1888579048
 C    0.0113556770    1.3207149997   -0.2161610999
 C   -1.3408523605    1.9794787329    0.0701527662
 N   -1.2754395232    2.7673428121    1.2942972825
 C   -0.2232812873    3.7772961422    1.2146717752
 C    1.1400518724    3.0846328691    1.1989266031
 C    2.3599818086    3.8729704816    0.9906522811
 O    2.0169056175    3.3798297345    2.2906162289
 C    1.0842042129    1.6081514460    0.8223484356
 H   -1.6100405684    2.5607082088   -0.8319311063
 H   -2.0876429267    1.1847121950    0.1731246223
 H   -2.1707475549    3.1979651927    1.4903731844
 H   -0.3182345692    4.4149358151    0.3148002561
 H   -0.2683392902    4.4272745576    2.0922061522
 H    3.2313804416    3.4120154837    0.5271318138
 H    2.2917966309    4.9543268935    0.8700061578
 H    0.7980982661    1.0580450385    1.7290806231
 H    2.0467755079    1.2290578649    0.4762535487