17

 C   -0.0406181407    1.4806598822   -0.1059735108
 C    0.0325668321    0.0287692858   -0.0470122822
 C    0.1042400911   -1.1735897289    0.0059603841
 C    0.1481991340   -2.6290441912    0.0243035980
 O    1.0883619793   -3.1806535076   -0.8702511154
 C    0.2364056917   -3.2657525944    1.4496058215
 C   -1.2932511898   -3.5624698211    1.4474253668
 C   -1.2940387025   -3.2541766731   -0.0546446828
 O   -2.0081071526   -3.5138528035   -0.9750543878
 H    0.8227897899    1.8955407540   -0.6374239076
 H   -0.9448239631    1.8142975858   -0.6265605556
 H   -0.0518795758    1.9174238811    0.8985456274
 H    0.8987838979   -2.8261515287   -1.7468188969
 H    0.8385578781   -4.1745037744    1.4001531294
 H    0.6108215868   -2.6112045950    2.2349198032
 H   -1.6262416663   -4.5629131699    1.7311808193
 H   -1.8784945101   -2.8256216609    2.0062924994