19

 O    0.1902803458    0.8547881584   -0.7968817741
 C    0.1079380528   -0.2350785634    0.0685557255
 C    0.0903522490   -0.0144500030    1.6095161708
 C   -1.0270821601   -1.0883356674    1.7113517622
 C   -1.3023532961   -0.9204858083    0.1892740080
 O   -2.3052791928    0.0835867600   -0.0528738308
 C   -3.2665961974   -0.3897410198   -0.9990586502
 C   -2.8065423506   -1.7728777350   -1.3593084744
 C   -1.7021043130   -2.0642061405   -0.6807905899
 H   -0.6803276842    1.2750171222   -0.7517500229
 H    0.8770166461   -0.9572811985   -0.2249932014
 H    1.0204825194   -0.1853716896    2.1553663665
 H   -0.2855192236    0.9839206016    1.8481241091
 H   -0.6392516331   -2.0848011483    1.9414745043
 H   -1.8789801062   -0.8763896322    2.3595713470
 H   -4.2686084833   -0.3819193916   -0.5433632992
 H   -3.2979846383    0.2854477205   -1.8670775155
 H   -3.3259841836   -2.4034085962   -2.0694156371
 H   -1.1354678907   -2.9855946190   -0.7236130078