22

 O   -0.1887802690    1.4090279221   -0.3802987056
 C   -0.0410388846    0.0906092685    0.1259003522
 C   -1.3566505246   -0.6439844010   -0.0916096561
 C   -1.3091200349   -2.0950492238    0.3871928937
 N   -2.6150441727   -2.7199964501    0.2173886246
 C   -3.0631897198   -3.2990750890   -1.0304143092
 C   -1.9499617143   -4.0444583680   -1.7938719287
 C   -1.7020982113   -4.9230293396   -0.5274384040
 C   -2.8223263076   -4.1491588940    0.1981360980
 H    0.6369104050    1.8801523601   -0.2362474344
 H    0.7759674361   -0.4428261565   -0.3884375176
 H    0.2068226079    0.1020080768    1.2003193890
 H   -2.1588714698   -0.1126246545    0.4307040530
 H   -1.6008995760   -0.6146320141   -1.1602479858
 H   -0.4938081723   -2.6253055176   -0.1297035777
 H   -1.0749999782   -2.1306232888    1.4586703991
 H   -3.9928472044   -2.9400045383   -1.4591617344
 H   -2.3443816721   -4.6286798821   -2.6279047923
 H   -1.1177893684   -3.4368266671   -2.1623021002
 H   -1.9679576279   -5.9688476596   -0.6954298216
 H   -0.7086122737   -4.8878240348   -0.0704560623
 H   -3.5294393572   -4.5745463687    0.9029954101