23

 C   -0.6764006216    1.6648542165   -0.0299177834
 C    0.0217550230    0.3104416910    0.0320548894
 C   -0.9653237166   -0.8426571994   -0.1813368019
 O   -1.5551816558   -0.8578585735   -1.4723707806
 C    1.2935746459    0.1470519057   -0.8633890253
 C    2.0417804040   -0.3951642551    0.3606658575
 C    2.7820892690   -1.7004724886    0.4334200245
 C    3.5158743098   -0.3917295177    0.6271958658
 C    0.9070287009    0.0446834006    1.2950455321
 H    0.0301510146    2.4818680626    0.1470855556
 H   -1.1260812084    1.8391482882   -1.0153223398
 H   -1.4696617992    1.7412196083    0.7244060039
 H   -0.4376517315   -1.7979321968   -0.0900541669
 H   -1.7339698958   -0.8162556886    0.6093517546
 H   -2.1307609746   -0.0907551436   -1.5448034594
 H    1.1799142174   -0.5198546047   -1.7222998839
 H    1.6867796261    1.1066724799   -1.2156502784
 H    2.6265790537   -2.3314369587    1.3033531105
 H    2.9471752867   -2.2471666984   -0.4898918899
 H    4.1783163422   -0.0552571410   -0.1645243104
 H    3.8552821553   -0.1404564057    1.6275009078
 H    1.1332257801    0.9613876197    1.8497781190
 H    0.5284280149   -0.7024243307    2.0016643191