10

 O    0.0641187055    1.3418956126    0.0078969461
 C   -0.0660440902    0.0108544322    0.0012148246
 C   -1.1446559615   -0.7797041550    0.0034654496
 N   -0.6294994962   -2.0966696581   -0.0068043567
 C    0.7337156320   -2.0909332030   -0.0148436090
 O    1.5341734978   -2.9836232756   -0.0250092033
 O    1.0860627002   -0.7287751861   -0.0097980445
 H    1.0061558874    1.5498726654    0.0009101072
 H   -2.1936406079   -0.5521606633    0.0109892673
 H   -1.1591997270   -2.9494369491   -0.0085903912