12

 O    0.0148510318    0.0371355134   -0.0912862401
 C    0.0239384378    1.2271534006    0.0449810826
 C   -1.1114137196    2.2873544965    0.1393579908
 C   -0.0216475507    3.3569459559   -0.0337336581
 C    0.9411000003    3.2657445643    1.0925319502
 C    1.0914661030    2.2742204410   -0.0587226822
 H   -1.7821031618    2.1815177945   -0.7182010542
 H   -1.7051244557    2.3291285812    1.0571702519
 H   -0.0900814680    4.2171580576   -0.6855168455
 H    1.7283976047    4.0117844761    1.1253139848
 H    0.6136989270    2.9209722833    2.0697327211
 H    2.0098870214    2.2111742456   -0.6286144013