15

 N   -0.0001698372    1.3722197048    0.0092952124
 C   -0.0594653250    0.0294727898    0.0020410261
 C   -1.2631110057   -0.6556712512    0.0051942396
 C   -1.4889720153   -2.0380073783   -0.0007932139
 C   -0.5840691255   -3.0786241097   -0.0110507089
 N    0.7610987530   -3.0485789694   -0.0179317709
 C    1.5384866156   -2.0037626846   -0.0169712862
 C    1.3055704623   -0.5659049555   -0.0090283374
 O    2.2644905682    0.2134322252   -0.0111767231
 H    0.9331381276    1.7636344849    0.0037344207
 H   -0.8179912334    1.9540853545    0.0139095586
 H   -2.1567221628   -0.0340913190    0.0134370362
 H   -2.5352293584   -2.3352219482    0.0033360298
 H   -0.9980699636   -4.0847699402   -0.0140932271
 H    2.6100642002   -2.2126162431   -0.0236185259