20

 C    0.0949645230    1.5814565817    0.0028672536
 C   -0.0132200909    0.0514999314    0.0116118966
 C    0.5964495292   -0.5588630521   -1.2688488979
 C    0.7043896940   -2.0823985114   -1.2183139193
 C    2.0426308544   -2.7351331014   -0.9597950626
 C    0.9827743012   -2.7136425882    0.1248812173
 C    1.0947268733   -1.7979024426    1.2871959594
 C    0.6332710513   -0.5471171279    1.2438165351
 H    1.1439608139    1.8992817332   -0.0060190967
 H   -0.3912927360    2.0066005036   -0.8814594924
 H   -0.3781656073    2.0182120945    0.8887959912
 H   -1.0841314066   -0.2055732781    0.0338286762
 H    0.0023715141   -0.2557812097   -2.1384237311
 H    1.5916688430   -0.1191329709   -1.4103062395
 H    0.0277425015   -2.6220446877   -1.8732517652
 H    2.2616180313   -3.6832321825   -1.4398543255
 H    2.9005399738   -2.0819714261   -0.8352447424
 H    0.5112487138   -3.6710374039    0.3335459183
 H    1.5536251525   -2.1843561806    2.1946827218
 H    0.7126530205    0.0918394188    2.1210086430