18

 C   -0.1085625469    1.4767522705   -0.0621610249
 C    0.0324127654   -0.0083185491    0.0753216796
 O   -1.1798585324   -0.7215449431   -0.1889078581
 C   -1.1709388158   -1.7880892743    0.6605881175
 N   -2.2137482355   -2.6567245193    0.4835161759
 N   -0.1972904166   -1.9065602438    1.4849666736
 C    0.6965117158   -0.8219511011    1.1730034332
 C    1.2888914844   -0.7987156029   -0.2406095456
 N    1.2948429209   -1.9578182995   -1.0854441910
 H    0.8431227049    1.9611648816    0.1725167796
 H   -0.3851364239    1.7568850333   -1.0845401013
 H   -0.8705005140    1.8679790116    0.6199222813
 H   -3.0652890558   -2.2363011305    0.1421724598
 H   -2.3417758125   -3.2923702416    1.2562608551
 H    1.2600199880   -0.3971970527    1.9958295214
 H    2.1716812027   -0.1650274785   -0.3220636354
 H    1.1475537031   -2.7974105609   -0.5341685763
 H    0.5442082382   -1.9196427496   -1.7670378943