11

 N    0.0953197690    1.3874575953    0.1744463751
 C   -0.0016179123    0.0329526409    0.0616267826
 C   -1.1147136766   -0.7776598155    0.0195805333
 O   -0.6583619918   -2.0894811318   -0.0331085775
 C    0.6710690917   -1.9720791606   -0.0239247655
 N    1.1299405832   -0.7596921250    0.0296081014
 C   -2.4863948489   -0.5068595663    0.0151245784
 N   -3.6126131142   -0.2235026332    0.0089885912
 H    0.9838128649    1.7775350165   -0.0984218495
 H   -0.7110270591    1.9339424703   -0.0839223366
 H    1.2415514043   -2.8874245206   -0.0626588628