22

 C    0.0239430923    1.4900376817   -0.2785075210
 N   -0.0727542958    0.0440477371   -0.2620011678
 C   -1.0763356275   -0.6210247524    0.3816301098
 O   -1.9698769872   -0.0468202882    0.9834311178
 C   -0.9991016572   -2.1423857368    0.3163399599
 C   -0.7882334771   -2.7711851386    1.7111916408
 C   -1.2429950551   -4.2233305058    1.5169156312
 C   -2.4971195730   -4.1062264185    0.6222109956
 C   -2.3257228374   -2.7813784848   -0.1762591280
 H   -0.0207877624    1.8828727910   -1.3006348392
 H   -0.8237747323    1.8754860785    0.2891770198
 H    0.9538491326    1.8350424820    0.1878357502
 H    0.6299610011   -0.4941678463   -0.7398540780
 H   -0.1742463800   -2.4525133892   -0.3380636521
 H    0.2415745276   -2.6786111127    2.0695099930
 H   -1.4406291471   -2.2540731656    2.4236338400
 H   -0.4585117499   -4.7890492876    0.9990220773
 H   -1.4400309232   -4.7388534660    2.4613328045
 H   -2.6144678646   -4.9739356015   -0.0327209190
 H   -3.3983978145   -4.0553188863    1.2407796492
 H   -3.1445339789   -2.0911129570    0.0388441688
 H   -2.3094519304   -2.9447814729   -1.2573341931