17

 C    0.0155570602    1.3897063302   -0.1828709159
 O   -0.0757728700   -0.0061342356   -0.3493027571
 C   -1.2180353508   -0.5587266058    0.2918416545
 C   -1.1986977875   -2.0305300375    0.1134910966
 C   -2.1620642974   -2.9575621175   -0.1984367928
 O   -3.4666689633   -2.7060588919   -0.4550351891
 N   -1.6609433899   -4.2265660370   -0.2122533884
 C   -0.3812845592   -4.0905303802    0.0837585043
 N   -0.0562481672   -2.7958918443    0.3077894451
 H    0.9259528052    1.7204545845   -0.6884210480
 H   -0.8468768697    1.9103047887   -0.6272241282
 H    0.0744952815    1.6727401950    0.8804659039
 H   -1.2013062540   -0.2716830690    1.3597887539
 H   -2.1515188146   -0.1587724501   -0.1323429709
 H   -3.8681711528   -3.5587730748   -0.6611785644
 H    0.3392260924   -4.8918288141    0.1412659453
 H    0.8630698773   -2.4121802505    0.4505149613