22

 C   -0.1121633345    1.5481357724    0.0649527571
 C   -0.0414278772    0.0140921318    0.0358779466
 C    0.8728622221   -0.5372574472    1.1415263943
 C   -1.4100647769   -0.6213665697    0.1199390121
 C   -1.8094610762   -1.8056357884   -0.6709525773
 N   -2.4165575763   -0.4913861756   -0.9940790055
 C   -3.4493787954   -0.1236396010    0.0550912430
 C   -3.6793316014   -1.0750168927    1.1945870980
 C   -2.4534591931   -0.2011209896    1.1869278668
 H    0.8775269358    1.9819553042   -0.1099824657
 H   -0.7912954682    1.9168264584   -0.7088630631
 H   -0.4647734521    1.9184199523    1.0338620929
 H    0.3763308006   -0.2797839308   -0.9359106920
 H    0.9592522022   -1.6267655083    1.0807999612
 H    1.8783005255   -0.1112497516    1.0648035286
 H    0.4830698301   -0.2884464668    2.1353469449
 H   -1.1199766160   -2.1254607360   -1.4476429593
 H   -2.4106499656   -2.6115281638   -0.2675053782
 H   -4.1554743108    0.6508344969   -0.2158236956
 H   -4.4502385332   -0.7266875294    1.8763532922
 H   -3.6460998628   -2.1552263550    1.1108188738
 H   -2.2433684467    0.5174089700    1.9674500751