16

 O    0.5422010366    0.8736040219    0.5361796453
 C   -0.1358677118   -0.2340898288    0.0098551640
 C   -1.4729128438    0.0997541320   -0.7194799759
 N   -0.9119843215   -0.5806019054   -1.9034580962
 C    0.3476447660   -0.7048262813   -1.3622720035
 N    1.5266634279   -0.9979563752   -1.7312432422
 C    1.8177749029   -1.3437178283   -3.1132101682
 C    1.0305577733   -0.6340601475   -4.1380556616
 N    0.3728328665   -0.0625274961   -4.8986783675
 H    1.4786615972    0.7425911054    0.3439074972
 H   -0.2321464552   -1.0461931208    0.7426922796
 H   -2.3844225936   -0.3595364716   -0.3293707865
 H   -1.6045201859    1.1783726539   -0.8411633075
 H   -1.1591591239   -0.4483075597   -2.8740218083
 H    2.8763381938   -1.1403097573   -3.3088149268
 H    1.6798422715   -2.4223518111   -3.2756433120