18

 C   -0.2564942842    1.4266524859   -0.0376914866
 C    0.0982027690   -0.0449873606   -0.0472093827
 O    1.3151037756   -0.3301755417   -0.7928706088
 C    1.9601734128   -0.9397718053    0.3402990119
 C    0.7464619584   -0.6349155942    1.2124743172
 N    0.6987592970   -0.0433232219    2.5232799853
 C    0.1978056998   -1.4325175774    2.3490022324
 C   -1.2718160838   -1.5952859409    2.5218605493
 O   -1.8070928219   -2.6382913153    2.7995730509
 H    0.5507781654    2.0200118052    0.3994408817
 H   -0.4345171895    1.7721070382   -1.0603918168
 H   -1.1649395959    1.5970146144    0.5484261234
 H   -0.7326837661   -0.6459307442   -0.4410927844
 H    2.1761382689   -2.0033028236    0.1771207651
 H    2.8879468680   -0.4226371733    0.6217077753
 H    1.6107547987   -0.0509674898    2.9742975011
 H    0.7972939642   -2.2686006046    2.7020954804
 H   -1.8463577665   -0.6549148009    2.3666802755