19

 C   -0.3637559038    1.4581041930    0.0011281256
 C   -0.0090391171   -0.0241072706    0.0207054224
 C    1.1918797219   -0.4786299050   -0.9175728603
 N    1.8560051226   -0.8852230902    0.3249876044
 N    2.9152939148   -1.4790278358    0.8813998766
 C    2.5539854830   -1.4803974768    2.1781520642
 C    1.2741420141   -0.9087229473    2.4399916460
 C    0.5942287943   -0.7684896753    3.7670572658
 C    0.8704859031   -0.5383040199    1.1648849154
 H    0.5271187192    2.0776931354    0.1439067112
 H   -0.8287971213    1.7364206601   -0.9504123461
 H   -1.0710036695    1.6969029453    0.8014582584
 H   -0.9031642110   -0.6334276071   -0.1455319984
 H    0.9765433169   -1.3054800812   -1.5996988994
 H    1.7001727885    0.3288707484   -1.4523620394
 H    3.2310316956   -1.8975088733    2.9115571598
 H    1.1686215138   -1.2751661884    4.5479095335
 H    0.4874337901    0.2797770352    4.0698835640
 H   -0.4100412451   -1.2068573565    3.7628932163