17

 O    0.1075113648    0.0116839401    0.2927586273
 C    0.0335823398    1.1728114296   -0.0357667361
 N   -1.1212435999    1.9334795385   -0.1879486600
 C   -0.8291416503    3.3627451618   -0.1023840019
 C    0.6377940156    3.4045858961   -0.5867475368
 C    1.6684302100    4.2893483656    0.1641701065
 C    2.7346849116    3.2845477185    0.5670429452
 C    2.3383518392    2.0412530249    0.2877837320
 N    1.0953725242    2.0189838828   -0.3647536952
 H   -1.9534683015    1.5523449325    0.2341905926
 H   -1.4928306705    3.9494092564   -0.7430754918
 H   -0.9169187555    3.7445190242    0.9266492274
 H    0.6629207255    3.6164369674   -1.6613634041
 H    2.0516630994    5.0845546260   -0.4824178960
 H    1.2296201931    4.7840704103    1.0434966882
 H    3.6652056150    3.5518516213    1.0465406567
 H    2.8269639694    1.0995273940    0.4927328360