13

 C    0.1411578078    1.5108641686    0.0564712852
 C   -0.0352552388    0.0416980830    0.0481643816
 C   -1.1016307392   -0.7766970793   -0.0541940344
 O   -0.6543699347   -2.0884673060   -0.0011090089
 C    0.6960732120   -2.0604191942    0.1347362520
 O    1.4290202960   -2.9866141061    0.2142055792
 O    1.0880062020   -0.7288001773    0.1660275974
 C   -2.5192790981   -0.4917405713   -0.1986622031
 O   -3.3863071552   -1.3292927269   -0.2809938408
 H    0.7925095032    1.8204747936   -0.7676985520
 H   -0.8190492873    2.0182150819   -0.0435900030
 H    0.6154813408    1.8319249631    0.9898885764
 H   -2.7427833486    0.5958493508   -0.2275697196