11

 O    0.1015691805    1.3097952545    0.1182044950
 C    0.0694989375   -0.0278746205    0.0610815435
 N    0.0867029913   -0.5804850949   -1.1563861333
 C    0.0538857479   -1.9131731763   -1.1868154868
 C    0.0049016062   -2.6841591429   -0.0322694598
 C   -0.0082324498   -1.9828870635    1.1699048778
 N    0.0235990279   -0.6527475682    1.2362855473
 H    0.1327499332    1.6179419615   -0.7977434498
 H    0.0675929541   -2.3715783610   -2.1730854605
 H   -0.0214763160   -3.7653159460   -0.0656827836
 H   -0.0458303929   -2.5063743927    2.1228946401