16

 C   -0.1070670822    1.5397172030    0.0112977569
 C    0.0435257089    0.0210629903   -0.0380659666
 O    0.9154359134   -0.3477671761   -1.1171750063
 C    1.9616873485   -1.0910498515   -0.6396718320
 O    2.8307310645   -1.5231290116   -1.3449816593
 C    1.7970983576   -1.2345808839    0.8349959266
 C    2.7915922290   -1.9936134391    1.6460251620
 C    0.6803789301   -0.5913923100    1.1781864133
 H    0.8603809833    2.0133376083    0.1989019608
 H   -0.5022362647    1.9100728139   -0.9378399961
 H   -0.7985837311    1.8245451360    0.8103856643
 H   -0.9354371585   -0.4368192426   -0.2389981052
 H    2.8713566212   -3.0250440556    1.2864780104
 H    3.7887616517   -1.5530697464    1.5406546132
 H    2.5230739095   -2.0086895288    2.7046952316
 H    0.2563451688   -0.4906526958    2.1698631664