15

 C    1.1048796994    1.1818408691   -0.2765013395
 N    0.9207708546   -0.0945657761   -0.9429648128
 C   -0.2619798568   -0.7513755126   -0.9383835638
 O   -1.2751298580   -0.3623888429   -0.3935634357
 C   -0.2954590725   -2.1043024644   -1.6964862748
 C    0.9283380272   -2.5405264844   -2.3365553189
 C    1.9595053082   -2.8884246129   -2.8646132606
 C    3.1224424072   -3.2827249451   -3.4612051507
 N    4.1148074626   -3.6131101073   -3.9668529428
 H    1.3956110370    1.9596738466   -0.9902000893
 H    0.1540586150    1.4537947173    0.1822754644
 H    1.8727385992    1.1122149060    0.5009610309
 H    1.6998704408   -0.5099720116   -1.4282219362
 H   -0.6292167917   -2.8540512247   -0.9700168693
 H   -1.0992872223   -2.0204752070   -2.4368152907