18

 C   -0.0947841526    1.3651062591   -0.1707039628
 C    0.1835881306   -0.1070528419    0.0364806122
 C    1.5640829663   -0.6671079989    0.0272418004
 C    0.7743927755   -0.6664791652    1.3380858653
 C    1.2171135279    0.2182675963    2.4825864151
 O    2.2418781528   -0.3944696956    3.2545313801
 C    0.2209121117   -1.9888538951    1.7514867728
 O   -0.0877733191   -2.8704419062    0.9834825539
 H    0.7195756475    1.9990673148    0.1896266306
 H   -0.2189449327    1.5709773058   -1.2393765931
 H   -1.0149422180    1.6760428537    0.3349316694
 H   -0.5690066684   -0.7724324385   -0.3782051467
 H    1.7252926703   -1.6354693684   -0.4331174465
 H    2.3952401975    0.0297572277   -0.0392769557
 H    1.5290273370    1.2050547846    2.1145904117
 H    0.3899617526    0.3818569997    3.1831965503
 H    2.9655252893   -0.6090287462    2.6558124521
 H    0.0963138716   -2.1156583556    2.8481563610