15

 O   -0.0390119078    1.3186812772    0.1273384588
 N    0.0261340933   -0.0583949359    0.0647490105
 C   -1.1151434055   -0.6343977895    0.0074920542
 C   -1.2236453130   -2.1399425836   -0.0567508828
 C   -2.6380417087   -2.4272303772    0.4986325893
 C   -3.4790375944   -1.2270346441    0.0316506149
 C   -2.5074116830   -0.0424914735    0.0260989045
 O   -2.8071875227    1.1245512477    0.0351702212
 H    0.8921253591    1.5645914768    0.1791752917
 H   -1.1592116426   -2.4709345638   -1.1021952899
 H   -0.4227301166   -2.6397050761    0.4911965675
 H   -3.0333378769   -3.3869524279    0.1591565725
 H   -2.6056510382   -2.4532140368    1.5932162554
 H   -3.8265501396   -1.3709871421   -1.0007534090
 H   -4.3580946235   -1.0078877712    0.6410461012