17

 C   -0.0566386840    1.5318440114    0.0289320073
 C    0.0350453430    0.0375991614    0.0104190674
 C   -0.0756189951   -0.8639546569   -1.2167357757
 C    0.9652451214   -1.9645368403   -1.1885823899
 C    1.0379844607   -2.1453208359    0.3111847652
 C    0.7844659933   -0.8626601887    1.0143320184
 N   -0.2892087461   -1.9085940492    0.9659668657
 C   -1.0108956078   -1.0448028496   -0.0464847402
 H    0.9076286003    1.9961688110   -0.2109607011
 H   -0.7863694423    1.8881370285   -0.7053406721
 H   -0.3686056480    1.9015999072    1.0123768286
 H   -0.4556271234   -0.4427542889   -2.1394964917
 H    0.6309239813   -2.8724221547   -1.7022057063
 H    1.9290407751   -1.6580503671   -1.6097699628
 H    1.6321740064   -2.9285813673    0.7687095117
 H    1.2323232293   -0.5490506044    1.9510404955
 H   -2.0925752640   -1.0267035562   -0.0728355601