20

 C   -0.1043615440    1.2328989404   -0.3965708594
 N   -0.0715198093   -0.1567327494   -0.0111431077
 C   -1.2006457354   -0.8191844932    0.6128482596
 C   -0.7808131883   -2.3085136253    0.6607835376
 C   -1.3668766270   -3.0754468329   -0.5243646829
 O   -0.9137963832   -4.4164916623   -0.4457304253
 C    0.7566166383   -2.2550224522    0.6021233155
 C    1.0857823153   -0.8960629648   -0.0119675369
 O    2.1644431614   -0.5123890309   -0.4160242719
 H    0.8783551203    1.4852772693   -0.7990812404
 H   -0.8694235510    1.4131668960   -1.1616035738
 H   -0.3189350053    1.8837297333    0.4619066560
 H   -1.3930413236   -0.4156076854    1.6185090340
 H   -2.1151983738   -0.6641326205    0.0245235757
 H   -1.1361603421   -2.7852373411    1.5774966783
 H   -2.4668839057   -3.0243681604   -0.4846054554
 H   -1.0467732621   -2.5967891365   -1.4643500661
 H   -1.1808112665   -4.8762159058   -1.2466971627
 H    1.2113105136   -2.2954963053    1.5978626253
 H    1.1881619186   -3.0684649929    0.0173118708