18

 C   -0.1451322354    1.5703421856   -0.0762703351
 C    0.0815295347    0.0583489746    0.0108113837
 N    0.6862664323   -0.5057134092   -1.1838735301
 C    0.0456007742   -0.6915867050   -2.4221023565
 C    0.8882087511   -1.0879137392   -3.3812557254
 C    2.2645988139   -1.2298511912   -2.7780315841
 O    3.3282636199   -0.5794476149   -3.4413467262
 C    2.0464089753   -0.7342616111   -1.3168632344
 O    2.8797968908   -0.5582019246   -0.4588483420
 H    0.8048086057    2.0929497980   -0.2191052796
 H   -0.8088477005    1.8289909359   -0.9077308214
 H   -0.6031359054    1.9374684246    0.8473347162
 H    0.7650014395   -0.1739650257    0.8314120767
 H   -0.8636712826   -0.4620031404    0.2033663856
 H   -1.0219941932   -0.5243770038   -2.4800083052
 H    0.6355797143   -1.3272052127   -4.4026623666
 H    2.5647602147   -2.2845038590   -2.7236528688
 H    3.1102764707    0.3573262483   -3.5004966067