17

 O    0.2521496091    1.0460062161   -0.8370156831
 C   -0.0214611512    0.2459629539    0.3048256618
 C   -1.3420648252   -0.3816968210    0.2797849643
 C   -2.4473864201   -0.8624372335    0.2386917034
 C   -3.7701723486   -1.4170044611    0.2035304548
 C   -4.3255987144   -1.9999866426   -1.0674877480
 C   -4.0014650173   -2.9361735623    0.0772750465
 C   -2.8397373698   -3.8490590284   -0.0538475101
 O   -2.8034177059   -4.9622498493    0.4082330586
 H   -0.4723414690    1.6734828887   -0.9297106458
 H    0.7593381726   -0.5225199206    0.3224419096
 H    0.0845504112    0.8244256241    1.2365857978
 H   -4.4888022684   -0.9288911422    0.8556340282
 H   -5.3718312537   -1.8343662111   -1.2951700097
 H   -3.6653282449   -2.0209587117   -1.9274776123
 H   -4.8255284640   -3.3429839704    0.6523320765
 H   -1.9857742303   -3.4290692086   -0.6293587425