14

 C   -0.1098861885    1.4694996928   -0.0193071313
 N   -0.0284901156    0.0224545179    0.0595287638
 N    0.1156158465   -0.6204488633   -1.1624350383
 N    0.1565899657   -1.8637004244   -1.1977637284
 C    0.0122163688   -2.6590416717    0.0258402495
 O   -0.1193590648   -3.8484995950   -0.0986171736
 N    0.0654127974   -1.9977011596    1.2349681020
 C    0.0235426042   -0.6993655297    1.2184464251
 N   -0.0158500280   -0.0102356269    2.3954768850
 H    0.7880935783    1.9489245072    0.3887478184
 H   -0.1896946138    1.7233546803   -1.0763950858
 H   -0.9926118683    1.8344563782    0.5134383069
 H    0.1572497566   -0.5895679449    3.2041081009
 H    0.3363664015    0.9316318390    2.4386518858