21

 C   -0.1181188747    1.5105927258    0.0519726522
 C    0.0318566339   -0.0142719685   -0.0287562321
 C    0.6982806049   -0.4156078248   -1.3542927800
 C    0.8796888546   -1.9214898912   -1.5757426745
 C    1.7195591867   -2.6286199313   -0.5131529762
 O    0.9908415607   -2.9485209317    0.6789505255
 C    0.5484366584   -1.9948571245    1.5356157823
 O   -0.0537409203   -2.3417271899    2.5163415473
 C    0.8120895339   -0.5344293938    1.2044922240
 H    0.8623319157    2.0016544729    0.0611165453
 H   -0.6752619227    1.8963865738   -0.8078641820
 H   -0.6497724580    1.8095940012    0.9604132661
 H   -0.9741677232   -0.4549482806    0.0026973428
 H    0.1119120426   -0.0034675247   -2.1841077543
 H    1.6828288708    0.0721376285   -1.4071964696
 H   -0.0923365247   -2.4269623075   -1.6309760099
 H    1.3678759610   -2.0785899867   -2.5452660076
 H    2.0480685247   -3.6031234563   -0.8815819685
 H    2.6187405665   -2.0489480724   -0.2672704345
 H    1.8858479794   -0.3572138746    1.0620883550
 H    0.5061179798    0.0150529664    2.0963594989