23

 C   -0.2662250607    1.4170128862    0.1513284296
 C    0.0550013259   -0.0539958918    0.0116186555
 C   -0.4094463718   -1.0065844729    1.0920720800
 C    1.0666458981   -0.7537099265    0.9065152991
 C    1.8702945960   -1.7622150568    0.0922545396
 C    1.2204741100   -1.7996177889   -1.3088158263
 C    0.0656474523   -2.8020611463   -1.6161958308
 C   -0.8832743967   -1.6082075395   -1.9291236008
 C    0.2001697187   -0.6176905484   -1.4023475029
 H    0.4619913665    2.0366237546   -0.3857705806
 H   -1.2586807926    1.6495684267   -0.2535734568
 H   -0.2591926049    1.7285388901    1.2009971635
 H   -0.8836182194   -0.5611951637    1.9612983801
 H   -0.8198734814   -1.9746847186    0.8264882760
 H    1.5835033272   -0.2003845433    1.6848569791
 H    2.9097197378   -1.4222800907    0.0190988920
 H    1.8965422729   -2.7558084165    0.5567096141
 H    1.9762388850   -1.8030759199   -2.0978321190
 H    0.2503998314   -3.4878856379   -2.4469539313
 H   -0.2371227014   -3.4020230993   -0.7532624297
 H   -1.0807552557   -1.4928768273   -2.9979859138
 H   -1.8407711239   -1.5929038571   -1.4022809335
 H    0.4562896768    0.1912117779   -2.0929057931