16

 C   -0.1343032867    1.5636364117    0.2601280602
 C    0.0742956169    0.0957215752    0.0944489583
 O   -0.7396718600   -0.8285231093    0.8118348619
 C    0.6788815179   -0.9425177549    0.9330921563
 C    1.2338292608   -1.6857836150   -0.3269064823
 N    0.1382746209   -2.0420905798   -1.1991519336
 C    0.5920158480   -0.6278871320   -1.2099025873
 C    1.2376171689   -0.0750370648   -2.3987967441
 O    1.6228202716   -0.7580692601   -3.3264695588
 H    0.7425027471    2.1259602736   -0.0776179246
 H   -0.9978816290    1.9008359740   -0.3236516078
 H   -0.3155730509    1.7977458235    1.3120676402
 H    1.1196142361   -0.9138765791    1.9220469170
 H    2.2345322093   -2.0840365939   -0.4391384209
 H    0.5428416330   -2.4444067562   -2.0492743479
 H    1.3697855661    1.0274341570   -2.4033485766