22

 C   -0.0925379573    1.5848852930    0.1669671551
 C   -0.0997564744    0.0705845936    0.1028750859
 C   -1.3905125314   -0.5443889016   -0.4061165290
 O   -1.5787447550   -0.3708520902   -1.8053698968
 N    1.1701576246   -0.5316493633   -0.3589673986
 C    0.7567718360   -0.7264129905    1.0272842615
 C    1.5599200625   -0.2373367187    2.2410734234
 C    0.9548098178   -1.4140529575    3.0614103151
 C    0.4221425462   -2.0474551091    1.7423044704
 H    0.8837541557    1.9555901781    0.4844961887
 H   -0.2947643504    2.0219393927   -0.8188413234
 H   -0.8529085735    1.9565794074    0.8636371744
 H   -1.3802096110   -1.6273280799   -0.2534741757
 H   -2.2444146550   -0.1403587925    0.1620283204
 H   -1.6310885963    0.5729419999   -1.9856874073
 H    0.9768303472   -1.3627393910   -0.9160162154
 H    2.6368757208   -0.3358595017    2.0778671507
 H    1.3532581974    0.7734053727    2.6016986295
 H    1.6567408074   -2.0172423806    3.6399398680
 H    0.1470418253   -1.0922137409    3.7228429972
 H   -0.6179810426   -2.3835050631    1.7395349062
 H    1.0504634658   -2.8721675267    1.3896294496