23

 C    0.0502600638    1.5717469956    0.0214034378
 C    0.0191886369    0.0329147720   -0.0338823541
 C   -1.4215815373   -0.4998862938   -0.1263363523
 C   -2.2244118570   -0.0396884102   -1.3388548753
 O   -3.4727813803   -0.7196709879   -1.3005976264
 C    0.9316850425   -0.4581204517   -1.2064301754
 C    2.2485698778   -0.7709987133   -0.5402556322
 C    2.1399806042   -0.8049814918    0.7861505300
 C    0.7317843149   -0.5217744953    1.2430923013
 H    1.0754694766    1.9261678683    0.1712028499
 H   -0.3217420053    2.0226462789   -0.9041189453
 H   -0.5606850066    1.9485454769    0.8494395738
 H   -1.3990942656   -1.5965911072   -0.1436454216
 H   -1.9770313088   -0.2166952227    0.7769132868
 H   -2.3721884474    1.0503684986   -1.3120923474
 H   -1.6773143018   -0.2721476530   -2.2668074713
 H   -4.0033741060   -0.4129075673   -2.0414347559
 H    0.5218159628   -1.3583707597   -1.6871982818
 H    1.0245194004    0.2941745271   -1.9994628227
 H    3.1543356597   -0.9724326859   -1.1021121500
 H    2.9438443965   -1.0378458654    1.4761864586
 H    0.6849910891    0.1917868204    2.0752355229
 H    0.2496743306   -1.4417228125    1.6037230108