14

 O   -0.8737571209    0.7292022903    0.2602349871
 C    0.1133936214   -0.1853005390   -0.1779431849
 C    0.9656356551    0.4131844364   -1.2369563439
 N    1.6156694152    0.9000272475   -2.0581340742
 C    0.9494051235   -0.7115591565    0.9040939480
 C    1.6223544412   -1.1253172464    1.8102502479
 C    2.4500310743   -1.6328341549    2.9058222096
 C    1.8731301249   -2.7936594896    3.5846506992
 C    1.4088573917   -3.7457408528    4.1485194699
 H   -0.4318282341    1.4249311816    0.7616317557
 H   -0.4464071598   -1.0083495499   -0.6390665076
 H    3.4433437327   -1.8903528317    2.5134634340
 H    2.6193811305   -0.8270871173    3.6330951578
 H    0.9957794744   -4.5885388778    4.6455350413