20

 C    0.0853693393    1.5661979367    0.0750158828
 C    0.0291494324    0.0351422459   -0.0050325431
 C    0.6955295710   -0.4753875658   -1.2838799219
 O   -0.0090106260    0.0494501915   -2.3994181381
 C    0.6586163818   -0.6472479460    1.2231549050
 C   -0.0781803732   -0.3789083962    2.5136117119
 C    0.5937976622   -0.3903762836    3.8186344928
 O    0.2149236176    0.8412589660    3.2027949347
 H    1.1236991498    1.9104156975    0.1562441333
 H   -0.3484910093    2.0060602861   -0.8254860932
 H   -0.4518681014    1.9424981460    0.9483884426
 H   -1.0254277413   -0.2716464798   -0.0618322127
 H    1.7526850203   -0.1600389449   -1.2967840278
 H    0.6816998440   -1.5778064754   -1.2941621039
 H    0.4646624344   -0.1964877311   -3.1988129768
 H    0.6770586759   -1.7349099857    1.0652414129
 H    1.7004171446   -0.3232559956    1.3423114985
 H   -1.1429067059   -0.6231188135    2.4973567041
 H    0.0378092529   -0.6570736672    4.7165209383
 H    1.6661383511   -0.5779129547    3.8661105507