11

 C   -0.0548311805    1.4603284258   -0.1706864684
 C    0.0710571390   -0.0352448534    0.1122584065
 O    0.5820448614   -0.3331665587    1.4017625561
 C   -1.2763927857   -0.7438302732    0.0305118522
 O   -2.1185577515   -0.4964317481   -0.7916341176
 H    0.9315807179    1.9309139781   -0.2335320422
 H   -0.5771399470    1.6129093948   -1.1183556169
 H   -0.6244431490    1.9477611900    0.6257367034
 H    0.6968752061   -0.5007162032   -0.6715947124
 H    1.4560331563    0.0606665906    1.4785858430
 H   -1.4072321671   -1.5338862727    0.8021118064