18

 C   -0.0511673670    1.6122804069   -0.0509902747
 C    0.0217095092    0.0788520628    0.0119687756
 C    0.7305426707   -0.5735335287   -1.1959095160
 C    1.8477776101   -1.4392559349   -0.5997334494
 O    2.6092009797   -2.1523856782   -1.2133718789
 C    1.8287584362   -1.2452901309    0.8752808837
 C    2.8212018564   -1.9275742665    1.7587721353
 C    0.8240876269   -0.4177726703    1.1939291401
 H    0.9501610957    2.0456225706   -0.1475061542
 H   -0.6470574427    1.9391611794   -0.9088496424
 H   -0.5100385317    2.0245900785    0.8539025182
 H   -1.0061851862   -0.3002724248    0.0981356398
 H    0.0699935503   -1.1915209927   -1.8106466522
 H    1.1758915306    0.1716779645   -1.8636983983
 H    3.8420585873   -1.6386732697    1.4857920244
 H    2.6598144173   -1.6908301894    2.8133220175
 H    2.7669924386   -3.0138977038    1.6286201912
 H    0.5801652187   -0.1043501927    2.2057549104