23

 C    0.6886595177    1.4841127580    0.2127424077
 C   -0.1734619127    0.2659094949   -0.1435680479
 C    0.3784257078   -0.4768532344   -1.3366550006
 O    1.5563599019   -1.2779783318   -1.1289743172
 C    0.3491803490   -1.9351121066   -1.5538476884
 C   -0.2850448237   -2.8887381554   -0.5653325302
 C    0.4343922071   -2.4314114919   -3.0016513125
 C    1.4128748508   -3.5935065245   -3.1683832211
 O   -0.8605482341   -2.7380508830   -3.5130129786
 H    1.7092459697    1.1738263722    0.4559538113
 H    0.7428999819    2.1897192097   -0.6233869517
 H    0.2788617172    2.0179925878    1.0751283940
 H   -0.2396841910   -0.4002331332    0.7208405507
 H   -1.1962172496    0.5871390215   -0.3803106756
 H    0.4350877552    0.1381978381   -2.2394636527
 H   -0.2940422102   -2.4757193591    0.4434541207
 H   -1.3174154151   -3.1038736433   -0.8588966924
 H    0.2654835281   -3.8345395661   -0.5272423963
 H    0.7907066516   -1.5920799551   -3.6089628675
 H    2.3982836871   -3.3160606433   -2.7843916586
 H    1.0762665264   -4.4845913376   -2.6247012246
 H    1.5058105026   -3.8572091066   -4.2254382590
 H   -1.0867408078   -3.6306361703   -3.2320969796