19

 C    0.1317254437    1.5476189144    0.0548791485
 N   -0.0028872115    0.1111391454    0.0970785457
 C   -1.3004409202   -0.4698498631    0.4890505449
 C   -0.5470689606   -1.5470293729    1.3008122964
 C   -1.0427647562   -2.1534616780    2.6225109108
 C   -0.9098316032   -3.5033376093    1.8921454789
 O   -0.4507910020   -2.8479624503    0.6908467466
 C    0.6934594740   -0.6369796371    1.1602139577
 H    1.1679172478    1.8185048119   -0.1745226712
 H   -0.5035016280    1.9586069350   -0.7371261004
 H   -0.1474887223    2.0412338485    1.0073102089
 H   -1.9032909303    0.1862242120    1.1411484642
 H   -1.9203580316   -0.8285310087   -0.3396925171
 H   -0.3761613735   -2.0094102343    3.4753533180
 H   -2.0572355776   -1.8687808329    2.9093202801
 H   -0.1583437631   -4.1932740249    2.2938210918
 H   -1.8442727239   -4.0523834123    1.7264623193
 H    1.6245362986   -1.1256665867    0.8535455453
 H    0.8731350801   -0.0464911368    2.0757102817