18

 O    0.0523336713    1.3874603859    0.0390786365
 C    0.0903480736    0.0069999578    0.0234237202
 C    0.5712573576   -0.9877796794   -1.0670421847
 N   -0.0149903111   -1.9123819856    0.0117532188
 C    0.7046667890   -1.0078319195    1.0247963047
 C   -1.1494870706   -0.8842696495    0.0939605622
 C   -2.2034788045   -0.9388402170    1.2048783189
 O   -3.2652781922   -0.9318377571    0.2284437612
 C   -2.3361221662   -0.9189002986   -0.8749117333
 H    0.9518893771    1.7288347643   -0.0156300023
 H    0.0340048413   -1.0213192832   -2.0174335733
 H    1.6470134097   -1.1216915865   -1.2084893508
 H    1.7895102547   -1.1431177842    1.0258749297
 H    0.2924407083   -1.0601551035    2.0349146243
 H   -2.1963022355   -1.8584827591    1.8037847835
 H   -2.2474448303   -0.0666091822    1.8688799997
 H   -2.4630096806   -0.0341981257   -1.5111670863
 H   -2.4062050815   -1.8269256368   -1.4873340591