16

 N   -0.1188997285    1.5722482563    0.1438946562
 C   -0.1026430794    0.1205910704    0.0046006209
 C    0.5987001652   -0.4857397632    1.2325016719
 O    1.6234300753   -0.1074570549    1.7200373878
 O   -0.1186955108   -1.5279208902    1.7280762031
 C   -1.3628518331   -1.6253363208    1.0509916481
 C   -2.3077341160   -0.4627708216    1.2240492636
 C   -1.4498039457   -0.5809217406   -0.0165946432
 O   -2.0218408887   -0.9005020177   -1.2452794272
 H    0.7714976050    1.8605412003    0.5428817236
 H   -0.1904138256    2.0138381286   -0.7666551523
 H    0.4514118322   -0.2385646550   -0.8798640927
 H   -1.7050280378   -2.6445024935    0.9344094566
 H   -3.3621686651   -0.6823564765    1.0978564582
 H   -2.0671292541    0.3038441271    1.9529675599
 H   -2.5571766629   -0.1512995887   -1.5290264544