21

 C   -0.3427155856    1.4103250889   -0.0568423860
 C    0.0716427187   -0.0560466357   -0.0950093517
 C    1.3864404550   -0.3454801654   -0.8833402878
 C    2.1452033498   -0.6219958808    0.4489710221
 C    0.7781560061   -0.5702248140    1.2020600340
 C    0.5291075691   -2.0117543430    1.5564178480
 C    1.5667430376   -2.7987738961    1.2720062128
 C    2.7324886762   -2.0421445398    0.6666096386
 O    3.2846229401   -2.6619215620   -0.4887798634
 H    0.4893252605    2.0493062812    0.2615886785
 H   -0.6661400109    1.7558063377   -1.0450010511
 H   -1.1707840828    1.5707827213    0.6427022272
 H   -0.7791970748   -0.6718575168   -0.4052776244
 H    1.3188078031   -1.2098097530   -1.5493700161
 H    1.7688027205    0.4923183157   -1.4718157262
 H    2.8607634621    0.1610870924    0.7014270173
 H    0.6908797815    0.0962485375    2.0672954284
 H   -0.4078345412   -2.3472813125    1.9910904265
 H    1.6184750860   -3.8693919301    1.4409247821
 H    3.5778127515   -2.0026593541    1.3653581901
 H    2.5588721476   -2.8528142015   -1.0922591591