20

 C   -0.4675880268    1.3785023154   -0.0689682179
 C    0.0460217413   -0.0614838750    0.0101118084
 C    0.9528745268   -0.4142547732   -1.1631972639
 O    0.8194570882   -0.2734629021    1.1954833730
 C    0.0796689815   -0.4869704452    2.3625825873
 C   -0.4775182150   -1.9112417044    2.6218295632
 O    0.2583128959   -2.0031467185    3.8592463045
 C    0.9590278212   -0.7704370347    3.5903065476
 H    0.3746157523    2.0775303310   -0.0799703437
 H   -1.0531109774    1.5261885136   -0.9819739731
 H   -1.1101887820    1.6302338623    0.7797481654
 H   -0.8132500741   -0.7515367609    0.0168760792
 H    1.8313337870    0.2388733884   -1.1699521608
 H    1.2974238211   -1.4484771829   -1.0834096272
 H    0.4234850208   -0.2922150140   -2.1127456667
 H   -0.6645575412    0.3024105215    2.5260863155
 H   -1.5571159121   -2.0156445341    2.7797432923
 H   -0.1385965895   -2.6465370633    1.8795502218
 H    2.0094735931   -0.9356110466    3.3196404577
 H    0.8979346089   -0.0682387272    4.4288014973