11

 O   -0.1310962543    0.0308788897   -0.0030732264
 C   -0.0055423637    1.2215338601    0.0058803386
 C    1.3512742341    1.9017237418   -0.0029461323
 N    2.4549216227    1.2369918966   -0.0204930448
 C    3.5783989009    2.0320472009   -0.0261352838
 N    3.6324020651    3.3267816080   -0.0158595702
 C    2.4509976389    4.0343301940    0.0028115522
 O    2.2962615797    5.2096248622    0.0142381341
 O    1.2455472264    3.2236083191    0.0090821474
 H   -0.8521332353    1.9349536913    0.0212633156
 H    4.5239409355    1.4939338565   -0.0405494903