21

 C   -0.3076475086    1.3762423844   -0.0463375787
 C   -0.0968609067   -0.1306877371   -0.0159770351
 C    1.0729620087   -0.7067341295   -0.8200468728
 C    1.1010629970   -1.4187272233   -2.1283693771
 C    1.8674800634   -0.1135613967   -1.9356042714
 O    1.7093594895   -1.2515988928    0.3412537127
 C    0.6689657242   -0.7231266203    1.1711914462
 C    0.9640216575   -0.1502216596    2.5174092767
 C    0.1872676877   -1.4558066975    2.3755912897
 H    0.6276118202    1.9093411861    0.1478020379
 H   -0.6878372155    1.6992236245   -1.0214943932
 H   -1.0388363828    1.6849819566    0.7085363240
 H   -1.0379028193   -0.6551703646   -0.2112195883
 H    1.6804781171   -2.3344193184   -2.1786922135
 H    0.2078938188   -1.4107435319   -2.7454828951
 H    1.4991733842    0.7829783172   -2.4240821590
 H    2.9474537311   -0.1770803938   -1.8564994161
 H    1.9896372562   -0.2159457062    2.8644371399
 H    0.4315960946    0.7396581994    2.8378478150
 H   -0.8758004035   -1.4547163657    2.5958843140
 H    0.7041971062   -2.3740345207    2.6332497242