15

 N    0.0019757113    1.6012288471   -0.0249748490
 C    0.0660619643    0.3416050138   -0.0596059769
 N   -1.0494906797   -0.4943455023   -0.1133511895
 C   -2.3924329872   -0.1546620524   -0.1391119228
 O   -2.8637024514    0.9484088453   -0.1195648910
 O    1.1562100825   -0.4882279302   -0.0547693325
 C    2.4387522598    0.1381512091   -0.0031149563
 C    3.4648215161   -0.8909793544   -0.0057593773
 C    4.3384151902   -1.7137543960   -0.0064382999
 H    0.9139317231    2.0454742997    0.0121252249
 H   -0.8288438530   -1.4783905572   -0.1364631630
 H   -3.0029238421   -1.0799859191   -0.1822054491
 H    2.5633322824    0.8033784211   -0.8686659067
 H    2.5168237482    0.7523878927    0.9045480450
 H    5.1095163356   -2.4445077973   -0.0071385459