21

 C   -0.0204302768    1.5884355096   -0.0786064682
 C    0.0775143107    0.0617800288   -0.0447618891
 C    0.7820914265   -0.6014809135   -1.2226085842
 C    2.2969771702   -0.7375504113   -1.0864566439
 C    3.0475988626    0.0613191684   -0.0299918886
 C    2.2552353906    0.1187802779    1.3060887457
 C    0.8846548340   -0.5452387243    1.1313286092
 O    1.1050622183   -1.9109925514    0.7386738280
 C    1.3854343386   -1.8524757386   -0.6434550459
 H    0.9559150000    2.0635351138   -0.2093660983
 H   -0.6536773812    1.9109910541   -0.9113257171
 H   -0.4667584536    1.9796266099    0.8425637947
 H   -0.9396589816   -0.3487656458    0.0075736562
 H    0.3260035563   -0.5773434360   -2.2056919703
 H    2.8329688950   -0.9029609449   -2.0167321181
 H    4.0291423649   -0.3959174174    0.1346405984
 H    3.2439856343    1.0710271537   -0.4083692791
 H    2.7871070647   -0.4251058125    2.0917719261
 H    2.1392252206    1.1492898700    1.6556316753
 H    0.3269050484   -0.5629480768    2.0709336176
 H    1.3728808875   -2.8286208438   -1.1122255583