18

 O   -0.0579103110   -0.0243802833   -0.0008515160
 C    0.0099636049    1.1884509023    0.0326964514
 N    1.1539784561    1.9062711965    0.1000381554
 C    1.3594052940    3.3332438516    0.0311245953
 C    2.6871959814    3.5984477844    0.7158816896
 C    3.1852153194    2.2325737005    1.1841131464
 C    2.5337648068    1.4115230823    0.0410053622
 C    3.0616447158    2.1450135431   -1.2214463554
 C    2.6102049220    3.5435817323   -0.8061950117
 H   -0.8823030921    1.8474235800    0.0279744401
 H    0.5013281784    3.9893446445    0.0525667762
 H    2.8797996238    4.5162052088    1.2546209420
 H    4.2753078639    2.1488938450    1.1871839807
 H    2.7964862281    1.9490057346    2.1659216044
 H    2.5892944636    0.3284042495    0.0749528658
 H    4.1459846712    2.0566704490   -1.3311945044
 H    2.5753870434    1.7913839549   -2.1348467025
 H    2.7446086506    4.4194364343   -1.4262064295