19

 C   -0.1247946322    1.5592273419    0.1425866531
 C   -0.0307504079    0.0311621506    0.0659502091
 C    1.0521055690   -0.4640090104   -0.9596680883
 C    2.0026990622   -0.7520627224    0.2343140191
 C    0.8039327864   -0.6095111193    1.2102948802
 C   -1.4029075233   -0.5803024069   -0.1491859427
 O   -1.9274524253   -1.3507571811    0.6264584464
 C   -2.0675379329   -0.2060663149   -1.3927352037
 C   -2.6058011156    0.0992561483   -2.4256513733
 H    0.8739217487    1.9929804590    0.2554416125
 H   -0.5748637124    1.9761231805   -0.7634046167
 H   -0.7265204861    1.8729549888    1.0023598768
 H    0.7471813854   -1.3732653899   -1.4844996593
 H    1.3777668539    0.2701641000   -1.7004726330
 H    2.5145207038   -1.7164249069    0.2245738850
 H    2.7532443773    0.0308931478    0.3680644541
 H    0.9538383626    0.0096129751    2.0979020562
 H    0.3806915400   -1.5664344425    1.5204196592
 H   -3.0956588735    0.3592405423   -3.3326142448