19

 C   -0.3097641720    1.5657219828   -0.0436866118
 C    0.0651100326    0.1144942831    0.0603239702
 C   -1.0092985495   -0.9866413383    0.1877905852
 O   -0.2792320636   -1.6322449774    1.2622779145
 C    0.7615520759   -0.6403453286    1.2206819966
 C    1.8430874028   -0.9278330196    0.1967186820
 C    3.3289891056   -0.8297954994    0.3195506863
 C    2.6557163238   -2.1539425580   -0.0211091808
 O    1.1216679599   -0.2692349502   -0.8577588404
 H    0.5701451302    2.2023044817    0.0827186633
 H   -0.7380008181    1.7733029550   -1.0308505129
 H   -1.0523712968    1.8326741371    0.7142089797
 H   -1.9949732623   -0.6460592708    0.5294465151
 H   -1.1162691433   -1.6227411111   -0.6970648449
 H    1.0333651950   -0.2588308273    2.2069985062
 H    3.8543072305   -0.3178773369   -0.4795996318
 H    3.7605434807   -0.7001939415    1.3071135574
 H    2.6159950907   -2.9362911618    0.7291987422
 H    2.7459329880   -2.5059700890   -1.0430383361