20

 C   -1.0163645674    1.1698116801   -0.0061481182
 C   -0.0865010889   -0.0340461499   -0.0276562343
 C    1.1795181450    0.0133753474   -0.9312728243
 C    2.0270653382   -0.6147185874    0.2134899936
 C    3.2431752295    0.1961220156    0.7011117989
 C    2.6296373904    1.1454564179    1.7071171522
 C    1.3518342841    0.8655433778    1.9709702448
 C    0.8438920246   -0.3231177966    1.1987024194
 H   -0.4678513664    2.0883631913    0.2283376994
 H   -1.4996217907    1.3088061207   -0.9799419694
 H   -1.8084543918    1.0526624425    0.7425451199
 H   -0.6651033193   -0.9378644923   -0.2498205984
 H    1.1308881786   -0.5408539048   -1.8721351939
 H    1.4913526484    1.0391552434   -1.1537082628
 H    2.2475511966   -1.6709026804    0.0496635390
 H    4.0109842073   -0.4345013402    1.1710368740
 H    3.7427506648    0.7226793105   -0.1231554669
 H    3.1957964801    1.9496313324    2.1662042315
 H    0.7343617017    1.4119986162    2.6766012974
 H    0.4973637851   -1.1244012839    1.8614119480