19

 C   -0.0098840875    1.5790096382   -0.1811854631
 C    0.0053329128    0.0762444714   -0.0171019888
 O   -1.1643085639   -0.5557920968   -0.4780144719
 C    1.2924655490   -0.7103018043   -0.1300630877
 C    0.5687399555   -0.5949200316    1.2002456732
 C    1.1591826926    0.1945678063    2.3557677904
 O    0.1609286707    0.8944254675    3.0968625345
 C    1.9642079610   -0.6745583988    3.2238895112
 C    2.5840703793   -1.4081857749    3.9469541512
 H    0.9138630930    2.0405884548    0.1762120419
 H   -0.1171288012    1.8423122821   -1.2407651297
 H   -0.8475515589    2.0148327730    0.3698753588
 H   -1.2072375859   -0.4319882490   -1.4330673585
 H    1.2574868189   -1.6685529346   -0.6353783833
 H    2.2232556262   -0.1636902128   -0.2495748129
 H    0.0217071254   -1.4822683241    1.5066783784
 H    1.8066173945    0.9855504486    1.9607880297
 H   -0.3948384843    0.2352915582    3.5279322204
 H    3.1458002030   -2.0442978133    4.5855842263