17

 C   -0.0664057158    1.3940735152    0.0753511206
 N   -0.0258895411   -0.0416018708   -0.0879303746
 C   -1.2189527522   -0.8592840043   -0.0260849347
 C   -0.7058737478   -2.2511859403   -0.4921841794
 C    0.7859847433   -2.2387202543   -0.0921701121
 C    1.1489859657   -0.7516447885   -0.0786730282
 O    2.2637755478   -0.2794062963   -0.0457115408
 C   -1.4760198687   -3.3600483553    0.0580129985
 N   -2.0864193446   -4.2360057058    0.5003010404
 H    0.9613231237    1.7576705739    0.0285262598
 H   -0.6567212958    1.8623889108   -0.7203669002
 H   -0.5035868720    1.6744744298    1.0422945360
 H   -1.6317271506   -0.9072845688    0.9919566802
 H   -2.0029387242   -0.4749210464   -0.6865719524
 H   -0.7792078720   -2.2967343425   -1.5836928080
 H    0.9376026445   -2.6419689451    0.9142836831
 H    1.4274243397   -2.7954035115   -0.7755096783