15

 O   -0.0577707783   -0.1864931013    0.1665498053
 C   -0.0630453844    1.0217055423    0.1065111017
 N    1.0430658397    1.7987814603   -0.1165584817
 C    2.3551037288    1.2457299841   -0.2266225598
 C    3.2722907905    1.6697142453   -1.3960397300
 O    4.3620599448    1.9432204927   -0.4807505289
 C    3.5110957490    1.8166232193    0.6670431176
 C    3.1951245872    3.1103984652    1.2836211823
 N    2.8873198031    4.1294922027    1.7343629820
 H   -0.9771559521    1.6343096959    0.2163945633
 H    0.9374258127    2.8024553143   -0.0827735949
 H    2.2589215373    0.1664463681   -0.1186547367
 H    3.5362161117    0.9000782099   -2.1263937710
 H    2.9402994541    2.5766569420   -1.9168684366
 H    3.9257679460    1.1397447293    1.4206581973