19

 C    0.2073112309    1.5449852418    0.1513977918
 C    0.0357139384    0.0728116284   -0.0145080904
 C   -0.1575480275   -0.7338695021   -1.1132865327
 N   -0.2587128193   -2.0579073342   -0.7252931476
 C   -0.1302357003   -2.0576261858    0.5783980990
 N    0.0506163580   -0.7984943074    1.0631199315
 C   -0.2567509133   -0.3478959554   -2.5343970756
 C    0.3003194212   -1.2641602233   -3.6053159626
 C   -1.1863915561   -1.1079255449   -3.4589743634
 H    1.1726677909    1.8014486546    0.6060737797
 H    0.1634610990    2.0404689835   -0.8207259856
 H   -0.5775882399    1.9860152238    0.7789941972
 H   -0.1581672111   -2.9258941308    1.2201944328
 H    0.1700774037   -0.5406521957    2.0283925816
 H   -0.1631758853    0.7170078776   -2.7212488196
 H    0.7907593688   -0.8097925985   -4.4594758304
 H    0.7388384174   -2.1932258622   -3.2602203624
 H   -1.7317144370   -1.9336239484   -3.0169224720
 H   -1.7282430587   -0.5451992310   -4.2115005515