19

 C    0.0349100526    1.5596144627    0.1069163817
 C   -0.0458703071    0.0249918199   -0.0090578186
 C   -1.5016526144   -0.4699352767    0.0388104399
 O   -2.0403417595   -0.0890248628    1.2938967732
 C    0.6112226528   -0.4626742293   -1.2201661423
 C    1.1374270310   -0.8386913453   -2.2367206930
 C    1.7674246797   -1.3588147253   -3.4418966735
 C    1.7984679884   -2.8886672067   -3.4634265293
 O    1.6110892287   -3.5462064061   -4.4502904906
 H    1.0753627883    1.8910979194    0.1495892674
 H   -0.4376738515    2.0348397157   -0.7585623155
 H   -0.4822351363    1.8863364152    1.0110713645
 H    0.4590146097   -0.4117161705    0.8636087322
 H   -2.0622686177   -0.0237112645   -0.7972175049
 H   -1.5177173213   -1.5617142808   -0.0923314477
 H   -2.9676392323   -0.3413196898    1.3147631638
 H    1.2742536731   -1.0148043117   -4.3569631064
 H    2.8145082540   -1.0222421722   -3.4979937028
 H    2.0239354318   -3.3526592912   -2.4785386883