14

 C   -0.1138073763    1.6633385423    0.2111500341
 C    0.0107786866    0.1649807797   -0.1163515524
 C    0.7526626144   -0.6401591057    0.9684346864
 C    2.1371400061   -0.2066350908    1.1303682315
 N    3.2298748303    0.1526398046    1.2423110644
 C   -1.3628688658   -0.4305971532   -0.3644451332
 O   -1.8059506604   -1.3950215077    0.2036963200
 H    0.8759427646    2.1166447569    0.3043937585
 H   -0.6563170310    2.1924466984   -0.5781029766
 H   -0.6506453334    1.8153109423    1.1533833611
 H    0.5565631484    0.0737100014   -1.0672804613
 H    0.2311089183   -0.5409052575    1.9265599858
 H    0.7324139697   -1.7057350796    0.7211673476
 H   -1.9587263115    0.1099256889   -1.1343028060