14

 O   -0.0330926862    1.4449716508    0.0992549333
 C    1.4376535869    1.4153163496   -0.0181321743
 C    1.9517276859    1.2514242865    1.3807623173
 C    1.4958434066    0.1445882098    1.9807605157
 C    0.7882935560   -0.7842992722    1.0402393812
 O    1.7738562557   -1.1177910625   -0.0062833041
 C    1.3098680509   -0.0137274707   -0.7556761615
 C   -0.0465073404    0.0419472747   -0.0655977422
 H    1.8111518647    2.2712510632   -0.5796341054
 H    2.5704813541    2.0032911810    1.8562370091
 H    1.6677436906   -0.1121571918    3.0193980149
 H    0.3492584693   -1.6812722766    1.4762407059
 H    1.5397517515   -0.0562150519   -1.8207181068
 H   -1.0022812855   -0.3701272197   -0.3906463030