17

 O   -0.0694770529   -0.0703495613   -0.4168721224
 C   -0.0175744618    1.1379612309   -0.3065616122
 N    1.1279455780    1.8445602786   -0.1626963161
 C    2.4187926891    1.1965531267   -0.1280405158
 C    3.4912213048    2.2252879218    0.0388510424
 N    3.3042260104    3.4774612616    0.1360262774
 C    4.6345024785    4.0877939685    0.2843144345
 C    5.6176804887    2.8874064934    0.2483000784
 O    4.7524331345    1.7363015416    0.0852837157
 H   -0.9123472854    1.7909378673   -0.3126248763
 H    1.1265816399    2.8505942554   -0.0740480714
 H    2.4786752088    0.4708172732    0.6931637085
 H    2.6023108750    0.6240845707   -1.0463252504
 H    4.8117866905    4.8000413207   -0.5278316692
 H    4.6873186989    4.6455101815    1.2247758639
 H    6.3116637497    2.9126495336   -0.5956598123
 H    6.1860036232    2.7566807258    1.1726590952