20

 C    0.0666661080    1.6501340303    0.1990579650
 C    0.0081498993    0.1248351020    0.0006874337
 C    0.8091959508   -0.4339403806   -1.1971610048
 C    0.8825093158    0.4268599948   -2.4470839487
 O    1.6571219499   -0.2924108265   -3.3978658585
 C    2.1784489066   -0.7195097983   -0.5630921273
 O    1.8987113850   -1.0539302421    0.8064271248
 C    0.6734734522   -0.5766551342    1.1744572655
 N    0.1764996454   -0.6860861685    2.3301901716
 H    1.0969274046    2.0171440354    0.2561115356
 H   -0.4379674883    2.1772476777   -0.6162588019
 H   -0.4308733321    1.9086205883    1.1367340279
 H   -1.0404373039   -0.1779801031   -0.0417415883
 H    0.3681251127   -1.3948405714   -1.4868209899
 H   -0.1327362804    0.6257822443   -2.8252446903
 H    1.3453408428    1.3980538365   -2.2158622390
 H    1.7487506039    0.2489339858   -4.1872684622
 H    2.7048935882   -1.5591261151   -1.0180313493
 H    2.8341772008    0.1611665061   -0.5922826166
 H    0.8244976686   -1.1686089814    2.9554781028