19

 C   -0.2476659146    1.2983997750    0.3990979513
 N   -0.2239377614   -0.1567687621    0.3554435752
 C    0.7041320434   -0.7409965340    0.9758685444
 N    1.8194886279   -0.3366871261    1.7204214028
 C    2.1756326990   -1.6966298454    2.1566127913
 C    1.6952100800   -2.1352467028    3.5454769790
 C    0.2031661153   -2.4473887985    3.3155411525
 O    0.1297720249   -2.9612968311    1.9877007014
 C    1.0399199105   -2.2277692018    1.2080189488
 H    0.7549822373    1.7525073381    0.3672321728
 H   -0.8171025303    1.6776967645   -0.4539488808
 H   -0.7497965927    1.6585795656    1.3084612343
 H    1.9113892439    0.5064199871    2.2686606703
 H    3.2113589699   -1.9669049826    1.9410962707
 H    2.2309681556   -3.0426630436    3.8417286761
 H    1.8590800699   -1.3769540661    4.3163878824
 H   -0.1987870379   -3.2067735585    3.9895166979
 H   -0.4091290168   -1.5390789822    3.4110894837
 H    1.3002470961   -2.8091855854    0.3235878257