18

 C   -0.1913611327    1.5783385138    0.0379344152
 C    0.0947165420    0.0816856211    0.0209919534
 C    1.2073194949   -0.4938903123   -0.9161695683
 C    1.8192000503   -1.2474690498    0.2799969015
 C    2.2994942853   -2.5873189459    0.2598295441
 N    2.6951675430   -3.6761397489    0.2394590078
 C    2.2198692323   -0.2610563182    1.3613953414
 O    2.7057641657    1.0071238302    1.0560856526
 C    0.7739072254   -0.5748190379    1.2355000383
 H    0.7185851048    2.1529183930    0.2171749851
 H   -0.6239245635    1.8951073310   -0.9175285206
 H   -0.9132505336    1.8256916512    0.8240686978
 H   -0.8325378924   -0.4641698499   -0.1786182971
 H    0.8230413648   -1.1580161657   -1.6904385406
 H    1.8784042534    0.2405767581   -1.3678331510
 H    2.6964949878   -0.7392725608    2.2172417251
 H    3.6367213841    0.9257331548    0.8203629454
 H    0.2433979786   -1.0435919137    2.0565343698