19

 C    0.0580944571    1.5602365219    0.0172069226
 C    0.0045609261    0.0277889750    0.0521575121
 C   -1.4087637673   -0.5440174975    0.0584670117
 O   -2.1853775574   -0.1131619725   -1.0493042665
 C   -1.5993006174   -2.0514714737    0.2067555522
 C   -1.6292294429   -2.2987572264    1.7246496342
 O   -1.3835589981   -1.0539858190    2.3901991857
 C   -2.2483755263   -0.4591451847    1.3833497194
 C   -2.8681095183   -1.8599640621    1.0334087866
 H    1.0912963518    1.9145832647    0.0718280086
 H   -0.3669788289    1.9637806352   -0.9091095084
 H   -0.4828771918    2.0014657258    0.8621953361
 H    0.5354096219   -0.3808263874   -0.8164746308
 H    0.5136543216   -0.3378435650    0.9482057529
 H   -2.2168337467    0.8491470325   -1.0279801183
 H   -1.3739546804   -2.8237430231   -0.5177518690
 H   -1.3378970425   -3.2220711433    2.2072707408
 H   -2.7519192754    0.4508458617    1.7068526337
 H   -3.8705519650   -2.2521520821    0.9478699164