17

 O   -0.1899552243    1.4941618254   -0.1971280886
 C    0.0926620411    0.1088251445   -0.0028397525
 C   -1.1992918157   -0.7725602826    0.1620871381
 C   -1.4217083766   -1.6047633901   -1.1513238119
 C   -0.0869188341   -1.4376218198   -1.7952770581
 C    0.7427427002   -0.5459054981   -1.1830699015
 N    1.9401413264   -0.4259135029   -1.8504156925
 C    1.8242971349   -1.2549544302   -2.8635775659
 N    0.6053765351   -1.8996869931   -2.8849156116
 H   -0.3784016070    1.6205949638   -1.1329747569
 H    0.6951822320    0.0780013270    0.9100443134
 H   -1.0614757579   -1.4615593219    1.0003106555
 H   -2.0503463622   -0.1307992433    0.3997458677
 H   -1.6808802934   -2.6450004416   -0.9250507091
 H   -2.2386299916   -1.2050201135   -1.7658503852
 H    2.5766174293   -1.4447409907   -3.6153688854
 H    0.3074246037   -2.5804707727   -3.5632617656