21

 C   -0.1093541978    1.5782904976   -0.0390879489
 C    0.0472273174    0.0562732740    0.0180784352
 C    0.8130242216   -0.5698865577   -1.1411168152
 C    2.3033815484   -0.8651069776   -1.0000665448
 C    1.2533575483   -1.9583818783   -0.7988986103
 C    1.4889863419   -1.8360012675    0.7277968122
 C    2.7459205202   -0.9498039517    0.4810490622
 C    2.2015610887    0.1330974076    1.4298623420
 C    0.7904209847   -0.5050757069    1.2484554560
 H    0.8540350754    2.0864161776   -0.1361551748
 H   -0.7202142190    1.8691477674   -0.9005242197
 H   -0.6040904438    1.9618142597    0.8598606109
 H   -0.9615458885   -0.3825912119    0.0089571052
 H    0.4834482195   -0.3727248428   -2.1571340958
 H    2.9697142516   -0.7117969569   -1.8413221008
 H    1.0410123783   -2.8502413677   -1.3743803325
 H    1.5046998429   -2.7124265209    1.3716742115
 H    3.7565619646   -1.3409678615    0.6116141519
 H    2.5755967110   -0.0203909383    2.4471465569
 H    2.3368304624    1.1851111068    1.1655510632
 H    0.1587314021   -0.5596666009    2.1371927955