21

 C    0.0911970139    1.5074167068   -0.0606977520
 C   -0.0051792308   -0.0201442555   -0.0200757093
 C   -1.4477056740   -0.5434646780    0.0260594632
 C   -2.2959819386   -0.1936127348   -1.2081783488
 N   -1.7684938765   -0.6997782160   -2.4906394757
 C   -2.8473791700   -1.4403497701   -1.8046397459
 C   -2.3831106526   -2.6099083809   -0.9600225977
 N   -0.9217616653   -2.8299964752   -0.9538987730
 C   -1.5478814864   -2.0719364076    0.1471920248
 H    1.1350790242    1.8363856158   -0.0731085102
 H   -0.3917728988    1.9127298858   -0.9560806576
 H   -0.3895202969    1.9650410929    0.8123180132
 H    0.4778157155   -0.4547082313   -0.8997499234
 H    0.5357346702   -0.3968297751    0.8576024506
 H   -1.9593881352   -0.1151966814    0.8996837515
 H   -2.8561602048    0.7367335185   -1.2109099293
 H   -2.1746880609   -0.1589642975   -3.2511172266
 H   -3.8330848858   -1.4813298959   -2.2559226238
 H   -3.0489692158   -3.4561994384   -0.8286262834
 H   -0.7354181649   -3.7783970887   -0.6350756201
 H   -1.5524708668   -2.5129373636    1.1402087536