16

 C   -0.0507668150    1.5215123868    0.0105745135
 C    1.4175945317    1.8865511739   -0.0013095584
 C    2.1888481247    0.7867418661   -0.0145133741
 C    1.3336306658   -0.4035356508   -0.0129301951
 N    1.7377693168   -1.6728388680   -0.0236114823
 C    0.7593681168   -2.5890030748   -0.0193240796
 C   -0.6003389277   -2.2855649742   -0.0048457477
 C   -1.0050303440   -0.9463782328    0.0062364241
 C   -0.0141037591    0.0154468803    0.0020862327
 H   -0.5639070297    1.9234308634    0.8948179677
 H   -0.5804878285    1.9329341700   -0.8594036050
 H    1.7650452410    2.9117659445    0.0009589567
 H    3.2700327997    0.7452240567   -0.0249205913
 H    1.0813741954   -3.6277301319   -0.0280005241
 H   -1.3315815817   -3.0860261790   -0.0022830636
 H   -2.0589220863   -0.6841543403    0.0176047463