23

 C   -0.0112572371    1.6433464059    0.0108224715
 C   -0.0257594348    0.1168101809    0.0072012935
 C    1.1433741184   -0.5270579387   -0.8004491067
 C    1.9236498190   -0.7319121796    0.5284180520
 C    0.5776227837   -0.5387644178    1.2788268302
 O    0.5462980061    0.2601766509    2.4342270559
 C    1.1054791859   -0.3512344997    3.5851661941
 C    0.8113351689    0.5734330120    4.7560702815
 O   -0.5787877896    0.7694354041    4.9194983071
 H    0.9808798151    2.0393461884    0.2482668419
 H   -0.3000686154    2.0257659911   -0.9738755709
 H   -0.7093373637    2.0438982642    0.7512939232
 H   -1.0272966227   -0.2389224824   -0.2523563297
 H    0.8591408232   -1.4744513961   -1.2653281065
 H    1.6137961268    0.1039927791   -1.5582828278
 H    2.4603200823   -1.6728004752    0.6690542987
 H    2.6036538265    0.0992462773    0.7347705209
 H    0.1052931764   -1.5118727903    1.4853212211
 H    0.6380788527   -1.3344973369    3.7548593058
 H    2.1903391716   -0.5003233347    3.4685158645
 H    1.1904882801    0.1301977409    5.6828244401
 H    1.3375410537    1.5287218869    4.5981985995
 H   -0.9130445571    0.9822461697    4.0399688203