17

 C    0.0243857797    1.4584526429   -0.2326330972
 C    0.0261744985   -0.0117865537    0.1901862689
 O    0.6120374334   -0.1878404160    1.4734360986
 C   -1.3686907857   -0.6085705393    0.1393853891
 C   -1.9359727529   -1.1579587358   -1.1342052580
 C   -1.5769995265   -2.1092732576   -0.0006653861
 C   -0.4547548879   -2.9929415017   -0.1554181901
 N    0.4391128438   -3.7143681721   -0.2939252683
 H    1.0367785616    1.8657866789   -0.1724596161
 H   -0.3428784681    1.5776060418   -1.2565134026
 H   -0.6236952052    2.0516099030    0.4252290899
 H    0.6740497819   -0.5810968818   -0.4862014565
 H    0.1406119318    0.3769235806    2.0960373770
 H   -2.0782148444   -0.1281747208    0.8106087208
 H   -2.9886912048   -1.0204570203   -1.3515613102
 H   -1.2922080978   -1.1800778664   -2.0067352486
 H   -2.3992542973   -2.5425017217    0.5584240294