16

 O    0.6233671892    0.1683816695    0.4300991845
 C    0.7737052737    1.2068929439   -0.1346031048
 O    0.3673670979    2.3829683681    0.4052610792
 C    0.6792873019    3.5609951595   -0.3139797576
 C    2.1631565759    3.9181658200   -0.1898706325
 O    3.0116558041    3.0785647609   -0.0013501153
 N    2.4318902307    5.2543334164   -0.4545160188
 C    2.1439190030    6.3520673051    0.4617237937
 C    3.5513291189    5.9464331431    0.1437679481
 H    1.2159700266    1.3238832425   -1.1397282378
 H    0.4462455949    3.4568886065   -1.3830765181
 H    0.0431771948    4.3527104915    0.0855131820
 H    1.7162576554    7.2436067981    0.0127024912
 H    1.7608739927    6.0996193760    1.4474366988
 H    4.1113166698    5.4037160856    0.8997457224
 H    4.1440246104    6.5543497533   -0.5326013750