23

 C    0.5523173805    1.4554940816    0.1668755194
 C   -0.0144351231    0.0312291778   -0.0227482883
 C    0.3365986842   -0.5244313520   -1.4065162893
 C    0.5558005014   -0.8583790994    1.0870222535
 O    1.5863071462   -1.4780859931    0.9066949842
 C   -0.1441002516   -0.9128542938    2.4213599666
 C   -1.4876530651   -0.2326031866    2.6072007291
 C    0.1132404774   -2.1956330528    3.2053428367
 C    0.8106158486   -0.9444395644    3.6159779144
 H    1.6413701681    1.4450582703    0.0568593022
 H    0.1383854964    2.1317752869   -0.5872931026
 H    0.3181166549    1.8664797923    1.1536157251
 H   -1.1031304314    0.0823340518    0.0820181941
 H    1.4185348649   -0.6349342604   -1.5080626567
 H   -0.1130296387   -1.5091515147   -1.5654128624
 H   -0.0258637498    0.1471546788   -2.1910832808
 H   -2.2572614767   -0.6627480116    1.9569244031
 H   -1.8305020061   -0.3564423349    3.6389204363
 H   -1.4421045659    0.8430988923    2.4083788273
 H   -0.7048260323   -2.5634194816    3.8150904464
 H    0.7036731423   -2.9502073706    2.7000087030
 H    1.8665892248   -0.8650100914    3.3868231871
 H    0.4833391410   -0.4292940645    4.5127161315