17

 N    0.2994731595    0.9790641649    0.1147285375
 H    0.2998463085   -0.0281056242    0.4360085292
 H    1.2417998896    1.3660484504    0.0844955275
 H   -0.1314393639    1.0824165576   -0.8030312005
 C   -0.5419967414    1.5815173181    1.2241656493
 C   -1.7044931991    0.6425910341    1.6083420484
 N   -0.6239382259   -0.3800617917    1.9780314031
 C   -0.1867845487    0.9561469750    2.5892006586
 C   -1.6476265276    1.2749739803    3.0329367495
 C   -2.1267413519    2.7596348575    3.2997189409
 O   -2.8093151312    2.8757738183    4.3187319085
 O   -1.7530210712    3.6099254907    2.4498750149
 H   -0.7387461602    2.6576737635    1.1845158789
 H   -2.5694616811    0.3669490446    1.0033472934
 H   -0.9617336187   -1.0140454172    2.7033774319
 H    0.7463139116    1.0519845446    3.1462558675
 H   -2.0111092484    0.5990542934    3.8114523415