17

 C    0.0741899127    1.4859953990   -0.2314259186
 N    0.0369934750    0.0442417437   -0.0040952293
 C   -1.0773290053   -0.4853953886    0.8563961793
 C   -0.2064843378   -1.7368842286    1.1399404931
 N   -0.5568527735   -2.2171761457    2.4633405219
 C   -0.6010964430   -1.0665374809    3.2481609137
 O   -0.7031100957   -0.9899781667    4.4469914591
 C   -0.4305111258    0.0286985347    2.1995078151
 C    0.7168224383   -0.4736197711    1.2277934381
 H    1.0598135574    1.7530710031   -0.6257977641
 H   -0.6673789536    1.7393296222   -0.9957621128
 H   -0.1199453843    2.1112081003    0.6536548583
 H   -2.1278020905   -0.4466559779    0.5619242152
 H   -0.0529911119   -2.4827297528    0.3651733196
 H   -0.1825561413   -3.0721788474    2.8461410542
 H   -0.5056111656    1.0571116806    2.5366495297
 H    1.7971954049   -0.4124098039    1.3762285976