20

 C   -0.1221071757    1.4814290768   -0.1135786274
 C    1.2696953037    0.9487679404    0.0988820031
 C    0.1111784193   -0.0104092076   -0.0301474733
 C   -0.3604192430   -0.7586892586    1.1819822076
 C   -1.7341897458   -1.4657401127    1.2437489069
 C   -1.6877118057   -2.4640418934    0.0560857516
 C   -0.5289219240   -3.1211516455    0.8042422416
 C   -0.9718905695   -2.5525770333    2.0974913369
 N    0.3061691852   -2.0745891034    1.5033254649
 H   -0.6152042887    1.9634951359    0.7246482448
 H   -0.3742382570    1.9072067803   -1.0782744032
 H    1.9768195079    1.0083790551   -0.7207032519
 H    1.7168292667    1.0662939973    1.0802839023
 H    0.0565095378   -0.5541643859   -0.9674311097
 H   -0.2247489308   -0.1302125681    2.0703815911
 H   -2.6514187014   -0.9349022139    1.4928488904
 H   -2.5607290992   -3.1220480186    0.0620682377
 H   -1.5346446374   -2.0707767167   -0.9536750754
 H   -0.0300681994   -4.0593009071    0.6005319274
 H   -1.0719513129   -2.9505614509    3.0984001146