20

 C   -0.1023534960    1.5639905656    0.0080560285
 C    0.0261986614    0.0389026108   -0.0084138184
 C    0.7245789039   -0.4929703645   -1.2527556533
 C    0.9126887481   -2.0132585221   -1.2461816398
 C    1.3526112498   -2.5403296772   -2.5926599298
 N    2.0973534487   -3.5562829028   -2.7014065341
 O    0.8129138716   -1.9121635211   -3.6845390779
 C    0.5575876530   -0.5079268663   -3.5698431344
 O   -0.0763914291   -0.1546469459   -2.3911314711
 H    0.8823574947    2.0443902790    0.0027045300
 H   -0.6525107188    1.9146793151   -0.8687261062
 H   -0.6328516632    1.9020208817    0.9027906483
 H    0.5875157208   -0.3058052293    0.8683704164
 H   -0.9660956204   -0.4249369039    0.0491901046
 H    1.7072728807   -0.0010767416   -1.3628739862
 H    1.6337484785   -2.3352087690   -0.4929052644
 H   -0.0538326725   -2.4759205115   -1.0086157012
 H    2.2468286778   -3.7739572983   -3.6894316567
 H    1.5204907003    0.0209454269   -3.6721168958
 H   -0.1046173092   -0.2562409356   -4.3996349183