21

 C    1.0168804690   -0.5744580268   -0.8160599792
 C    0.0438010608    0.1799040066    0.0985437198
 C   -0.1545285345    1.6257266297   -0.3898666644
 C   -1.3157103535   -0.4891674747    0.2291200251
 O   -1.9020876863   -1.0609137688   -0.9615034414
 C   -1.6093241953   -1.9183258431    0.1235614367
 C   -0.7677393694   -3.1918843056    0.0375103242
 O   -1.8058710348   -3.9354062743    0.7115753487
 C   -2.6669158135   -2.7796760902    0.8094414323
 H    1.9270981604    0.0140420251   -0.9643400875
 H    1.3169834044   -1.5388293862   -0.3984882049
 H    0.5609695928   -0.7519473633   -1.7938559628
 H    0.4666746458    0.2206898805    1.1129629001
 H    0.8002139717    2.1590194644   -0.4254866692
 H   -0.5866858404    1.6363231696   -1.3961772483
 H   -0.8272549044    2.1832602875    0.2701525363
 H   -2.0310837850    0.0989346318    0.8112395835
 H   -0.5856250864   -3.5486140242   -0.9836574403
 H    0.1707367485   -3.2038589951    0.6040443415
 H   -2.9076001114   -2.5296250717    1.8503746436
 H   -3.5940634286   -2.8943710312    0.2340653664