23

 C    0.0260009614    1.5697961449    0.0577052380
 C    0.0939209062    0.0395660004    0.0384482941
 C    0.8007537459   -0.4995465804   -1.2188340995
 O    2.1323822634    0.0483993928   -1.2264792876
 C    0.8339643169   -2.0337594101   -1.2385461412
 C    1.4582135225   -2.6119631314    0.0389528460
 C    0.7488619232   -2.0754556384    1.2886509868
 C    0.7343544172   -0.5361423334    1.3239900247
 O    2.0330480408   -0.0086794605    1.5625937463
 H    1.0239488720    2.0051048563    0.1336213892
 H   -0.4483378989    1.9537905650   -0.8519072513
 H   -0.5584575502    1.9174344993    0.9156071197
 H   -0.9315377483   -0.3528355002   -0.0064066902
 H    0.2655329963   -0.1351168049   -2.1092131925
 H    2.6222816115   -0.3547324331   -1.9502301974
 H   -0.1962960547   -2.3966367373   -1.3511463850
 H    1.3771503461   -2.3766917938   -2.1299948497
 H    1.4196705890   -3.7058849771    0.0143872528
 H    2.5185751146   -2.3382897026    0.0834413652
 H   -0.2873309565   -2.4409778197    1.3124938795
 H    1.2412854750   -2.4407350659    2.1953808975
 H    0.1276330939   -0.2152082214    2.1805952148
 H    2.4788693030    0.0362611715    0.7056964197