19

 C   -0.3577251469    1.4010919913    0.0659275274
 C    0.1250709058   -0.0322770479   -0.0163386388
 O    1.3634607740   -0.1630675462   -0.7692740049
 C    2.0372667179   -0.8135282497    0.3270869615
 C    0.8022472672   -0.6584153017    1.2040549092
 C    0.7001680658   -0.2763552277    2.6395562887
 C    0.2141577720   -1.6506998043    2.1837232726
 C   -1.1887704302   -1.9386359739    2.1363367278
 C   -2.3678555077   -2.1709421123    2.0725305382
 H    0.3976710297    2.0447862352    0.5260889371
 H   -0.5724548057    1.7810026171   -0.9377515075
 H   -1.2792667345    1.4590699266    0.6551141325
 H   -0.6555830296   -0.6751408561   -0.4459743731
 H    2.3209350706   -1.8467334338    0.0853367614
 H    2.9306857788   -0.2620578371    0.6485484954
 H    1.6088766502   -0.2469472396    3.2325152171
 H   -0.0563012598    0.4449403637    2.9287350463
 H    0.8515073505   -2.4911710981    2.4474121696
 H   -3.4074436782   -2.3818780856    2.0279704895