16

 O    0.0742488649    1.4220449412    0.1731006809
 C   -0.0070332045    0.0306436664    0.0401918657
 C   -1.4189012914   -0.5312062992   -0.0891000415
 C   -2.1361968791   -0.0512486375   -1.3738953345
 C   -1.6301734822   -1.3439322554   -1.9970581062
 C   -0.1832977414   -1.6256444258   -1.7032510668
 N   -1.2320526584   -1.9407431258   -0.6862874193
 C    0.6386466443   -0.4724982046   -1.2514890221
 O    1.6037931970    0.0362911171   -1.7698635604
 H    0.8583674215    1.6897958625   -0.3286574514
 H    0.4957608521   -0.4916569619    0.8753881805
 H   -1.9927408868   -0.5468896483    0.8346761889
 H   -3.2217621974   -0.0694754680   -1.2645220291
 H   -1.8284140690    0.9057418594   -1.8008298182
 H   -2.1308116142   -1.9302543535   -2.7616022238
 H    0.2745326247   -2.4697166668   -2.2051773325