18

 C    0.0233961525    1.5958128168    0.4054388093
 C   -0.0483878373    0.1312021155   -0.0534311888
 C    0.8160904403   -0.7270442301    0.8640852454
 O    1.7523798810   -1.3967722050    0.5145673220
 C   -1.4449678176   -0.4358986510   -0.0325041763
 C   -2.5563021576    0.0838849086    0.5998330751
 N   -3.6037769249   -0.7751650194    0.3894404960
 C   -3.1872103270   -1.8430002756   -0.3638039768
 C   -1.8536913476   -1.6649604120   -0.6373522388
 H    1.0414199042    1.9845008157    0.3126046781
 H   -0.6416277248    2.2180477767   -0.1999127668
 H   -0.2801011737    1.6977366502    1.4534047856
 H    0.3761047021    0.0355244319   -1.0584579580
 H    0.4880419329   -0.6962366360    1.9305975733
 H   -2.6903660803    0.9913391078    1.1652133336
 H   -4.5404291630   -0.6335329667    0.7240311201
 H   -3.8705366229   -2.6299985185   -0.6392504569
 H   -1.2260831864   -2.3329807988   -1.2076848160