17

 C    0.0072635538    1.4457031796    0.2544020846
 N   -0.0351278638   -0.0089793408    0.3160567066
 C   -1.0651813671   -0.6124082211   -0.0355364907
 O   -2.2843101572   -0.1649430125   -0.5082809832
 C   -2.7980690243   -1.5283344304   -0.6662769458
 C   -3.1641719560   -1.8430142796   -2.0964529027
 C   -1.4576990364   -2.0878771538   -0.0853854101
 C   -0.6621124680   -2.9633753000   -0.9268753448
 N   -0.0487835033   -3.6652457231   -1.6098587477
 H    0.8429711691    1.7467142378   -0.3856173919
 H   -0.9132037702    1.9053547929   -0.1229905230
 H    0.2135334088    1.8364508486    1.2562848493
 H   -3.6421980782   -1.6773457621    0.0126221608
 H   -2.3092119887   -1.7053526110   -2.7632737116
 H   -3.5040671053   -2.8799180210   -2.1796627153
 H   -3.9750396814   -1.1861608394   -2.4233066612
 H   -1.5624455916   -2.5263814541    0.9100881067