16

 N    0.0261071119    1.4090310518    0.1336344196
 C    0.0095947365   -0.0074360795    0.0248856691
 C   -1.1421378342   -0.7728667410    0.0475823355
 N   -1.1655357859   -2.1141480319    0.0052771691
 C    0.0046821540   -2.7291349127   -0.0879209531
 O   -0.0083911168   -4.0830191456   -0.1501285680
 C    1.2373792159   -2.0763699077   -0.1174721540
 C    1.2492721794   -0.6874492712   -0.0465606670
 N    2.4130911814    0.0632755244   -0.0850131883
 H    0.4343165187    1.8444354997   -0.6892638381
 H   -0.9074140154    1.7833501791    0.2564662731
 H   -2.1110313013   -0.2792966667    0.1123963997
 H   -0.9420011502   -4.3312894903   -0.1094838449
 H    2.1553735850   -2.6495249079   -0.1760829440
 H    3.2579791332   -0.4402449611    0.1425746805
 H    2.3344125775    0.9423812608    0.4112224506