22

 C   -0.0087235170    1.5467891458    0.0812669960
 C   -0.0674196124    0.0181987047    0.0858235740
 C    0.7751517888   -0.6075892966    1.2027790727
 C    0.8409967918   -2.1290893916    1.0903762086
 O    0.9312440980   -2.6986955562    0.0148440238
 N    0.8060497551   -2.7961647878    2.2793932199
 C    0.9508260552   -4.2343067495    2.3850808119
 C    2.0661358806   -4.6018384597    3.3522554148
 O    1.7304268076   -4.0287272624    4.6124979920
 H    1.0182753620    1.9038857036   -0.0566319733
 H   -0.6162779459    1.9625268459   -0.7285288337
 H   -0.3796475276    1.9673918967    1.0231052580
 H   -1.1078026779   -0.3134905086    0.1908154091
 H    0.2850516769   -0.3848223524   -0.8680678884
 H    1.8068768078   -0.2362911035    1.1311211431
 H    0.4031769335   -0.3043720097    2.1890961496
 H    0.7723191541   -2.2819920876    3.1445748488
 H    0.0139673717   -4.6887661510    2.7335846382
 H    1.1630854548   -4.6128537680    1.3831521940
 H    2.1483435649   -5.6972460125    3.4190168913
 H    3.0229780559   -4.2072136311    2.9798939241
 H    2.4736401321   -4.1475241986    5.2103818054