17

 O    0.0571293290    1.4383262825   -0.0259762841
 C    0.0427981990    0.0477728383   -0.0350465210
 C    1.0138715957   -0.4842197274   -1.0500715102
 O    1.6877913705    0.2527444372   -1.7346032447
 C    0.0144718133   -0.6631877283    1.3486194551
 C   -1.4999473633   -0.3067518425    1.5576221014
 C   -1.8635799513   -1.7614396286    1.9091137716
 C   -0.7981977941   -1.8891685329    0.8028827341
 C   -1.3510015349   -0.6402391504    0.0309455000
 H    0.7094103784    1.6978658965   -0.6959126045
 H    1.0861471304   -1.5848989668   -1.1445119268
 H    0.7914827888   -0.6803081863    2.1140718168
 H   -1.8823821770    0.6247281304    1.9701491350
 H   -1.5815755347   -2.1137557133    2.9063390178
 H   -2.8761544359   -2.0919975268    1.6570453926
 H   -0.3853071156   -2.7953388261    0.3592277622
 H   -2.1437393884   -0.6310109957   -0.7183494052