17

 C   -1.5532187671    0.0727172643    0.3413289434
 C   -0.8525470118    0.9597899057   -0.0645221262
 C   -0.0102885615    2.0630106729   -0.5176908250
 C    1.4193221880    2.0214299613    0.0324567926
 C    2.4074651601    1.1078404582   -0.6903780937
 C    2.0560863982   -0.3137221709   -0.6876368952
 N    1.8115121800   -1.4424522125   -0.7067632944
 C    1.9580490979    3.2631592582    0.6505447899
 N    1.6205042771    2.0941111192    1.4788560202
 H   -2.1533606989   -0.7352487974    0.6804012213
 H    0.0220961238    2.0818661976   -1.6148739083
 H   -0.4746021131    3.0099434212   -0.2157134001
 H    2.5181790282    1.4321086407   -1.7324223598
 H    3.3863794677    1.2109842328   -0.2125627599
 H    3.0192376217    3.4912452583    0.5919496487
 H    1.3121101902    4.1368417412    0.6771502974
 H    0.7314212194    2.2196821492    1.9565489090