20

 C   -0.1450739990    1.5947898897    0.0245458566
 C   -0.0333113540    0.1023816984   -0.0739484180
 C    0.6772028495   -0.6569798696   -1.2083566107
 C   -0.3104780851   -1.8540976123   -0.9802569272
 O    0.2185858014   -3.0434875522   -0.4260291005
 C    1.1683549456   -2.7877920206    0.5981296842
 C    0.6704303268   -1.7551740603    1.6312279482
 N   -0.2108757103   -0.6927474836    1.1344226743
 C   -1.0893298947   -0.9797957913    0.0200482011
 H    0.8215804305    2.0433001525    0.2838071064
 H   -0.4652234345    2.0270808534   -0.9297325225
 H   -0.8636090328    1.8744903412    0.7989096963
 H    0.4806223179   -0.1877121536   -2.1766173943
 H    1.7521834721   -0.8304044686   -1.1238842580
 H   -0.8623281695   -2.1516640011   -1.8730630720
 H    1.3475085172   -3.7464656867    1.0935756500
 H    2.1217993279   -2.4684541088    0.1544330561
 H    0.0858078348   -2.2732343326    2.4002145998
 H    1.5275775578   -1.2947096598    2.1348599795
 H   -2.1654348016   -0.9239570940    0.1537074606