19

 C    1.1079810371   -0.4586401925   -0.1545458631
 N   -0.2507939921    0.0538448270   -0.0842952852
 C   -1.3613515682   -0.7381324342   -0.0038683775
 C   -1.1592203762   -2.2292567050    0.2444646132
 O   -2.3806110627   -2.8931322537    0.3483809347
 N   -2.5844485282   -0.3565398108   -0.0849821971
 C   -2.9025127531    1.0568440192   -0.2436024676
 C   -2.3836392410    1.6859179848   -1.4653193501
 C   -1.9293356155    2.1895242041   -2.4593472376
 H    1.8003095256    0.3822571001   -0.0752119417
 H    1.3119489428   -1.1330851562    0.6811574122
 H    1.3227969581   -0.9929132105   -1.0901983833
 H   -0.3946566218    0.9548629367   -0.5173187736
 H   -0.5514269303   -2.6446376804   -0.5771983406
 H   -0.5649211823   -2.3576228775    1.1646713055
 H   -3.0409770501   -2.1859521795    0.2139561500
 H   -3.9932294316    1.1575606618   -0.2382808238
 H   -2.5369921734    1.6327904770    0.6229530624
 H   -1.5579759872    2.6345204295   -3.3494793070