16

 N   -0.0927864000    1.2628207329    0.2760145321
 C   -0.0185838849    0.0376778900   -0.0342587033
 O    1.1807002984   -0.5957795153   -0.2026075622
 C    1.3107887245   -1.7542579810   -0.9989752346
 C    1.1506091615   -3.1137957063   -0.3924562827
 C    0.1024902961   -2.5754897779   -1.3499507880
 C   -1.2081643706   -2.0977988930   -0.8004382981
 O   -1.3031464574   -1.9810768267    0.6141326184
 C   -1.2630769255   -0.7698517905   -0.1617888417
 H    0.8425477480    1.6742405415    0.3132427408
 H    2.0811168906   -1.6044580682   -1.7481474064
 H    1.8066327109   -3.9067375881   -0.7323057370
 H    0.8598129583   -3.1522305119    0.6502496378
 H    0.0524744038   -2.9875113027   -2.3519865639
 H   -2.1053538195   -2.4766788301   -1.2869432363
 H   -2.1722696442   -0.1774687427   -0.1527156349