13

 N   -0.0836512152    1.3223869153    0.0061170233
 C   -0.0037896108    0.0412663697    0.0092747336
 C    1.2139225405   -0.7640136612    0.0039871396
 N    1.2386309772   -2.0600381182    0.0077032966
 N    0.0490045214   -2.6683183405    0.0170484111
 N   -1.1582854167   -2.1098380049    0.0230380449
 C   -1.2162775366   -0.8016812891    0.0194424575
 C   -2.5032781534   -0.2005606563    0.0259615364
 C   -3.5846071124    0.3262293489    0.0313622336
 H    0.8519405573    1.7361567816   -0.0009446203
 H    2.1820245294   -0.2697130928   -0.0035864444
 H    0.0666947550   -3.6747342761    0.0200677699
 H   -4.5371913957    0.7960531938    0.0361550082