17

 C    0.0302878279    1.8094170516   -0.1580202874
 N    0.0031418374    0.3719968102    0.0420426022
 C   -0.9968866394   -0.3253567353    0.8572857113
 C    0.0996282914   -1.3908089860    1.2004413021
 C    1.1172559754   -0.3277907218    0.6932349299
 C    2.1869936796   -0.7750814613   -0.2020382272
 N    3.0333314057   -1.1335233018   -0.9025581283
 C   -1.4877032644    0.3482079999    2.1254983483
 O   -0.9325047750    1.2662286416    2.6757717190
 H    0.8346570138    2.0470544220   -0.8617075303
 H   -0.9128518766    2.1209965030   -0.6182348478
 H    0.1750914138    2.3832941827    0.7661232880
 H   -1.8637061438   -0.6945021633    0.2936823262
 H    0.1990131130   -1.6902920265    2.2430599455
 H    0.0449579091   -2.2668802683    0.5562591074
 H    1.5684873132    0.2303484194    1.5272120121
 H   -2.4167415810   -0.1016927461    2.5488166589