18

 O    0.0460114017    1.3673481122   -0.2146861198
 C    0.0423561792   -0.0297486721   -0.1346538659
 C   -0.3898980440   -0.7603092809   -1.3654225567
 C   -1.2719702935   -0.7689693599   -0.1278220459
 C   -1.3611221897   -1.9712752689    0.8042840025
 C   -0.6789560511   -1.7293309643    2.1550420582
 O   -1.1035660585   -2.1639890041    3.2074731488
 N    0.4641258394   -0.9733360050    2.0714011390
 C    1.0863170807   -0.6449977069    0.7909506994
 H   -0.2663255464    1.7104376325    0.6308181251
 H   -0.7196182106   -0.1500891488   -2.1979806549
 H    0.1304648449   -1.6722449656   -1.6422706962
 H   -2.1575081896   -0.1443443031   -0.1841079924
 H   -2.3933941425   -2.2566697239    1.0118593928
 H   -0.8792752290   -2.8487985711    0.3519090403
 H    1.0085343861   -0.9257416304    2.9198312901
 H    1.5391452436   -1.5332526815    0.3277887303
 H    1.8876062191    0.0779235018    0.9599747153