19

 O   -0.0981970054    1.4678205177    0.0408138481
 C    0.0002550113    0.0580010856    0.0457592952
 C   -1.4001657433   -0.5791179347   -0.1672288608
 C   -1.1876753216   -0.2703347472   -1.6890396657
 C    0.3034536563   -0.5940788438   -1.3395487394
 C    0.1831443501   -2.0896274684   -1.0194700577
 O    0.9582257341   -2.5806013788    0.1033403780
 C   -0.2276055160   -2.7203963034    0.9221083906
 C   -1.1194589654   -2.0913957568   -0.1668037147
 H    0.7937365331    1.8235209891   -0.0226595473
 H    0.6051009468   -0.2857805472    0.8897536417
 H   -2.2630170256   -0.2096077221    0.3866069684
 H   -1.6962903276   -0.9124977002   -2.4142079344
 H   -1.3361974932    0.7805758499   -1.9277214164
 H    1.1380764690   -0.2625136795   -1.9588306383
 H    0.2745346796   -2.7447881950   -1.8912600249
 H   -0.4463783206   -3.7759638619    1.1259575501
 H   -0.1415934102   -2.1840251406    1.8749968393
 H   -1.9728705115   -2.6841826228   -0.4972577918