19

 C    0.0254326985    1.5889520399   -0.0197023190
 C   -0.1614230477    0.0685520787    0.0424248289
 C    0.5999840223   -0.5561432641    1.1980746980
 C    0.9128486730   -2.0513661778    1.2497212664
 C    2.0954531515   -1.8451795414    0.2530956305
 C    3.1305507191   -2.5081873436    1.1656161591
 C    2.1881009303   -1.7292068966    2.0851540046
 N    2.1308448166   -0.5333182527    1.0948064149
 H    1.0848141876    1.8420128678   -0.1203197950
 H   -0.5137698996    2.0218729808   -0.8676183298
 H   -0.3452580519    2.0693519971    0.8925877042
 H   -1.2262711562   -0.1753395368    0.1547035417
 H    0.1576613823   -0.3836590798   -0.9043064337
 H    0.2724802638   -0.1166257867    2.1510490579
 H    0.2505219972   -2.9203381390    1.3389540775
 H    2.0622898769   -1.8100258532   -0.8361301793
 H    3.1028744453   -3.5985271523    1.2354411050
 H    4.1533591798   -2.1297821227    1.0894686222
 H    2.2441069911   -1.5444431274    3.1597239360