20

 C   -0.1293301677    1.5307067046    0.3793688526
 C    0.0295954101    0.0333655206    0.2275726509
 N    1.2806799695   -0.6051661495   -0.2177771278
 C    2.4462104871    0.1982710419   -0.5537401713
 C    0.8736435743   -0.7520850912    1.1645087259
 C    1.6562272089   -0.2921656428    2.4290975088
 C    1.3453052376   -1.6757512345    3.0298514516
 O   -0.0765956081   -1.8295191765    3.0468666625
 C    0.6227097611   -2.1021820239    1.8201736941
 H    0.7112568482    1.9940076982    0.9009855831
 H   -0.2358318729    2.0187744411   -0.5958503384
 H   -1.0341581185    1.7452951923    0.9573595666
 H   -0.8521523112   -0.4576486071   -0.1845199280
 H    2.6126540577    1.0767066348    0.0863008196
 H    3.3385978450   -0.4337444502   -0.4950908306
 H    2.3516088417    0.5445764413   -1.5877320441
 H    2.7219268877   -0.1468458269    2.2288265497
 H    1.2673791876    0.5608021290    2.9908032001
 H    1.9201414065   -2.2470601773    3.7489131699
 H    0.4900963754   -3.0747244441    1.3611923348