13

 C    0.0420374108    1.3780597928    0.0097460790
 N    1.3035392783    1.8527782355   -0.0001002547
 N    2.0573897212    0.7625189040   -0.0137227630
 N    3.3935733529    0.8185749845   -0.0266780448
 C    3.9722238246   -0.3573677331   -0.0390413605
 N    3.3842213635   -1.5869453195   -0.0401188434
 C    2.0725126600   -1.6043824523   -0.0271876271
 C    1.3120374698   -0.4193314668   -0.0129651565
 C   -0.0210583812   -0.0158789653    0.0025402907
 H   -0.7763992730    2.0824455684    0.0218302384
 H    5.0561361869   -0.3347010929   -0.0496765967
 H    1.5733325438   -2.5707975201   -0.0276648576
 H   -0.8939723077   -0.6473412851    0.0076636466