20

 C    0.4490406933    1.5107064089    0.2455175715
 C   -0.1504222875    0.1373956560   -0.0810077141
 C    0.4846569190   -0.4915757630   -1.3056608845
 C    1.7489037914   -1.3147671429   -1.1994222723
 C    0.4534988994   -1.9733816163   -1.6029214444
 C   -0.2333381066   -2.9795369983   -0.6870957039
 C    0.2581192890   -4.3406186657   -0.8840905032
 C    0.6684669800   -5.4556047530   -1.0662977280
 H    1.5239631203    1.4334240316    0.4390596341
 H    0.3128219830    2.2083029230   -0.5882298338
 H   -0.0236480919    1.9508931191    1.1290447206
 H   -0.0310171613   -0.5204290269    0.7876585933
 H   -1.2323601626    0.2409152906   -0.2390206256
 H    0.4176293084    0.1402208758   -2.1894902848
 H    2.5301967198   -1.1927666525   -1.9413714851
 H    2.1190236042   -1.5256589338   -0.1998552251
 H    0.3644188056   -2.2359128237   -2.6532498496
 H   -0.0917729049   -2.6965444688    0.3622502322
 H   -1.3178425729   -2.9599853890   -0.8609412313
 H    1.0294984841   -6.4422469009   -1.2182399560