23

 C    0.0865324395    1.5922519000    0.0791184410
 C    0.0080273743    0.0658806212   -0.0077580194
 C    0.7518846227   -0.5068797517   -1.2231680639
 C    0.6867131575   -2.0171350647   -1.3051343852
 C    1.5083329114   -2.8638950774   -0.2818751418
 C    2.1402700812   -3.6805164989   -1.4528427734
 C    1.2731735802   -2.8923354324   -2.4572661803
 O   -0.0082405729   -3.5099723094   -2.6949756699
 C   -0.6489814403   -2.6836885391   -1.6967659299
 H    1.1257863564    1.9308177746    0.1562987753
 H   -0.3477149750    2.0624119539   -0.8101877782
 H   -0.4527204525    1.9710148246    0.9529320814
 H    0.4187736556   -0.3754152255    0.9094387015
 H   -1.0444930330   -0.2442903976   -0.0482571394
 H    0.3330994398   -0.0744029280   -2.1426760890
 H    1.8032132962   -0.1886290841   -1.1864870076
 H    2.2367873546   -2.2722320469    0.2790495167
 H    0.9119970234   -3.4362297467    0.4339331918
 H    3.2131613304   -3.5051487028   -1.5718650176
 H    1.9539255371   -4.7564778013   -1.4593616217
 H    1.7286774341   -2.5135967754   -3.3775978280
 H   -1.1540968179   -3.2776049891   -0.9239643197
 H   -1.3792510631   -2.0012800233   -2.1544622528