19

 C   -0.0682119130    1.5392169036    0.0069309918
 C    0.0345848736    0.0108245094    0.0024890595
 N    0.7249487667   -0.5244607449    1.1623908849
 C    2.0793354308   -0.7210646740    1.2674643071
 C    2.3590276646   -1.1381820745    2.5475849806
 C    1.1262325322   -1.1969786114    3.2632487878
 C    0.9265877596   -1.6149938490    4.6893936078
 C    0.1453490026   -0.8075695739    2.3776747649
 H    0.9259649984    1.9951517758    0.0165795279
 H   -0.5991875389    1.8877494560   -0.8847729098
 H   -0.6105434744    1.8893806507    0.8898673594
 H   -0.9647345323   -0.4356191935   -0.0319453858
 H    0.5658317425   -0.3303806105   -0.8919759272
 H    2.7243430161   -0.5507787884    0.4192746769
 H    3.3365049811   -1.3923862288    2.9303684688
 H    1.4938533758   -0.9822230846    5.3824029319
 H   -0.1276848612   -1.5520695577    4.9755984906
 H    1.2528712209   -2.6476576004    4.8622595996
 H   -0.9218077550   -0.7139439839    2.5114166833