16

 C    0.0405332156    1.4400428992    0.0383981054
 C    1.3712024161    0.7312437092    0.0019362721
 O    1.9748633679    0.4619912550    1.2627566557
 C    1.0999793354   -0.3927691491    1.8743887683
 N    0.0448542931   -0.7618119006    1.2611615004
 C    0.0814184476   -0.0707700677   -0.0112876906
 C   -0.0052285956   -0.7894054244   -1.3512624955
 C    1.2769282987   -0.3412243378   -2.0443158271
 C    2.0455897662    0.4574187960   -1.2903410116
 H   -0.2680169054    1.8949119175    0.9736389549
 H   -0.2486196069    1.9722539049   -0.8609991419
 H    1.3900352960   -0.6910508339    2.8749580105
 H   -0.0353423433   -1.8768551367   -1.2155923398
 H   -0.8961976500   -0.5162672616   -1.9292198245
 H    1.5027630668   -0.6230631555   -3.0676434120
 H    2.9964843080    0.8844095155   -1.5850633943