18

 N    0.5942958494    0.3305463821   -0.7651995313
 C   -0.1060207952    0.0202739131    0.3697622476
 O    0.1062188191    0.5549706868    1.4419463148
 C   -1.2382694210   -0.9904993054    0.1776800764
 C   -2.4125200410   -0.4611464652   -0.6957711899
 C   -2.9238273205   -1.7051984022   -1.3737020375
 C   -2.1120650192   -2.7472135280   -1.2136785539
 C   -0.8744644569   -2.3894035756   -0.4321145520
 O    0.2339060863   -2.3988549396   -1.3507770010
 H    1.3966408385    0.9295222368   -0.6472796095
 H    0.5925045602   -0.3357955470   -1.5244041439
 H   -1.6200714772   -1.1743564763    1.1837927622
 H   -3.1719609367    0.0320737985   -0.0799212917
 H   -2.0821753700    0.2819325825   -1.4321880885
 H   -3.8482901048   -1.7167125012   -1.9411615367
 H   -2.2465508742   -3.7351401781   -1.6376565868
 H   -0.6597070700   -3.1048121077    0.3715849504
 H    1.0409488334   -2.5134980936   -0.8377026787