18

 O    0.1963887297    1.3518067442   -0.2746424288
 C    0.0557604710   -0.0267850570   -0.0271427058
 C    0.6897493483   -0.5440750737    1.3118405078
 C   -0.4568915611   -1.2883374027    2.0319255563
 C   -1.3239125099   -1.7915039776    0.8603354710
 C   -1.4153611009   -0.4929516065    0.0652310035
 O   -2.1680408852    0.4943711042    0.8254162001
 C   -2.0169792308    0.4189644672    2.1795102933
 N   -1.2542274145   -0.3442661656    2.8360969972
 H   -0.5018916212    1.7990370951    0.2188064922
 H    0.5255648062   -0.5317516131   -0.8782418969
 H    1.5276555197   -1.2188074869    1.1109913312
 H    1.0676057480    0.2914918592    1.9046524828
 H   -0.1020067489   -2.0804756785    2.6931484210
 H   -0.8107725487   -2.5566437654    0.2687884316
 H   -2.2947233111   -2.1807010089    1.1760355481
 H   -1.9222302459   -0.5506221420   -0.8981644534
 H   -2.6685049747    1.1401626380    2.6687410688