17

 O    0.4713950952    0.8380113053   -0.7215634870
 C    0.1227831520   -0.1983030192    0.1313285011
 C   -0.0772546765    0.0470053863    1.6478735326
 C   -1.2334123164   -0.9811926173    1.6308253532
 C   -1.3618204001   -0.7972859897    0.0694945998
 C   -2.2965260452    0.2660656575   -0.2778228134
 C   -3.0002643300    1.2012763880   -0.5574388136
 C   -1.5610554537   -1.9920476283   -0.7320122669
 C   -1.6824847765   -3.0014689623   -1.3732968673
 H   -0.2501356202    1.4813150627   -0.7129034044
 H    0.8253070121   -1.0147588799   -0.0517326641
 H    0.7739946691   -0.1466151948    2.3023768935
 H   -0.4440043493    1.0611569092    1.8293482243
 H   -0.8984676381   -1.9951506330    1.8559154791
 H   -2.1304038405   -0.7562085813    2.2070390479
 H   -3.6614768129    1.9941349896   -0.8080219413
 H   -1.8013351889   -3.8856615328   -1.9491858033