21

 C    0.6724131144    1.4674602785   -0.0046377826
 C   -0.0439173562    0.1358476177   -0.1208462987
 C    0.3845096150   -0.7924510852   -1.2789685629
 C    0.9361463052   -1.6966215611   -0.1591404122
 C    0.6213611018   -3.2090275055   -0.1293223058
 C    2.0526604175   -3.4656150785   -0.6800252472
 C    2.4352614684   -2.0501665674   -0.1622670050
 O    3.2475680494   -1.2004597666   -0.9361932950
 O    0.4322752517   -0.8266943985    0.8596471718
 H    1.7503782527    1.3287604008   -0.1323994839
 H    0.3144047358    2.1637641859   -0.7714809101
 H    0.4911122494    1.9160506110    0.9772722155
 H   -1.1285984296    0.2699851261   -0.0225310709
 H   -0.4366313072   -1.2296981140   -1.8502595141
 H    1.1347446458   -0.3828965989   -1.9559145455
 H    0.5067692528   -3.5577784895    0.9007873431
 H   -0.2288273344   -3.5553813810   -0.7206739306
 H    2.6077321271   -4.3211434986   -0.2906102668
 H    2.0708853177   -3.4886646910   -1.7729014200
 H    2.7805751854   -2.1014697808    0.8803158795
 H    4.1696840674   -1.4237763635   -0.7786790286