21

 C   -0.0489893348    1.5643789738    0.0258375136
 C    0.0084949076    0.0355088770   -0.0190698560
 C    0.7142564398   -0.5038825438   -1.2596939895
 C    0.8554242628   -2.0423165003   -1.2432238107
 C    1.4103227233   -2.5522799558   -2.5641207065
 O    2.3231689765   -3.3410952745   -2.6369930620
 C    0.7273218210   -1.9524601264   -3.7831630336
 C    0.5957264490   -0.4263972329   -3.6174304870
 O   -0.0333360191   -0.0919984365   -2.3970246529
 H    0.9574372995    1.9970106847    0.0505686433
 H   -0.5616133148    1.9562833837   -0.8559101752
 H   -0.5820232839    1.9103652352    0.9162779680
 H    0.5284183142   -0.3516526181    0.8653083460
 H   -1.0063146850   -0.3807845235    0.0025100592
 H    1.7258654676   -0.0627199821   -1.3202647611
 H    1.5016368419   -2.3784274133   -0.4285620783
 H   -0.1444309180   -2.4731358985   -1.0975999373
 H    1.2882006279   -2.2162700245   -4.6831543539
 H   -0.2805173143   -2.3802331716   -3.8595031901
 H    1.5930175581    0.0401476985   -3.6747166888
 H   -0.0203414593   -0.0013328612   -4.4142735670