17

 C   -0.1118822968    1.4854029081    0.0133094217
 N    0.1408226963    0.0406824365    0.0014338184
 C    0.2847352981   -0.5753845452   -1.2532256629
 N    0.8739616590   -1.6478197871   -1.5760418321
 C    1.6203673758   -2.3794094432   -0.5526057543
 C    0.7431412835   -2.8773243129    0.5634870215
 C   -0.0264349270   -2.0776726996    1.3045089846
 C   -0.1161302218   -0.6054444431    1.2190085589
 O   -0.4555008028    0.0578500514    2.1838063592
 H    0.0411651918    1.8776450437   -0.9928377799
 H   -1.1277132401    1.7040987700    0.3527790057
 H    0.5817454109    1.9772458339    0.6980786942
 H   -0.1844129040    0.0038050907   -2.0503828407
 H    2.1233116258   -3.2170805647   -1.0406597546
 H    2.4049828019   -1.7272514120   -0.1362141956
 H    0.7450553361   -3.9442178934    0.7716615393
 H   -0.6065398966   -2.4737989432    2.1311077366