21

 C    0.0430882725   -0.3982636139    2.0568723918
 O   -0.8620600984   -1.4340791305    1.6941175130
 C   -1.7868915587   -1.1190021467    0.6748333177
 C   -3.1285008543   -0.6859088416    1.2278050925
 O   -3.0480055630    0.4530431640    2.0745386881
 C   -1.2953819739   -0.5965714066   -0.6497888365
 C   -1.7668252042   -2.0321521864   -0.5222959201
 C   -0.7553685267   -3.1631649811   -0.5328635707
 O   -1.0229360616   -4.1289040587    0.4685983037
 H    0.5355139083   -0.7225986267    2.9772839425
 H    0.8098123223   -0.2401638507    1.2872798391
 H   -0.4793482946    0.5478403941    2.2304543954
 H   -3.7946294242   -0.4166752028    0.4014558818
 H   -3.5847885632   -1.5340072469    1.7596217157
 H   -2.7009772859    0.1515322754    2.9194880987
 H   -1.9148941417    0.1235554918   -1.1734156148
 H   -0.2293457168   -0.4418355291   -0.7774941538
 H   -2.7369131970   -2.2814779513   -0.9446404069
 H   -0.7913351505   -3.6918191962   -1.4910242906
 H    0.2599652248   -2.7528572279   -0.4266702280
 H   -0.9287100434   -3.6590097783    1.3062305014