18

 C    0.1582540120    1.4800742612   -0.0157532578
 C   -0.0528160824    0.0101684632   -0.0369989216
 C   -1.1476283533   -0.7950014295    0.0277787967
 C   -2.5893214079   -0.4170256993    0.1523138687
 C   -0.6417646992   -2.1459213376   -0.0310620646
 O   -1.3519456134   -3.3203190943    0.0949443643
 C    0.7115294880   -2.0606482766   -0.1310910656
 N    1.7098068453   -3.0166441399   -0.2887576405
 O    1.0912243110   -0.7597891663   -0.1379441551
 H    0.8016141030    1.7856816269    0.8184335033
 H    0.6306468976    1.8396039153   -0.9383566177
 H   -0.7992020056    1.9947671931    0.0925709582
 H   -3.1626495004   -0.6904887475   -0.7429461927
 H   -3.0589723187   -0.9308068580    0.9987412615
 H   -2.7135718794    0.6586000815    0.3012745659
 H   -1.9258049995   -3.4225191620   -0.6720312104
 H    1.3242983550   -3.9422980689   -0.1441849940
 H    2.4905951779   -2.8720082112    0.3429745912