18

 C   -0.0433642006    1.5488074579    0.0183890713
 C   -0.0148572223    0.0080597857   -0.0189314389
 C   -1.4560547146   -0.5380298369    0.0103497445
 C    0.7927208935   -0.5340063323   -1.2272292901
 C    1.9684256079   -1.3323859097   -0.6388175706
 O    2.8229618062   -1.9086822775   -1.2701248246
 C    1.8418776033   -1.2523222388    0.8356652878
 C    0.7690965600   -0.5272316517    1.1660127485
 H    0.9688927159    1.9638880281   -0.0096613171
 H   -0.5980717565    1.9439052744   -0.8391835629
 H   -0.5319377313    1.9122816842    0.9291769154
 H   -2.0258850806   -0.1652365998   -0.8472939268
 H   -1.4652693864   -1.6318800446   -0.0235486589
 H   -1.9782724950   -0.2242917534    0.9209588777
 H    0.2008714145   -1.1910329613   -1.8718158544
 H    1.1854179671    0.2629797193   -1.8660332475
 H    2.5439709233   -1.7302662114    1.5070601504
 H    0.4461651756   -0.3124514022    2.1812218764