20

 C   -0.3500243237    1.5418804377    0.2530818277
 C    0.1177207767    0.0919582366    0.0909344951
 C    0.8835318019   -0.3830530108    1.3260811924
 N   -1.0259086028   -0.8023499813   -0.1233045851
 C   -1.6946907526   -0.7001665527   -1.3912309567
 C   -2.0267366431   -2.0783168162   -1.9686755396
 O   -1.6354755801   -3.1054573026   -1.4807291889
 C   -3.0056190192    0.0991187900   -1.3287251673
 O   -3.6317147133    0.4215653940   -2.3032519553
 H    0.5070320494    2.2058774275    0.4018751566
 H   -0.8880405505    1.8991781229   -0.6314320005
 H   -1.0167627557    1.6329928175    1.1166167146
 H    0.8062128582    0.0552660092   -0.7754074039
 H    0.2362936800   -0.3613724970    2.2088155085
 H    1.2484004187   -1.4077391500    1.1959359920
 H    1.7483275414    0.2590758073    1.5148998216
 H   -0.7555099377   -1.7721300861    0.0147206796
 H   -1.0924847977   -0.2174422047   -2.1852800967
 H   -2.6594586404   -2.0482892740   -2.8765268333
 H   -3.3297008395    0.3241719626   -0.2904967109