15

 O    0.2739441997    0.0494480405    0.2327987644
 C    0.3640727321    1.1722717412   -0.1546299389
 O    0.8057389251    2.1757110520    0.6429956813
 C    0.8849238638    3.4875021767    0.0897465860
 C    2.3257108390    3.9174391754   -0.0338317294
 C    2.7108426141    5.3301823709    0.1921789342
 O    2.9918233204    4.3400280940    1.1625421974
 C    3.1983253394    3.1267421368   -0.9625341380
 O    2.7686299566    2.3646086025   -1.7901444734
 H    0.1003061622    1.5169151766   -1.1705392543
 H    0.4070576109    3.5197791258   -0.8968603227
 H    0.3539532538    4.1613785349    0.7669184821
 H    3.5725508809    5.7448585406   -0.3292462100
 H    1.9280736607    6.0433459464    0.4470262696
 H    4.2843813812    3.3134362357   -0.8213120382