20

 C   -0.0729665138    1.5179811859   -0.0277458355
 C    0.0736394405    0.0080683831    0.0581509202
 O    0.9577434200   -0.4966517584   -0.9907871353
 C    1.9262842866   -1.2434782201   -0.2377709954
 C    1.0674998265   -2.0198904745    0.7945185692
 C    0.7918843018   -0.5643733083    1.2997522225
 C    2.2640755931   -0.2997135918    0.9191993163
 C    3.4849828830   -0.2333354071    1.7356970610
 N    3.0098417650    0.9392421009    0.9552759764
 H    0.8737033713    2.0223921686    0.1740449725
 H   -0.4221311006    1.8011539453   -1.0254274659
 H   -0.8143620074    1.8646651672    0.7006742927
 H   -0.9090731457   -0.4654385903   -0.0711922274
 H    2.6588846408   -1.6947748086   -0.9061641444
 H    0.2225765721   -2.5854182820    0.3962872109
 H    1.6549855562   -2.6156142265    1.4941316673
 H    0.3775770320   -0.3395617807    2.2810548378
 H    3.4263509915   -0.1120219933    2.8142570468
 H    4.3694168798   -0.7632361663    1.3889401562
 H    3.5575255373    1.0511209769    0.1046045241