23

 C   -0.3568219989    1.4806278206    0.1828395702
 C   -0.1779022459   -0.0270761757    0.2516919268
 O   -1.3427637153   -0.6354395329   -0.2870029537
 C   -1.4311818984   -2.0226874446   -0.0978251240
 C   -0.4472338446   -2.8364660388   -0.9164564781
 C   -1.8148016182   -2.5844850314    1.2467404775
 C   -2.7510066335   -1.6304835167    2.0005945454
 C   -3.7364185873   -1.6427604012    0.7899780792
 C   -2.8002620912   -2.6031708542    0.0484283366
 H    0.5307504893    1.9889179925    0.5719504321
 H   -0.5135356394    1.8001647313   -0.8514717270
 H   -1.2238023414    1.7942984988    0.7714436749
 H    0.7146530943   -0.3271230789   -0.3182203057
 H   -0.0267561888   -0.3564477427    1.2909394057
 H    0.5878175598   -2.6490923269   -0.6127714471
 H   -0.6370914212   -3.9068261091   -0.7964037794
 H   -0.5417177465   -2.5867810271   -1.9781814816
 H   -1.2660194271   -3.4059261089    1.6950910777
 H   -3.1851215005   -2.0927207181    2.8898067176
 H   -2.3300396758   -0.6608830558    2.2813714772
 H   -4.6950545882   -2.1014272018    1.0411419552
 H   -3.9133247876   -0.6851802025    0.2954767828
 H   -3.1187637235   -3.4386200159   -0.5658048422