15

 O    0.3898356606    1.5665613863   -0.0892444323
 C    0.1052313698    0.1834327309   -0.0013324879
 C    0.4704386301   -0.5571870441   -1.2149438413
 C    0.7846600970   -1.1554587487   -2.2080758493
 C    0.7883866427   -0.4185443643    1.2292297251
 C    0.0743648004   -0.4977575499    2.5211088068
 O    0.2755026625   -1.6567759221    1.7255864842
 C    2.2806544659   -0.3094935240    1.2938500069
 O    2.9308972550    0.4537777203    0.6210470104
 H    1.3478351572    1.6354142881   -0.2115502682
 H   -0.9774719296    0.1005872790    0.1476433710
 H    1.0572755712   -1.6826718020   -3.0891158689
 H    0.6295970508   -0.4675150321    3.4575166717
 H   -0.9432829330   -0.1134904161    2.5622991944
 H    2.7490806993   -0.9994921114    2.0273596774