19

 C    0.0078586821    1.5489345557   -0.0121341379
 C    0.0011790542    0.0214522156   -0.0897692524
 C   -1.4005168636   -0.5724218175   -0.0243278691
 O   -2.1150461841   -0.1596961583   -1.1854487384
 C   -3.4468524437   -0.6115859791   -1.2336424820
 C   -3.5678412599   -2.0900085640   -1.0102382980
 C   -2.5801218079   -2.7899045667   -0.4420872715
 C   -1.3888453837   -2.1049821184    0.0971560499
 O   -0.4959925848   -2.6992180964    0.6667141118
 H    1.0269675507    1.9386593283   -0.0913263214
 H   -0.5871437257    1.9829835007   -0.8200953770
 H   -0.4093389573    1.8992599952    0.9389122492
 H    0.4659422905   -0.3134579609   -1.0245060393
 H    0.5811313926   -0.4203328320    0.7249075955
 H   -1.9180204864   -0.1934775905    0.8798647977
 H   -4.0781051640   -0.0774547944   -0.4961656362
 H   -3.8296800385   -0.3445912435   -2.2251684299
 H   -4.4931697749   -2.5672666118   -1.3247373703
 H   -2.6287284257   -3.8637966720   -0.2931648607