19

 C   -0.0392198443    1.5405240891    0.0338132772
 C    0.0137810822    0.0115639813   -0.0673224049
 C    0.8303964705   -0.4983536540   -1.2227283974
 C    1.6618626777   -1.4673517328   -0.8278611502
 C    1.4843067752   -1.7408577246    0.6499291977
 N    0.6797654570   -0.6033323479    1.0914691848
 C   -0.1612049037   -0.8634590773    2.2408196044
 C    2.5652508122   -2.1960201996   -1.6445431860
 N    3.3114288365   -2.8072484540   -2.2861470888
 H    0.9707703270    1.9509100101    0.1138471559
 H   -0.5317434840    1.9705597702   -0.8444999154
 H   -0.6064193385    1.8488669609    0.9170960611
 H   -1.0265814599   -0.3591403135   -0.1840540409
 H    0.7284808129   -0.1243189864   -2.2333356011
 H    0.9777150608   -2.7149519541    0.7942595787
 H    2.4384868537   -1.7958912163    1.1900110571
 H    0.4523293157   -1.2005921506    3.0823505783
 H   -0.6679772827    0.0549005076    2.5516283743
 H   -0.9332633881   -1.6339157380    2.0526839154