20

 C    0.0529113502    1.5859105450    0.0440759253
 C    0.1021492312    0.0747326519   -0.0743445048
 C    0.9344749481   -0.4836722437   -1.2398440876
 C    1.4165625185   -1.8551095650   -0.7187518395
 C    1.1083326406   -1.8021279562    0.8161090432
 C    2.2924525442   -2.1749098489    1.7076958651
 O    0.7468530859   -0.4571244575    1.0902567905
 C   -0.0470861536   -2.6866098425    1.1254212454
 N   -0.9491189313   -3.3697745283    1.3619378698
 H    1.0642673302    1.9966548055    0.1223930006
 H   -0.4327010950    2.0183167677   -0.8359113933
 H   -0.5124732608    1.8859038765    0.9302584005
 H   -0.9219396597   -0.3284568674   -0.1271113098
 H    0.3562574404   -0.5610411626   -2.1633963914
 H    1.7851332745    0.1778408944   -1.4306007128
 H    0.8958692885   -2.6880117297   -1.1941514426
 H    2.4871683667   -2.0006945075   -0.8772252160
 H    3.1312441457   -1.5137147746    1.4756646206
 H    2.0295823311   -2.0560281028    2.7611809154
 H    2.5926796645   -3.2116676840    1.5350936116