23

 C   -0.1709275263    1.5655000646   -0.0361120931
 C    0.0261110543    0.0552201210   -0.0090192219
 C    1.2052627693   -0.6444420220   -0.7763899820
 C    1.4609070526   -0.6471960001   -2.2595985925
 C    2.1466396246   -0.1522739460    0.3638253990
 C    0.8729268322   -0.6540074422    1.1084294326
 C    0.6059106021   -0.6717993844    2.5895291145
 C    0.9580977719   -1.8839896612    0.1454708599
 O   -0.1209661220   -2.7577121142   -0.0492275419
 H    0.7486466693    2.1320278078    0.1292321458
 H   -0.5816590648    1.8803663505   -1.0021595526
 H   -0.8883230924    1.8714917163    0.7338216040
 H   -0.9565290728   -0.4053368225   -0.1846229422
 H    1.5409074743    0.3703236137   -2.6579908929
 H    2.3921738641   -1.1732079010   -2.4969595802
 H    0.6483949503   -1.1542906494   -2.7922053260
 H    3.0610153268   -0.7338333751    0.5221010322
 H    2.3614315019    0.9152130718    0.4071133174
 H    0.5431085913    0.3416115050    3.0012532676
 H   -0.3388927687   -1.1826688179    2.8071286572
 H    1.4007421250   -1.2017656693    3.1258735974
 H    1.8296527456   -2.5284872405    0.2958750692
 H   -0.9252296287   -2.2478084752   -0.1884693413