16

 C    0.3013779501    1.3652318710    0.2069991119
 N    0.0896223539   -0.0663285203    0.0933242474
 C   -0.0485099652   -0.7732780356   -1.0655048192
 N   -0.2280895640   -2.0570651276   -0.8560240935
 C   -0.2029307025   -2.1989948123    0.5076297923
 C   -0.0097782274   -0.9872001546    1.1218467873
 C    0.0659874135   -0.6287306568    2.5746767091
 C    1.3572240905   -0.0541077742    2.9754973238
 N    2.3696397482    0.4202351507    3.2675843798
 H    1.2374717968    1.5828157028    0.7280220299
 H    0.3489266720    1.7904867225   -0.7967432668
 H   -0.5233318376    1.8431172191    0.7457036935
 H   -0.0063774037   -0.2863791526   -2.0292514106
 H   -0.3248784989   -3.1623882514    0.9809421988
 H   -0.7205906397    0.0811037572    2.8648222592
 H   -0.1073485460   -1.5358216678    3.1620524570