22

 O   -0.4320743825    1.2707449080   -0.1117665428
 C   -0.0728204664   -0.1073212242   -0.0428743021
 C    0.7029981118   -0.5389713114   -1.2857243182
 C    0.3654345281    0.0111540647   -2.6163884684
 N    1.6349125536    0.3829602132   -1.9545582780
 C    0.6727058223   -0.4616441605    1.2434271708
 C    1.9727224363    0.3006280021    1.6432297066
 C    1.5052521029    0.2266925330    3.1220115690
 C    0.0657273695   -0.0605915935    2.6164733431
 H    0.2668239064    1.7848785482    0.3052208458
 H   -1.0284074411   -0.6508367290   -0.0380206112
 H    1.0717153681   -1.5622808903   -1.2325395938
 H    0.4741556686   -0.6032866137   -3.5053886757
 H   -0.4191458647    0.7605505023   -2.6581233074
 H    1.5064796296    1.3117500181   -1.5571869110
 H    0.8791109972   -1.5374882762    1.2272332252
 H    2.9289271401   -0.1511319025    1.3726213623
 H    1.9835220512    1.3376206781    1.2847622476
 H    1.9347535381   -0.6386097027    3.6345850274
 H    1.6581660935    1.1097018188    3.7465889314
 H   -0.5245199797    0.8563578760    2.5276010776
 H   -0.5284376929   -0.8077670184    3.1479269819