19

 C    0.0219425959    1.5273378030   -0.0605849823
 C    0.0099234294    0.0211129191   -0.0184784237
 C    0.6015746628   -0.9270222413   -1.0970155275
 C    0.0276949552   -1.8701620153   -0.0261982989
 C    0.5986295007   -0.9240202843    1.0954067125
 C   -0.3862133919   -0.9650526508    2.2585649876
 O   -1.2682450100    0.1728129950    2.3366678662
 C   -1.6712988436   -0.9742821847    1.5617261500
 C   -1.2342028996   -0.9371850468    0.1015499182
 H    1.0516293875    1.9004224333   -0.1093075220
 H   -0.5014627725    1.8892136032   -0.9532842839
 H   -0.4607025690    1.9484683572    0.8220802502
 H    0.1050782837   -0.9253340163   -2.0722956525
 H    1.6897161765   -0.9139693944   -1.2130307015
 H    0.0316769399   -2.9616719584   -0.0190826642
 H    1.6716544303   -0.9111205215    1.2925377180
 H   -0.1796707933   -1.4716009044    3.1958201139
 H   -2.5638031961   -1.4887270304    1.9030191423
 H   -1.9848805260   -0.9374002624   -0.6902149125