12

 O   -0.3305647850    0.3669833944    0.7686050961
 C    0.2500675866    0.7718183338   -0.2059590871
 C    1.3662591530    1.7608898085   -0.1418821945
 N    2.3149433964    1.7125326861   -1.2650791148
 C    1.4490662606    2.8898001897   -1.1455920584
 C    0.4560660860    3.1088329942   -2.1624561145
 C   -0.3763305921    3.3330071255   -2.9995383368
 H    0.0018286924    0.4369065936   -1.2342376483
 H    1.7232719335    1.9779440880    0.8617054204
 H    3.2537417993    1.9296122713   -0.9412209799
 H    1.8906905421    3.8011958893   -0.7466672703
 H   -1.1114353429    3.5199949155   -3.7430874120