16

 C   -0.0235784548    1.4095234027    0.3044029199
 N   -0.1523222161   -0.0330995598    0.2271395656
 C   -1.1886215716   -0.6402948170   -0.4141829364
 O   -2.1006065026   -0.0573012370   -0.9719737293
 C   -1.1221895530   -2.0980773593   -0.3751634309
 C   -1.1132275916   -3.3060310368   -0.3830593649
 C   -1.1014715997   -4.7620414858   -0.4003184115
 C   -2.3092595564   -5.4271904622    0.2213044364
 O   -0.1758297440   -5.3724332938   -0.8880828822
 H    0.8555219042    1.7610155570   -0.2469557637
 H   -0.9184676379    1.8433559414   -0.1422255800
 H    0.0573144448    1.7393465068    1.3452093597
 H    0.5692677355   -0.6176958926    0.6171493034
 H   -3.2177717457   -5.1193644681   -0.3076075058
 H   -2.1946431755   -6.5108374626    0.1718303028
 H   -2.4226698657   -5.1064527627    1.2625153970