18

 C   -0.0901098330    1.5893915384   -0.0526799220
 C   -0.0237360814    0.0618815798    0.0074509834
 O   -1.3714644071   -0.4809807184    0.0825199064
 C   -1.8771659707   -0.6667437661    1.3187467633
 O   -1.2956640971   -0.4075967125    2.3432202404
 C   -3.2864024124   -1.2499980273    1.2406054380
 N   -3.9274820724   -1.4925472578    2.5193700719
 C    0.6165410002   -0.5224225336   -1.1644133246
 C    1.1716302933   -0.9742636276   -2.1286829351
 H    0.9183992640    2.0015398406   -0.1413789907
 H   -0.6766207289    1.9104273650   -0.9168016364
 H   -0.5472564521    1.9721076206    0.8627582255
 H    0.5016237009   -0.2440320312    0.9172055856
 H   -3.8971069793   -0.5679281122    0.6374807735
 H   -3.2312582790   -2.1811692655    0.6649708120
 H   -3.3468947906   -2.1205576954    3.0684152699
 H   -3.9460754583   -0.6266431869    3.0511919606
 H    1.6611947239   -1.3837351300   -2.9777366316