16

 O   -0.1001576192    1.3706726012    0.0936226979
 N    0.0638417675   -0.0361885556    0.0304261169
 C   -1.0509417762   -0.6135496261   -0.1097670324
 C   -2.5426640266   -0.3246810146   -0.0286630778
 C   -3.0759166194   -0.9221900383   -1.3449285436
 C   -2.2627972844   -2.2631653160   -1.3428540033
 C   -1.4886294648   -2.0617730398   -0.0258082788
 N   -2.6211245371   -1.5597679913    0.8672570603
 H    0.8093643925    1.6701960901    0.1958805365
 H   -2.9522002992    0.6124013589    0.3401606982
 H   -4.1535584350   -1.0880197701   -1.2902375388
 H   -2.8561093004   -0.2879733817   -2.2064726794
 H   -2.9072603618   -3.1426402133   -1.2888945136
 H   -1.5958651327   -2.3617853393   -2.2021818154
 H   -0.8498186981   -2.8604464619    0.3458054609
 H   -2.2045378851   -1.3057236220    1.7646097924