19

 C   -0.0694338401    1.7955233911    0.1781726109
 C   -0.0541578324    0.2891987193   -0.0134529167
 C    1.2013754433   -0.4170057914   -0.3959626534
 C    0.6338568542   -0.6358831583    1.0034576036
 C    1.3572444127   -0.1035818219    2.1776146087
 O    1.3331342869   -0.6042025731    3.2758480310
 C   -1.3533977128   -0.2436348224   -0.5548563659
 C   -1.5656882052   -0.4835648507   -1.9893725082
 O   -1.3548046766   -1.5681656967   -1.0788472456
 H    0.8902933904    2.1761437104    0.5332471147
 H   -0.2907686045    2.2920601897   -0.7730901921
 H   -0.8371075435    2.0985355337    0.8987870327
 H    1.1355336152   -1.2652000633   -1.0668145399
 H    2.1089190511    0.1732511755   -0.4760661322
 H    0.1392349514   -1.5841563588    1.1842435862
 H    1.9634323770    0.8115312995    1.9837783262
 H   -2.2283663544   -0.0066026891    0.0537891431
 H   -2.5675773045   -0.4180468766   -2.4097312378
 H   -0.7496077582   -0.2995794969   -2.6860660953