21

 C   -0.0752705727    1.5129267977    0.1151287587
 C   -0.0402849917    0.0036220953    0.0989418401
 C    1.2783346018   -0.6959038230   -0.2102429436
 C    0.6803291117   -0.7828017682    1.1731869535
 O    1.2778886724   -0.0827565038    2.2265742627
 C   -0.1102508997   -2.0242843508    1.4730359452
 C   -1.4782307047   -1.7966799078    2.0619728578
 C   -1.3307598721   -2.0098547066    0.5750631818
 C   -1.3019526537   -0.7637427583   -0.3129861729
 H    0.8297981508    1.9179397714    0.5746128924
 H   -0.1581538240    1.9191178144   -0.8996608723
 H   -0.9329678888    1.8800491967    0.6905363409
 H    1.2789670473   -1.5783014402   -0.8437343856
 H    2.1436000100   -0.0501316675   -0.3218188623
 H    2.0906735632   -0.5405502583    2.4656968448
 H    0.4162340882   -2.9496245781    1.6899606684
 H   -1.9161852129   -2.6014941812    2.6422656747
 H   -1.7166475642   -0.8013101476    2.4241892913
 H   -1.7096061605   -2.9355337699    0.1569337403
 H   -2.1967724319   -0.1454925185   -0.1683810123
 H   -1.2753847985   -1.0367300357   -1.3750294736