16

 N   -0.0518860413    1.3436709556   -0.1987610022
 C   -0.0183968277   -0.0082623632   -0.0349765220
 N   -1.0706753594   -0.7494469334    0.0471946467
 C   -0.6619112050   -2.1341429440    0.0623517062
 C   -0.0468416581   -2.6533701950   -1.2046672952
 C    0.8498225035   -2.2128711980   -0.0447552211
 C    1.2664578405   -0.7916542897   -0.0327521862
 N    2.4922414805   -0.4364041966    0.0304588213
 O    2.6550160932    0.9601797990    0.0926640788
 H    0.7786164076    1.8587199947    0.0390760754
 H   -0.9460400300    1.7829860454   -0.0454586744
 H   -1.2370196538   -2.7961225166    0.6992252070
 H   -0.0715073055   -3.7217157333   -1.3937541651
 H   -0.1073265089   -2.0270523100   -2.0885582329
 H    1.4620951660   -2.9514343723    0.4542330077
 H    3.6117722184    1.0522540875    0.1395475459