19

 C    0.0186949436   -1.2106084136   -0.0799630283
 C   -0.0104467949   -0.0109256730   -0.0107046929
 C   -0.0206435693    1.4341489144    0.0957717823
 C   -0.9512242807    2.1093672289    1.1417782235
 C   -1.1483621824    3.1269127506    0.0009848157
 C   -0.0561658380    4.1949492854   -0.0338716358
 C    1.2851330048    3.5747740989    0.4288161579
 C    1.3837612007    2.0676393406    0.0874899708
 O   -0.7819898578    2.0987281393   -0.9670780417
 H    0.0358425859   -2.2703751115   -0.1473708729
 H   -1.8440196186    1.5093360791    1.3163037972
 H   -0.5181349794    2.4375536174    2.0881788866
 H   -2.1513688276    3.5196632691   -0.1830733007
 H    0.0104184362    4.5593069315   -1.0646494603
 H   -0.3199918277    5.0507290969    0.5984192000
 H    2.1324201948    4.1171408886   -0.0003759393
 H    1.3720316999    3.6941586859    1.5140119098
 H    2.0436782814    1.5548584697    0.7947709893
 H    1.7914960291    1.9105023819   -0.9159017010