17

 C    0.7516872707   -0.3004628055   -1.3179100343
 N    0.0230596314   -0.0461467487   -0.0718042041
 C    0.6694187024   -0.5474220434    1.1145330909
 C    1.9921935779    0.0508891841    1.3662344876
 N    3.0062618601    0.6013192206    1.4471399535
 C   -0.1868021575   -0.7789622693    2.4051678253
 C   -0.9340427590   -1.9360395492    1.7055266062
 C    0.5819335748   -2.0785502384    1.4433940214
 O    0.8390394233   -1.7397200112    2.8575488586
 H    0.8064134856   -1.3798658236   -1.4921268710
 H    0.1954303813    0.1432502053   -2.1469863864
 H    1.7756547813    0.1016048134   -1.3245929287
 H   -0.1450594735    0.9496614249    0.0310714393
 H   -0.5345376869   -0.0331502746    3.1194661263
 H   -1.3389030777   -2.6816155816    2.3887052989
 H   -1.5816971547   -1.6945784742    0.8650716998
 H    1.1565620806   -2.8944528485    1.0067630767