21

 C    0.0052860254    1.4704174281   -0.1264433190
 C    0.1061732006   -0.0348969111   -0.0102662043
 C    1.4319704091   -0.7526189385   -0.0832141888
 C    0.6576450187   -0.7406278352    1.2170624964
 C    1.1970016923    0.0407900938    2.3995401626
 C   -0.0551867242   -2.0180421994    1.5944055128
 O    0.8546745410   -2.9512125363    2.2053598813
 C    0.5785656182   -3.4022066520    3.4410225388
 O    1.2710271053   -4.1876278746    4.0157872740
 H    0.8687726351    1.9778961829    0.3116940418
 H   -0.0464530702    1.7680873207   -1.1793467944
 H   -0.8935533292    1.8526636011    0.3701416811
 H   -0.7211830738   -0.5540073447   -0.4906000209
 H    1.5009361054   -1.6806677358   -0.6407179630
 H    2.3294948371   -0.1438383533   -0.1268178168
 H    1.7424154938    0.9327630264    2.0845542299
 H    0.3900705376    0.3627198530    3.0693201930
 H    1.8901148938   -0.5762219583    2.9802637628
 H   -0.8836544800   -1.8137436887    2.2874639972
 H   -0.4662958410   -2.5112179187    0.7079612100
 H   -0.3516720950   -2.9675656298    3.8586533554