17

 O   -0.1178250330   -0.0573617849    0.0538202858
 C   -0.1036310973    1.1378373928    0.0306546253
 C   -1.1842111855    2.2319598946    0.1492730881
 C   -0.0575980827    3.1794234722    0.6895002315
 C    0.0311599849    3.1812781626    2.1858293863
 C    0.9505763777    2.4763694260    2.8441335829
 C    2.0201653012    1.6662832025    2.1669544030
 O    2.2032850974    1.9954705500    0.7942785577
 C    1.0179479492    2.2092087419    0.0982629935
 H   -1.5638191051    2.5357598601   -0.8315090061
 H   -2.0251150374    2.0106955305    0.8086504809
 H   -0.0685629866    4.1893665232    0.2733210184
 H   -0.7164821485    3.7521965273    2.7313645702
 H    0.9572186969    2.4534335544    3.9307743029
 H    2.9904530363    1.8440686008    2.6437355535
 H    1.8023297560    0.5908974251    2.2717906311
 H    1.2949922863    2.5025727308   -0.9207532950