19

 C    0.0503803608    0.6607104909    0.5574632907
 O   -0.2074335162   -0.4843534845   -0.2338962822
 C    0.6709169857   -0.6962197913   -1.3191777631
 C    2.1675236204   -0.6588550854   -0.9423477194
 O    2.4900550726   -1.3872460917    0.2184697278
 C    0.2453167450   -2.0360285128   -1.9134728088
 O    0.5458463650   -3.1129910801   -1.0129145623
 C   -0.4086231762   -3.4580957197   -0.1123082892
 O   -0.1876673502   -4.2219858579    0.7759805561
 H    0.9792414807    0.5549044866    1.1285097236
 H    0.0986578756    1.5731511365   -0.0559204628
 H   -0.7869463822    0.7524040268    1.2529096087
 H    0.5141606917    0.0710368953   -2.1011755361
 H    2.7426657668   -0.9900203020   -1.8239119383
 H    2.4669965181    0.3753285155   -0.7454167198
 H    2.1763736806   -2.2912809708    0.0969219199
 H   -0.8281702688   -2.0193597437   -2.1333278713
 H    0.7936751745   -2.2464997161   -2.8343100019
 H   -1.3804729337   -2.9773854656   -0.3149278914