15

 C   -0.0049174436    1.4922224777   -0.0096030607
 N    0.0017542537    0.0300228816    0.0017612468
 C    0.7039554592   -0.5193868347    1.1560656167
 C    2.1277478342   -0.1671054388    1.1457829943
 N    3.2483097129    0.1111207564    1.1591338810
 C   -1.3384246022   -0.5383870509   -0.0886976968
 C   -1.9864939668   -0.2053409490   -1.3616764450
 N   -2.5156108665    0.0575637178   -2.3537265110
 H    1.0238201584    1.8584635745   -0.0026654312
 H   -0.4873967830    1.8444153945   -0.9237445384
 H   -0.5378875910    1.9210407315    0.8583051457
 H    0.2796663087   -0.1862864365    2.1233038452
 H    0.6278159819   -1.6124690138    1.1344217381
 H   -1.2694654006   -1.6301216268   -0.0219503322
 H   -2.0081358353   -0.2075944935    0.7289766374