18

 O   -0.0978200656    1.3679241119    0.0574803928
 C   -0.0234488217   -0.0321118996    0.0778909056
 C   -0.6137895387   -0.7893220237    1.2517353008
 C   -1.3572338060   -0.7073232680   -0.0735221345
 O   -2.4692388137    0.1351677795   -0.1385183700
 C   -1.5197559831   -1.9303443464   -0.9424869599
 C   -2.7551181942   -2.7517154004   -0.5149986271
 C   -2.9515936006   -3.9384137541   -1.3424780391
 N   -3.0882869587   -4.8753214710   -2.0052307297
 H    0.3868115470    1.7167113065    0.8125224445
 H    0.8464671472   -0.4483286348   -0.4277392480
 H   -0.1391173715   -1.7189938439    1.5487093184
 H   -1.0244685853   -0.1975815846    2.0632107428
 H   -2.1233967750    1.0393653841   -0.1379863700
 H   -1.6365757488   -1.6207551444   -1.9863588999
 H   -0.6221526387   -2.5535111712   -0.8820114853
 H   -2.6564492318   -3.0648647508    0.5306589928
 H   -3.6470814306   -2.1204585892   -0.5747296343