19

 C    0.1253526164    1.2556582140    0.2105549881
 O   -0.1357353050   -0.0913682089   -0.1055128733
 C    0.5735937583   -0.5659307453   -1.2276252422
 C    2.1016491991   -0.7764060214   -1.0033548659
 C    2.4471740503   -1.9934695913   -1.8499143631
 N    2.0714875538   -3.2693895507   -1.2051943849
 C    1.1887983840   -2.6898448867   -2.2400203649
 C    0.0033101156   -1.9387295431   -1.6535153663
 H    1.1697298344    1.4202134609    0.5152093143
 H   -0.0927378925    1.9222652467   -0.6396684230
 H   -0.5267139789    1.5256957348    1.0450492764
 H    0.4460804868    0.1463097808   -2.0614492819
 H    2.6844158936    0.1010290873   -1.2972467325
 H    2.2915857060   -0.9790090925    0.0554926389
 H    3.3164554957   -1.9755987189   -2.4994800846
 H    2.6173951257   -4.0235427008   -1.6171948008
 H    1.0916194044   -3.2066283978   -3.1892554819
 H   -0.3843312995   -2.4543889056   -0.7702852477
 H   -0.8142867282   -1.8264803315   -2.3702762646