23

 C   -0.0702064799    1.5104263574    0.0402638362
 C    0.0306066839   -0.0230969226    0.0365528372
 C   -1.3944214875   -0.5871095174   -0.0676386435
 C    0.9873830449   -0.5781134362   -1.0938251270
 C    2.0412022057   -1.3025428954   -0.2335746943
 C    1.1560647630   -2.0385812706    0.8134567093
 C    0.8155530902   -0.5803564804    1.2564982093
 C    2.3004974379   -0.2420774748    0.8812089132
 O    3.2943803157   -0.5209814936    1.8381592588
 H    0.9032751001    2.0019804236    0.1060579072
 H   -0.5543547429    1.8646105133   -0.8767851322
 H   -0.6752487942    1.8573873858    0.8859116204
 H   -1.8734357646   -0.2437906787   -0.9917819517
 H   -1.4179666650   -1.6794529919   -0.0749702274
 H   -2.0125252781   -0.2453314139    0.7706755511
 H    0.4670526751   -1.2586176610   -1.7749885939
 H    1.4256234276    0.2254528823   -1.6944238426
 H    2.8659684626   -1.7961333427   -0.7498516699
 H    0.3532883405   -2.6842396695    0.4520175561
 H    1.7290692333   -2.5978369612    1.5583471814
 H    0.4185496088   -0.3521396680    2.2477681773
 H    2.5172039536    0.7741793085    0.5467659723
 H    3.1609150892   -1.4078110929    2.1864389526