18

 N   -0.0574496112    1.4875031387    0.0965530909
 C    0.0209532943    0.0206191115    0.0041404362
 C   -1.4313396090   -0.5453850721    0.0260168298
 N   -1.5230030940   -1.9537800727   -0.3052439500
 C   -0.9783440518   -2.2606209294   -1.6271329917
 C    0.2596817274   -1.4811332349   -1.9915341033
 C    0.7307670010   -0.4826286042   -1.2476609261
 C    0.7427502381   -0.4694868961    1.1941254460
 N    1.3052251028   -0.8920987309    2.1116898821
 H    0.8758834463    1.8854117258    0.1614022481
 H   -0.4630779178    1.8401559347   -0.7669701302
 H   -1.8778839114   -0.3582627940    1.0050051530
 H   -2.0049952526    0.0282257265   -0.7131301553
 H   -1.0445664820   -2.5019287870    0.4022661370
 H   -0.7722499157   -3.3358714179   -1.6792004968
 H   -1.7532224298   -2.0731505408   -2.3879876123
 H    0.7605643723   -1.7545508474   -2.9177213667
 H    1.6388051232    0.0487356903   -1.5219095506