17

 C    0.6065209113    1.4891671762    0.1919438270
 C    0.0425329365    0.0800832913    0.1242192929
 N    0.6178726633   -0.7349114824   -1.0015800979
 C    1.3344445647   -1.6221808631   -0.0370012792
 C    2.8121719385   -1.3367071076   -0.2085217685
 O    3.5373662790   -0.8429803999    0.6254078707
 C    0.6051841266   -0.9501339086    1.1614773225
 O    1.3228881741   -0.5222064449    2.2768810992
 H    1.7000562658    1.4811779244    0.2012308265
 H    0.2808970125    2.0729567092   -0.6744158165
 H    0.2642704830    1.9903016197    1.1026091934
 H   -1.0523722913    0.1155911366    0.1028297673
 H   -0.0904059561   -1.2309965804   -1.5297946861
 H    1.1715757735   -2.6998843264   -0.1672946057
 H    3.1922573365   -1.5697685067   -1.2264983328
 H   -0.2028691593   -1.5951932414    1.5224575944
 H    2.2411574311   -0.3877017659    1.9996199028