18

 C   -0.1765843957    1.4343986259    0.1004010399
 N    0.0297371958   -0.0073147197   -0.0386574434
 C    0.7493813194   -0.4586324815   -1.2366916475
 C    2.2122578783    0.0292174597   -1.3433777368
 C    0.6843429755   -2.0166986456   -1.1936994120
 C    1.3499336042   -2.6755387246   -2.3125513013
 N    1.8887976974   -3.1958510131   -3.1919149479
 C    0.0001265631    0.0068535608   -2.4231337215
 N   -0.5713562951    0.3809932495   -3.3543413401
 H    0.7462644357    2.0330845428    0.1358360710
 H   -0.7871906269    1.7963942298   -0.7310635034
 H   -0.7323982985    1.6115362249    1.0246127859
 H    0.5250389241   -0.3613092252    0.7740641148
 H    2.7734204072   -0.3160484267   -0.4686043392
 H    2.6954156473   -0.3604946185   -2.2424934612
 H    2.2554006473    1.1193899795   -1.3780396171
 H    1.1590339906   -2.3491045734   -0.2630381886
 H   -0.3642772496   -2.3222739844   -1.1515411417