12

 N   -0.0936385520    1.4722203631    0.0132332709
 C    0.0216237897    0.0143341492   -0.0204064557
 C    0.7007540328   -0.5540200411   -1.2836461915
 O   -0.0780779234   -0.0959466448   -2.3738236546
 C    0.7267223783   -0.4673396378    1.1741729725
 N    1.3118399379   -0.8594503656    2.0895897201
 H    0.8332799795    1.8880942433    0.0573747833
 H   -0.5013150679    1.7612890164   -0.8719939634
 H   -0.9964715106   -0.3955076638    0.0059318878
 H    1.7366245264   -0.1856797872   -1.3341186706
 H    0.7293883276   -1.6522621848   -1.2307295822
 H    0.3548406518   -0.3526968869   -3.1927500265