19

 O    0.0951988218    1.3425010035   -0.2537756014
 C    0.0536638321   -0.0471210934    0.0204104077
 C    0.6784129221   -0.7820508936   -1.1759174426
 O    0.0305248689   -2.0398945654   -1.2224881986
 C   -1.3492180911   -1.7723785080   -1.0010008045
 C   -1.3973389741   -0.6563414920    0.0730917265
 C   -1.5471930747   -1.1370305714    1.4902620356
 C   -0.4274560935   -1.0047291455    2.1996323510
 C    0.6961305743   -0.4093841428    1.3939748193
 H   -0.2678210950    1.8082144269    0.5065584203
 H    0.4896367027   -0.1916940469   -2.0869847627
 H    1.7527810639   -0.9552345609   -1.0812087653
 H   -1.8259808659   -1.4296440443   -1.9331027524
 H   -1.8249403374   -2.7057707636   -0.6890568024
 H   -2.1420868148    0.1002311249   -0.1966321438
 H   -2.4763623600   -1.5550941848    1.8637691085
 H   -0.3057857991   -1.3016694061    3.2358949472
 H    1.5202972741   -1.1239911831    1.2764754565
 H    1.1344392558    0.4854226767    1.8550847412