18

 C   -0.2531246252    1.4037203095    0.1481463454
 C    0.1987497088   -0.0495481579   -0.0480882586
 N    0.8400843038   -0.5976101411    1.1363584298
 C    0.1069339899   -1.1754498351    2.0012082565
 N   -1.2503276846   -1.4539423925    2.1052574048
 N   -1.5427509777   -2.1447471399    3.2488448351
 N   -0.4601097045   -2.3117167730    3.8843602060
 N    0.5558184668   -1.7443660138    3.1841374827
 C    1.9242816579   -1.7797934629    3.6375631172
 H    0.5950882920    2.0247835232    0.4498105259
 H   -0.6714507655    1.8125912499   -0.7777623780
 H   -1.0164491965    1.4817314893    0.9302326307
 H   -0.6599846945   -0.6590845064   -0.3852151033
 H    0.9260522215   -0.0857661699   -0.8671044146
 H   -1.9865644840   -1.2283186813    1.4618761049
 H    1.9456855280   -2.3117134331    4.5885120751
 H    2.5519900934   -2.2941477121    2.9041134266
 H    2.3070104805   -0.7633698930    3.7665505137