21

 C   -0.0789189714    1.5415354568   -0.0067894761
 C    0.0636381705    0.0207409376    0.0179915062
 C    0.7468793687   -0.5352931284   -1.2502438562
 C    0.9026064793   -2.0544764490   -1.2134382460
 O    1.5434911697   -2.4349589995   -2.4223574662
 C    1.7031197355   -2.4841261604    0.0218940365
 C    1.0503843072   -1.9735391943    1.3192873381
 C    0.8019976781   -0.4699614905    1.2663274394
 O    1.1620489878    0.2748538031    2.1482780483
 H    0.9022446129    2.0226361321   -0.0599792153
 H   -0.6649816490    1.8588915919   -0.8745839646
 H   -0.5693542915    1.9038065211    0.8993890963
 H   -0.9389401257   -0.4340615092    0.0729747438
 H    0.1732002452   -0.2495284612   -2.1377161890
 H    1.7436504013   -0.0887232541   -1.3610106080
 H   -0.1031001707   -2.5090501220   -1.1574879828
 H    1.6701442955   -3.3890543650   -2.4068232928
 H    1.7934956694   -3.5772086401    0.0552181838
 H    2.7196525215   -2.0828492353   -0.0721110476
 H    0.0780106897   -2.4681127270    1.4554005275
 H    1.6598893362   -2.1944787767    2.1982235246