16

 C    0.0063791463    1.4555444090    0.0006160937
 C    0.0119662758    0.0012130502   -0.0014673716
 C    0.0166599655   -1.2058861573   -0.0042992450
 C    0.0038286909   -2.6158093029   -0.0141115082
 C    0.8118442564   -3.6273934574    0.8470956590
 C   -0.3436784898   -4.6434168234    0.6914332390
 C   -1.1166561061   -3.6918487551   -0.1450241918
 N   -0.1796795021   -4.6649851844   -0.8062516838
 C    0.9372495150   -3.6381121395   -0.6473637917
 H    0.5803574557    1.8614618556   -0.8401697358
 H   -1.0157379999    1.8420437167   -0.0817896615
 H    0.4370943386    1.8587240709    0.9242780043
 H    1.5242517386   -3.4051601316    1.6280164603
 H   -0.6447598582   -5.5171110860    1.2561273479
 H   -2.1680645413   -3.6281360128   -0.3976185130
 H    1.7738550746   -3.5131526320   -1.3228570418