16

 C   -0.2448004188    1.5352156108   -0.0405920052
 N    0.1829082809    0.1374695038    0.0635837229
 C    1.4030145029   -0.4965323211   -0.2974533578
 C    2.7161391949    0.1871399895    0.2297455633
 N    2.3442481629    1.4458034413    0.9198631375
 C    2.2115513775    0.1500317341    1.6120902560
 C    0.8672957217   -0.5301948452    1.1299254160
 C    0.2480860950   -1.5910478623    1.8626549667
 N   -0.2189356218   -2.4450378335    2.4887685101
 H    0.4004085797    2.0932672314   -0.7204821599
 H   -1.2713913352    1.5480625476   -0.4233802592
 H   -0.2179912428    2.0312312310    0.9302697144
 H    1.4062275632   -1.2996284152   -1.0271324733
 H    3.7117936193    0.0051961199   -0.1500199514
 H    3.2058304558    1.8795720972    1.2502763778
 H    2.7166665147   -0.0807930092    2.5397074821