20

 C   -0.1351332305    1.5087618035    0.0909014845
 C   -0.0030328330   -0.0007994222    0.0414534519
 C   -1.2393094680   -0.7424017868   -0.4285515307
 C    1.3591772710   -0.5840088285   -0.3391369697
 C    0.8598414376   -0.6746924997    1.0683048670
 C    1.4507696036   -0.1476628682    2.3729545638
 C    1.0088860842   -1.5146715381    2.9371381126
 O    0.5001590569   -1.9331422924    1.6499324719
 H    0.7755551181    1.9847054136    0.4682277545
 H   -0.3300842775    1.9160458561   -0.9083494639
 H   -0.9651259188    1.8133403152    0.7397942479
 H   -1.4684107127   -0.4998471815   -1.4727494665
 H   -1.1087638191   -1.8237229986   -0.3447329912
 H   -2.1114014803   -0.4681901703    0.1765903726
 H    1.3684850461   -1.5053323217   -0.9132676098
 H    2.1763326503    0.0970727616   -0.5602911903
 H    2.5289727979    0.0240789898    2.3617829383
 H    0.9507496297    0.7238232294    2.8007067015
 H    1.8141841260   -2.1707378747    3.2858685570
 H    0.2173206784   -1.4820161863    3.6947750686