17

 O    0.0126485958   -0.0827140516    0.0895194073
 C   -0.0079729675    1.1301349962    0.0284977571
 C   -1.2943754127    1.9582076920   -0.0182720976
 N   -1.1583127072    3.4189640645   -0.0912126042
 C   -0.0733704530    3.9377242319   -1.0337844336
 C   -0.0686779859    5.2224300145   -0.1775706087
 C   -0.0807192951    4.0301265170    0.8031749317
 C    1.0098442016    3.3489656013   -0.0790154151
 N    1.1072364091    1.9148588809   -0.0064819159
 H   -1.8784225289    1.6183061066   -0.8806827088
 H   -1.8853730939    1.7063408187    0.8692426247
 H   -0.1562329576    3.8314559582   -2.1170198264
 H    0.8313866772    5.8388444097   -0.2049768195
 H   -0.9919857059    5.7985109476   -0.2102418487
 H   -0.1722692464    4.0330619070    1.8909101010
 H    2.0077898964    3.7945782101   -0.0974371393
 H    2.0038676441    1.4544354253    0.0201985461