20

 C   -0.1041715554    1.4714749267   -0.0750054696
 C    0.0521732708   -0.0107971788    0.0552597633
 C    0.9221713275   -0.8493718180   -0.8299441219
 C    1.1268992444   -2.1732069745   -0.0946358883
 C    1.9250819027   -2.0793006288    1.2142114713
 C    1.0257161906   -1.2023538870    2.1456606430
 C   -0.2088943772   -0.8867452543    1.2865376653
 C   -0.3785210451   -2.0052633498    0.2313783884
 N   -0.5768038151   -0.9785006185   -0.9103812319
 H    0.6565941780    2.0018945510    0.5096084777
 H   -0.0030486080    1.7786116709   -1.1206521647
 H   -1.0895126528    1.7958591994    0.2766911347
 H    1.4992481115   -0.4310296100   -1.6478575673
 H    1.3815443039   -3.0055983583   -0.7519677715
 H    2.0874293007   -3.0725134114    1.6458862878
 H    2.9131758317   -1.6376883530    1.0512240414
 H    0.7449483269   -1.7502112121    3.0512240631
 H    1.5313442936   -0.2884210640    2.4731882178
 H   -1.1108967846   -0.6048407714    1.8328017249
 H   -1.0693711041   -2.8390548582    0.3393476366