16

 C   -0.0298282284    1.4698452519   -0.1114310471
 N   -0.0082237305    0.0055812220   -0.0262598518
 C   -0.0032103293   -0.6264536486    1.2202662644
 N   -0.0171231091    0.0388623099    2.3005580425
 C    0.0082338766   -0.7948968806   -1.1453933173
 O    0.0269338700   -2.0017431134   -1.1541479244
 O    0.0001305775   -0.0100939151   -2.2690894782
 C    0.0152254623   -0.6507692676   -3.4851208208
 N    0.0079040727    0.0629430512   -4.5191316723
 H    0.8534541929    1.8358217608   -0.6380174432
 H   -0.9214351647    1.8095045034   -0.6416515791
 H   -0.0375473228    1.8435900976    0.9105244230
 H    0.0135620048   -1.7114547195    1.1174352854
 H   -0.0104819590   -0.5913147907    3.0995689100
 H    0.0322205233   -1.7359850104   -3.3882135079
 H    0.0207430738   -0.5305519907   -5.3472265331