17

 C    0.1143442027    1.4912912312   -0.1435380221
 C   -0.0685386401    0.0168929164    0.0981647119
 C   -1.3931195049   -0.6647814460   -0.2744518718
 C   -1.5224621213   -1.8701209439    0.6571980252
 N   -0.5009656208   -2.9166633623    0.4738373238
 C   -0.3342603484   -1.9217022076    1.5545111310
 C    0.5652513424   -0.7598168385    1.1850712138
 O    1.0814022349   -0.8049797584   -0.1470033200
 H    1.0968573303    1.8153380986    0.2087415701
 H    0.0469003046    1.7203565939   -1.2131065068
 H   -0.6561596701    2.0738073790    0.3727571552
 H   -2.2245392095    0.0274324822   -0.1000782374
 H   -1.4086621024   -0.9518123804   -1.3305445939
 H   -2.5105458131   -2.1641433602    0.9980125814
 H   -0.8445897163   -3.7837644355    0.8819980301
 H   -0.3917756189   -2.2359452361    2.5908493786
 H    1.2201091109   -0.3196454026    1.9333677211