15

 N   -0.0954706553   -1.0572455574   -0.4364000689
 C   -0.0820670796    0.0757315065   -0.2069990504
 C   -0.0459456737    1.4992466951    0.0758160202
 C    0.0145695477    1.9426457180    1.5657015798
 O    1.2188992561    2.6973189836    1.3325181267
 C    1.3166621144    2.2075345152   -0.0034718613
 C    2.5962120220    1.7246750453   -0.5934402434
 C    1.9245234224    2.9934065412   -1.1102625167
 H   -0.8294115991    2.0081108990   -0.4908399991
 H   -0.8124864607    2.5754643894    1.8997644474
 H    0.1694473271    1.1215424548    2.2729645669
 H    3.4868858358    1.8435704468    0.0137213360
 H    2.5770211440    0.8332024732   -1.2117602004
 H    1.4509674201    2.9718642739   -2.0865614863
 H    2.3757931185    3.9428961554   -0.8428900405