16

 C   -0.0097955241    1.5442548635    0.0353637764
 C    0.0384276500    0.0049204577    0.0065124538
 C    0.7451022183   -0.5170713280   -1.2586447171
 C    0.6897364102   -0.5315421300    1.2416754165
 N    0.1769341516   -1.2944937761    2.1641668442
 C    1.2357537555   -1.4494971431    3.0246087305
 N    2.3322656029   -0.8338972975    2.6812780144
 O    1.9717291564   -0.2126929297    1.4769412281
 H    0.9995295932    1.9658545195    0.0432572620
 H   -0.5293937427    1.9168066693   -0.8521336886
 H   -0.5395063270    1.9091957615    0.9198462316
 H   -0.9836622923   -0.3843834552    0.0305846113
 H    1.7811175421   -0.1683794993   -1.2986752323
 H    0.7511194666   -1.6103048396   -1.2886366715
 H    0.2270042943   -0.1536470876   -2.1507882274
 H    1.1849406349   -2.0347140855    3.9313862981