21

 C   -1.0473676513   -0.2851407379    0.9592619637
 C    0.3806704066   -0.0815403622    0.4374586941
 C    0.6287842131   -0.5401297046   -0.9991972391
 C   -0.0970725409    0.2839376617   -2.1007089723
 C    1.3182165015    0.7039630480   -2.5355031641
 O    1.9260718088   -0.0573324566   -1.4704706411
 C    0.6046193970   -2.0368054330   -1.2548771579
 C    0.8825263888   -3.0696663168   -0.2509341070
 O   -0.4518981063   -2.8346511932   -0.7126917283
 H   -1.7759153825    0.2411663900    0.3328245302
 H   -1.3255123783   -1.3395529950    0.9701902136
 H   -1.1389176062    0.1146875772    1.9736874962
 H    0.6363488840    0.9839870321    0.4666728549
 H    1.1048268390   -0.5757844621    1.0957552604
 H   -0.6668348293   -0.3010041835   -2.8245962386
 H   -0.7250088832    1.0908857673   -1.7205095271
 H    1.6367329637    0.3494561471   -3.5235294590
 H    1.5491604295    1.7728927352   -2.4562716026
 H    0.8477724167   -2.2815392083   -2.2908640283
 H    1.3252544577   -4.0124923613   -0.5683660934
 H    1.0706762215   -2.7960665039    0.7843911756