21

 C    0.0014616126    1.5765833209    0.0350174095
 C    0.0089073242    0.0392769569   -0.0226680146
 C    0.7581708351   -0.5476989683   -1.2383534398
 C    2.1748595724   -0.8219299777   -0.7298780864
 C    3.2549816740   -1.3496713442   -1.6265020523
 C    3.3207244477    0.0777605691   -1.1307184605
 C    2.0171819295   -1.2606301638    0.7166401342
 C    0.7667025109   -0.5169018354    1.1987374516
 O    0.4308774495   -0.3684442799    2.3454703678
 H    1.0157939442    1.9816108980   -0.0429804039
 H   -0.5913545953    1.9898216738   -0.7865955234
 H   -0.4277264282    1.9157001711    0.9815108204
 H   -1.0266923069   -0.3124642851    0.0315158322
 H    0.2891531856   -1.4895187857   -1.5500896668
 H    0.7494026679    0.1199027603   -2.1052543152
 H    3.9610240989   -2.0649262185   -1.2169816103
 H    3.0146056170   -1.5141615940   -2.6723191075
 H    3.1269629541    0.8728063903   -1.8434797582
 H    4.0677756372    0.3230138837   -0.3826097203
 H    1.8048463897   -2.3379088807    0.7860459448
 H    2.8734555198   -1.0583907409    1.3646419190