22

 C   -0.0037304124    1.5467326272   -0.0240737462
 N   -0.0222305167    0.0941075850    0.0843547128
 C   -1.2644500575   -0.5898268293    0.5365732840
 C   -1.6425980035   -0.0101364013    1.9337191881
 C   -0.3300449303   -0.6228901374    2.4108002688
 C   -0.3520029302   -1.6490012762    1.2817715531
 C   -0.2646055871   -3.1379248400    1.2320132636
 C    0.6611189810   -0.5515653253    1.2052191466
 C    2.1503493169   -0.5782056163    1.3518434174
 H    0.9893606129    1.8676278251   -0.3562420799
 H   -0.7242418018    1.8577072472   -0.7882543082
 H   -0.2359106410    2.0841181730    0.9090722542
 H   -2.0210841528   -0.7817310676   -0.2245068151
 H   -1.8138974671    1.0676663740    2.0267439072
 H   -2.5004991230   -0.5489485263    2.3461779800
 H    0.0172847065   -0.7667166380    3.4273477662
 H   -1.1897433472   -3.6115921852    1.5807475506
 H   -0.0706662909   -3.4928465236    0.2133483461
 H    0.5490488455   -3.4997167481    1.8703677801
 H    2.6268001824   -0.9135112315    0.4244224951
 H    2.5491414742    0.4122439966    1.6002195732
 H    2.4467031321   -1.2603523919    2.1550757222