22

 C    0.0433363482    1.2748399275    0.4910257959
 C   -0.0512996906   -0.1423516348   -0.0926936978
 C    0.9039386696   -1.0930086155    0.6421119683
 C   -1.4935965484   -0.6767021089   -0.0641214821
 C   -2.5061536573    0.2179284267   -0.7796975597
 O   -1.4562296309   -1.9710229073   -0.7002765780
 C   -2.4730597138   -2.8588957288   -0.3305345195
 C   -2.3474760105   -3.3388540403    1.0628229536
 N   -2.2465558053   -3.7037131343    2.1545182380
 H    1.0865473699    1.6043991558    0.5109071006
 H   -0.5217225959    2.0073669143   -0.0912705245
 H   -0.3281576497    1.3021405749    1.5225844803
 H    0.2453650147   -0.1035578980   -1.1503472723
 H    0.6521384255   -1.1540470996    1.7075733385
 H    0.8567735511   -2.1009250386    0.2264935622
 H    1.9355416845   -0.7354899211    0.5649207080
 H   -1.7934479376   -0.8104774880    0.9871911870
 H   -3.4881946714   -0.2616941185   -0.8376237791
 H   -2.6419280054    1.1633836804   -0.2491196029
 H   -2.1732892153    0.4328084188   -1.8000945461
 H   -3.4796776739   -2.4312233273   -0.4497608288
 H   -2.4038860975   -3.7211011972   -1.0013114614