16

 N    0.0675983377   -1.1272225417    0.0888316657
 C   -0.0091242518    0.0278353053    0.0337865719
 C   -0.0579249117    1.4403410986   -0.0514948578
 C   -1.1438672047    2.2360768267   -0.0400560154
 C   -0.6133682246    3.6597009538    0.0017265819
 C    0.6451580790    3.5380062772   -0.8694672903
 C    1.1697902172    2.3508799730   -0.0207059498
 C    1.1273968663    3.0291713513    1.3803579240
 O   -0.0500139792    3.8471941447    1.3305128623
 H   -2.1773489411    1.9317642051    0.0537748099
 H   -1.3171284181    4.4674642065   -0.1853407605
 H    0.4422684272    3.2641187118   -1.9054853416
 H    1.2765944066    4.4286389178   -0.8215066047
 H    2.1208261622    1.8958382032   -0.2889365017
 H    1.0508415815    2.3066883568    2.1996595171
 H    2.0074328335    3.6629052100    1.5423655691