18

 C    0.0578113869   -1.2164219313   -0.0906746755
 C    0.0511616875   -0.0189120193    0.0144645302
 C    0.0328637879    1.4347330543    0.1130835519
 C    1.4423967398    2.0837759928    0.0385360032
 C    1.3154844225    3.5360624715   -0.0928102395
 C    1.1941585188    4.7252516480   -0.2124083652
 N    2.2021448674    1.7584650616    1.2489553781
 C    3.0487469655    0.5675000076    1.1825229641
 C    3.6504595546    1.9271574346    1.1593485574
 H    0.0567063867   -2.2750387103   -0.1726950128
 H   -0.5796974095    1.8495546211   -0.6948844769
 H   -0.4250895858    1.7468877149    1.0576423462
 H    1.9445794839    1.6986045454   -0.8679802827
 H    1.0973740418    5.7776987722   -0.3169131421
 H    3.0717239992   -0.0360323864    2.0845980765
 H    3.0551393048   -0.0012172791    0.2559563121
 H    4.0654041265    2.2737055480    0.2146593023
 H    4.1266923215    2.3416658944    2.0426329426