18

 O   -0.1305692304   -0.0064330650   -0.1315703563
 C   -0.0213831729    1.1829249445    0.0413907111
 C    1.2667601949    1.9331561307    0.0003315700
 C    1.4504267276    3.1468087119    0.9586070690
 C    2.1702409927    3.9523827149   -0.1505097516
 C    3.5898382447    3.4243794155   -0.4458755364
 N    3.0629810096    2.2544006942   -1.2335072927
 C    2.5771299252    1.1837067188   -0.2956846679
 C    1.6848928114    2.8953062317   -1.1881415482
 H   -0.9201580328    1.8182684014    0.2283545967
 H    0.4758907428    3.5924218363    1.1872322779
 H    1.9840005369    2.9646847809    1.8966576501
 H    1.9862294758    5.0253682760   -0.2058230815
 H    4.1549408007    4.0849410855   -1.1108033348
 H    4.2257865202    3.1563283633    0.4054720154
 H    3.2441778875    0.9760620154    0.5474868504
 H    2.3933388385    0.2555089098   -0.8425628837
 H    1.1264821575    3.0606144641   -2.1088528574