22

 C   -0.0224893290    1.5713733523    0.0106978775
 C    0.0170625098    0.0407796286    0.0020982816
 C    0.6937400591   -0.5025878434   -1.2677398314
 C    0.7546109417   -2.0349361071   -1.2896277235
 C    1.4625375319   -2.5754135055   -0.0257332402
 C    0.7789034913   -2.0486181051    1.2571485341
 C    0.7178418502   -0.5161346048    1.2528578740
 C    1.5147962116   -4.0381801299   -0.0341115247
 N    1.5429212011   -5.1938781743   -0.0405838938
 H    0.9907569838    1.9901452174    0.0032543686
 H   -0.5489035294    1.9606668909   -0.8670975000
 H   -0.5319723398    1.9511577093    0.9025371849
 H   -1.0197465755   -0.3286385988    0.0100215562
 H    0.1637652679   -0.1455450354   -2.1581218951
 H    1.7136094691   -0.0959959126   -1.3316139678
 H   -0.2599016049   -2.4502238985   -1.3278572437
 H    1.2745542345   -2.3893979708   -2.1849694253
 H    2.5014644160   -2.2167057395   -0.0337064674
 H   -0.2347458326   -2.4643853917    1.3102521479
 H    1.3157965093   -2.4126368929    2.1385441912
 H    1.7387939465   -0.1101570806    1.3015975073
 H    0.2050217273   -0.1687390276    2.1569905797