19

 C    0.0034089505    1.5232596809    0.0495061922
 C    0.0077602210    0.0236772320   -0.0368181529
 C   -0.0147784159   -0.6464917891   -1.1932359119
 C   -0.0175208140   -2.1673712725   -1.1570360738
 O    0.7849480987   -2.5912251840   -0.0512387741
 C   -0.0429221487   -2.2668193168    1.0670652845
 C    0.0401455924   -0.7340689736    1.2814268312
 C   -1.4283487366   -2.6808100464    0.5859541230
 C   -1.4162358246   -2.6349531971   -0.7428890024
 H    0.8828785545    1.8934734254    0.5924071852
 H   -0.0012941528    1.9829375870   -0.9427026386
 H   -0.8756862989    1.8868871555    0.5979024729
 H   -0.0605116060   -0.1335880806   -2.1497023598
 H    0.3804513573   -2.6169931431   -2.0696033461
 H    0.3210478345   -2.8145838655    1.9404023855
 H    0.9688168294   -0.4899017418    1.8147698100
 H   -0.7806112735   -0.3920057591    1.9283696385
 H   -2.2681770132   -2.8790186326    1.2389683909
 H   -2.2407405643   -2.7822669386   -1.4277433644