20

 C    0.1909281146    1.4982865621    0.0647992125
 C   -0.1035151961    0.1143456670    0.6119755871
 O    1.1082628586   -0.6551659266    0.5481752183
 C    1.0171968064   -1.9176943515    1.0390524717
 C    1.2358827569   -2.4090438249    2.3063578613
 C    1.6054000178   -1.6010003596    3.5125038490
 C    1.0495351870   -3.8245622199    2.2177817680
 C    0.7304096098   -4.1382235529    0.9195997649
 N    0.7016662512   -2.9651866523    0.2029094739
 H    0.5381607525    1.4382272093   -0.9706521648
 H   -0.7115138628    2.1161035281    0.0935651119
 H    0.9676055988    1.9887216347    0.6582277404
 H   -0.4495076702    0.1617379990    1.6526925751
 H   -0.8871079630   -0.3848266359    0.0243502695
 H    0.8048283987   -1.5813049344    4.2623933793
 H    2.4967668942   -2.0022241383    4.0082588242
 H    1.8228236756   -0.5669633523    3.2291461072
 H    1.1453211211   -4.5293520500    3.0305167332
 H    0.5275513006   -5.0848027125    0.4458708048
 H    0.5718620684   -2.8742483690   -0.7893883175