17

 C   -0.5051077191    1.1017961171   -0.0656061823
 C    0.0084590484   -0.3019672860    0.2154296537
 C    1.3234893725   -0.7453575992   -0.4648570661
 O    1.9290905175   -1.1052288577    0.7927949438
 C    0.8075134386   -0.6033672721    1.5313861831
 C    1.1325830255    0.6093877216    2.3776428873
 O    2.1604718827    1.2295364211    2.3212441413
 C    1.2584616492   -1.9277146961   -1.4079115947
 O    0.3773534740   -2.0908590755   -2.2116853615
 H    0.2692344407    1.8575747035    0.0980842745
 H   -0.8332621533    1.1728377297   -1.1071647359
 H   -1.3626825212    1.3478066079    0.5687532120
 H   -0.7840075840   -1.0353074960    0.0524478188
 H    1.8731583956    0.0719855844   -0.9577692003
 H    0.3599650920   -1.3720244624    2.1774204116
 H    0.3058702778    0.9019644599    3.0674128962
 H    2.1003637232   -2.6454402102   -1.2888355914