20

 C    0.1260773261    1.6151609428   -0.1390723440
 C    0.0574798466    0.0910089056   -0.0271558454
 C    0.6800394974   -0.6241097054   -1.2251453654
 N    2.1456801175   -0.5924797650   -1.2034054882
 C    1.4221665441   -1.8317607129   -0.7730398896
 C    1.3059904538   -1.8958968150    0.7224796380
 O    1.5516428641   -2.8548410910    1.4104537740
 C    0.7456926624   -0.5496609468    1.2228496565
 C    1.8595603309    0.2653647361    1.9044723045
 H    1.1603043194    1.9561428326   -0.2317122517
 H   -0.4219041277    1.9588823489   -1.0232346301
 H   -0.3193488278    2.1020137699    0.7341276075
 H   -0.9993914943   -0.2053529385   -0.0033506655
 H    0.1664121646   -0.6116020221   -2.1820987258
 H    2.5062144855   -0.7597693180   -2.1403399091
 H    1.5243266513   -2.7420881964   -1.3514624902
 H   -0.0072400521   -0.7857587910    1.9815969668
 H    2.6566574369    0.5132340655    1.2007555152
 H    1.4639369327    1.1936114029    2.3266630713
 H    2.2889193686   -0.3212917219    2.7217771213