16

 C   -0.3350787371    1.1813872032   -0.1519082967
 C    1.1181036550    1.1019609524    0.2425644509
 C    0.3330147666   -0.1587326057    0.0054538501
 N    0.0014055902   -0.9511384418    1.1518307053
 C   -1.1036992004   -1.7490357752    1.1577191605
 N   -2.0782309952   -1.6754015822    0.2747518345
 O   -2.9862894575   -2.6595234293    0.7415276980
 C   -2.4321823891   -3.1917194787    1.8227359701
 N   -1.2822681554   -2.6986772507    2.1499674616
 H   -1.0487497858    1.4647044572    0.6117391020
 H   -0.5884577984    1.5007596604   -1.1557501968
 H    1.8750787940    1.3701164683   -0.4852853948
 H    1.3711024515    1.3416238463    1.2693707504
 H    0.5346253642   -0.7151368544   -0.9086380069
 H    0.7632440898   -1.3133556876    1.7054979339
 H   -2.9818622524   -3.9754487922    2.3243785080