18

 C   -0.0218559290    1.5551069328    0.0242574493
 C    0.0060163336    0.0235660988    0.0751110602
 C    0.6897052619   -0.4786043244    1.3511048015
 O   -1.3163139076   -0.5033388512   -0.0327667497
 C    0.7194516176   -0.5125106590   -1.2016493099
 O    2.0378653813    0.0189819700   -1.3182868413
 C    0.7288704277   -1.9736872140   -1.2740094868
 C    0.8149817152   -3.1714657262   -1.3309461559
 H    0.9899231220    1.9628899579   -0.0271188388
 H   -0.5814627032    1.8932850522   -0.8529851533
 H   -0.5121267537    1.9563249283    0.9186335899
 H    0.1691104333   -0.0966953962    2.2362887711
 H    0.6784949990   -1.5705961145    1.3866667996
 H    1.7254514986   -0.1291038823    1.4041697669
 H   -1.8252933370   -0.1794503587    0.7174808302
 H    0.1561856600   -0.1208874377   -2.0572905732
 H    2.6403183644   -0.6043575714   -0.8998947916
 H    0.8661389860   -4.2307108145   -1.3902678083