18

 C    0.5288856764    1.4941087237    0.3706402429
 N    0.3345528256    0.0558062971    0.2919845745
 C    0.4837609614   -0.5200656868   -0.8088341736
 C    0.3907094501   -1.9690484506   -1.2614925691
 C    0.8513459571   -1.4671313539   -2.6595248013
 C   -0.1264346098   -1.4007383937   -3.8568489809
 N   -0.6134073718   -0.0073015658   -3.9058808787
 C   -0.0723066489    0.6308022355   -2.9488792203
 N    0.8623059444   -0.0583592137   -2.1405780464
 H    1.0473870693    1.7347340264    1.3036918514
 H    1.1047706854    1.9052543740   -0.4704126518
 H   -0.4445896595    1.9978285836    0.4065744085
 H    1.0460829193   -2.6717805580   -0.7427496076
 H   -0.6324995217   -2.3560117429   -1.2454296445
 H    1.8495264207   -1.8055299745   -2.9432193744
 H    0.3723206267   -1.6457948743   -4.7995439925
 H   -0.9828276261   -2.0793204171   -3.7606828736
 H   -0.2882584186    1.6714550710   -2.7282594527