17

 O    0.0958419545    0.2312781909   -1.0165621094
 C    0.1437089000    1.0844242749   -0.1634196297
 C    1.2841214891    2.0812762394   -0.0768771133
 C    1.1676939033    3.1419790045   -1.2099042748
 C    2.5088831906    3.8990700287   -1.4733112730
 C    2.6811118185    2.9461556875   -2.6816981385
 N    1.2448931474    2.6000379507   -2.5799659058
 C   -0.0131459161    3.9875805004   -0.9714010203
 N   -0.9316106553    4.6557780867   -0.7573364477
 H   -0.6714312056    1.1944974352    0.5811203997
 H    1.2974238740    2.5779687151    0.8980015051
 H    2.2252239377    1.5412084898   -0.2194058329
 H    2.3470624937    4.9372618128   -1.7624037719
 H    3.2466281186    3.8486596465   -0.6722896160
 H    2.9602162295    3.4039507405   -3.6345322228
 H    3.3694978454    2.1158140918   -2.4772349095
 H    0.9899501648    1.6201647745   -2.6594409992