14

 O    0.0777567771    1.3722895593   -0.0862258120
 C    0.0618913296    0.0125813766   -0.0584430002
 C   -0.0219390415   -0.7102099355   -1.2415215481
 C   -0.0382597807   -2.1048197824   -1.2111865713
 C    0.0292118673   -2.7813261695    0.0016701960
 C    0.1137278825   -2.0600606065    1.1942732565
 C    0.1299023174   -0.6731890661    1.1641365973
 O    0.2105091266    0.1281618083    2.2776912023
 H    0.1404334997    1.6803839043    0.8266435357
 H   -0.0736089533   -0.1641234516   -2.1766722337
 H   -0.1040023723   -2.6578549657   -2.1415581346
 H    0.0168542452   -3.8648834085    0.0302053823
 H    0.1670946864   -2.5758938561    2.1496519062
 H    0.2535687560   -0.4186011466    3.0676354435