13

 N   -0.0026863190    1.3733122291    0.2511575158
 C   -0.0346197142    0.0063008843    0.0120534533
 C   -1.0668988094   -0.8777566880   -0.2261542940
 O   -2.3774325885   -0.5288050905   -0.3955852200
 C   -3.3304790580   -1.3423689427    0.1626279077
 O   -4.4899200470   -1.1241491296    0.0114845814
 N   -0.5887396381   -2.1384376478   -0.3144955892
 N    0.7031077050   -2.1121426208   -0.1438463353
 N    1.0423470796   -0.8146864191    0.0597642420
 H    0.6347090401    1.8830727729   -0.3498831108
 H   -0.9294084172    1.7747951348    0.1758650976
 H   -2.8872299504   -2.1741043305    0.7306687270
 H    2.0059656871   -0.5761205821    0.2321215445