20

 C    0.4602450141    1.3036387717    0.2228833215
 C   -0.4019864627    0.1436202388   -0.2827494786
 N    0.1691560397   -0.5326756778   -1.4359066679
 C    0.8318981662   -1.7241922212   -1.3368331021
 O    0.9564009843   -2.3456470543   -0.2948881016
 C    1.3723790257   -2.1944254249   -2.6035737240
 C    1.8404076701   -2.6226075654   -3.6294215046
 C    2.4182429988   -3.1711682323   -4.8497898819
 C    3.1149793415   -4.5268595475   -4.6319538224
 H    1.4458783823    0.9433023462    0.5303146777
 H    0.6002112688    2.0642137709   -0.5528817176
 H   -0.0151573191    1.7848262869    1.0836516413
 H   -0.5096340539   -0.6163457506    0.4938747146
 H   -1.4046937065    0.5004529126   -0.5455871920
 H    0.1663143272   -0.0711650688   -2.3312975261
 H    1.6277618844   -3.2761362456   -5.6041125364
 H    3.1329693525   -2.4479488045   -5.2633665389
 H    3.9281174115   -4.4330211355   -3.9077551173
 H    2.4086709393   -5.2690986163   -4.2516092283
 H    3.5303691259   -4.8940807223   -5.5748046354