16

 C    0.1057321445    1.4884509181    0.0580887319
 C    0.0141063549   -0.0001598179   -0.0016994881
 C   -0.0603627522   -0.7819548501   -1.0856697786
 C   -0.1127354017   -2.2574668388   -0.7657296987
 C    0.2169796773   -2.2433491445    0.7253952678
 O    0.7219513872   -3.1143978636    1.3862679505
 C   -0.0487085280   -0.8295264387    1.2634151352
 O    0.8777313488   -0.4622777820    2.2581296879
 H    0.9812467749    1.7893887372    0.6435778664
 H    0.1800752597    1.9277242370   -0.9402281570
 H   -0.7693611731    1.9186725061    0.5616538849
 H   -0.0819218032   -0.4113218716   -2.1048841228
 H   -1.1058691348   -2.7011730874   -0.9281554530
 H    0.6014278389   -2.8764984107   -1.3195573214
 H   -1.0774019445   -0.8023762536    1.6745908572
 H    1.2073226316   -1.2936317694    2.6289440679