14

 N    0.0240210472   -3.7311404398   -0.0531034839
 C    0.0320484991   -2.5690063119   -0.0315173190
 C    0.0381394505   -1.2056378952   -0.0033061865
 C    0.0394369785    0.0041608448    0.0195126750
 C    0.0445632435    1.4285951185    0.0507047469
 C    0.4486208086    2.2422520758    1.2878078374
 C    1.6382266181    1.5720675915    1.9676327570
 O    2.3824728971    1.5587859311    0.7125423311
 C    1.3278855873    2.2497023675    0.0719527805
 H   -0.7539596540    1.9066841314   -0.5119813659
 H   -0.2080177929    2.9898751683    1.7102471006
 H    2.1377117639    2.2192378061    2.6946200816
 H    1.4967652657    0.5687660868    2.3801552524
 H    1.5691835074    2.9910419251   -0.6809180772