18

 C   -0.2568482394    1.3343570136    0.0049255885
 O   -0.1334288721   -0.0680712990   -0.0684498428
 C    0.7918060132   -0.4860019293   -1.0430365094
 C    0.8338324722   -1.9926528470   -1.0014931403
 O   -0.0012719055   -2.7247751181   -1.8998368629
 C    1.4153062508   -2.8219643850   -2.0823895921
 C    1.9953007290   -2.2666313394   -3.3668774873
 C    1.9798198043   -4.1073183029   -1.6880601482
 N    2.4562385746   -5.1181439991   -1.3936057795
 H    0.7010620311    1.8140393259    0.2606497506
 H   -0.6144044811    1.7621189383   -0.9444590798
 H   -0.9844732032    1.5543279170    0.7888866432
 H    0.4970424714   -0.1363172586   -2.0434700653
 H    1.7973019116   -0.0827578318   -0.8261998834
 H    0.8592631494   -2.3969367232    0.0103407188
 H    1.5286493011   -1.3147433345   -3.6214640441
 H    3.0749938790   -2.1218014446   -3.2668538351
 H    1.8210671536   -2.9683968022   -4.1871999506