20

 O    0.4187276738    1.1771728976    0.6022628974
 C    0.0715787295   -0.0857178264    0.0261123338
 C   -1.4418094512   -0.3273764141    0.1164942562
 C   -1.8083460582   -1.7430614937   -0.2693883327
 N   -3.0238673389   -1.9445288687   -1.0822033555
 C   -1.6948344775   -2.1771590997   -1.6810902495
 C   -1.2379806197   -1.1959640888   -2.7502374118
 C    0.1387831960   -0.6130004964   -2.5090590791
 C    0.6682584788   -0.1809653885   -1.3613013049
 H    0.0700883278    1.8596871010    0.0175693625
 H    0.5820260787   -0.8129111910    0.6741125684
 H   -1.7607593133   -0.1076993576    1.1409158927
 H   -1.9687327754    0.3745015198   -0.5387436855
 H   -1.5867203119   -2.4942650962    0.4874042655
 H   -3.4629110911   -2.8293931693   -0.8413068167
 H   -1.3955997420   -3.2097847373   -1.8489363196
 H   -1.2505721878   -1.6905744425   -3.7275741198
 H   -1.9835917618   -0.3950434621   -2.8186285557
 H    0.7681768696   -0.5382501301   -3.3939342494
 H    1.6876593044    0.2015285138   -1.3871296363