23

 C    0.1702545520    1.6268100930    0.0338265466
 C   -0.0192359025    0.1030109790    0.0047134259
 C    0.5455451389   -0.4863409465   -1.3034790829
 C    0.0286754381   -1.8720899773   -1.7314529952
 C   -0.0947749945   -2.9509459023   -0.6417776790
 O    0.1232458102   -4.1953417077   -1.3032859764
 C    0.8648057073   -2.7901329336    0.5497131556
 O    0.3748674517   -1.8658872951    1.5007615550
 C    0.6544221619   -0.5040149907    1.2483876878
 H    1.2321279631    1.8931029246   -0.0339686613
 H   -0.3423589148    2.1011295985   -0.8085211579
 H   -0.2237460441    2.0644741913    0.9570090572
 H   -1.0943150380   -0.1145453482    0.0685037186
 H    0.3330667487    0.2069374358   -2.1258287770
 H    1.6406030601   -0.5086537007   -1.2186271091
 H   -0.9468748242   -1.7660769879   -2.2188351178
 H    0.7053022885   -2.2750182044   -2.4931820319
 H   -1.1063632429   -2.9200591582   -0.2085359975
 H   -0.1169638898   -4.9022074388   -0.6952783389
 H    0.9278319803   -3.7536069503    1.0707909171
 H    1.8815002859   -2.5296890839    0.2171295564
 H    1.7455390710   -0.3486287183    1.1705725668
 H    0.3115636631    0.0233779514    2.1450025080