21

 C    0.0776921338    1.3792180403   -0.0990906345
 O    0.0022109971   -0.0103063825    0.1221007582
 C   -1.3054141064   -0.5532546417    0.0753699980
 C   -1.8315259572   -0.7007657840   -1.3617153187
 C   -3.2181754159   -1.3708834576   -1.3883312176
 C   -3.2276859759   -2.6894153293   -0.6235355828
 O   -3.6917382009   -3.7062742781   -1.0828407879
 C   -2.6142392282   -2.6190611304    0.7699026913
 C   -1.2443819595   -1.9171565988    0.7653234378
 H    1.1166456003    1.6739952562    0.0680320681
 H   -0.2021557340    1.6642258914   -1.1237229239
 H   -0.5646641065    1.9366472166    0.6009436528
 H   -1.9928199680    0.1043051508    0.6394895981
 H   -1.8876491394    0.2736737932   -1.8568664914
 H   -1.1115160744   -1.3053311533   -1.9268105915
 H   -3.9501870574   -0.7063769137   -0.9062757926
 H   -3.5632408644   -1.5551396818   -2.4081409615
 H   -3.3102408416   -2.0507496592    1.4042411033
 H   -2.5518963840   -3.6310704930    1.1759324189
 H   -0.5083148237   -2.5347336429    0.2364744037
 H   -0.8757225939   -1.7912929122    1.7875553324