23

 C    0.1179207651    1.5643671693    0.0629450167
 C    0.0010460109    0.0307865095   -0.0151260804
 C    0.5677066811   -0.5857526234    1.2788880913
 C   -1.4866765791   -0.3645406904   -0.1284403297
 C    0.7828291327   -0.5397503498   -1.2646402859
 C    2.2305627044   -0.0438624358   -1.3782002175
 O    0.7357279856   -1.9695743099   -1.2706994352
 C    0.0413672921   -0.1678402831   -2.5534111060
 O    0.0708621827    0.9184029903   -3.0719052246
 H    1.1385568021    1.8822171678    0.2961229333
 H   -0.1778801751    2.0409466376   -0.8745846604
 H   -0.5328076009    1.9430721989    0.8584008500
 H    0.0359768280   -0.1757321949    2.1436046177
 H    0.4333480069   -1.6717004003    1.3039047480
 H    1.6298623232   -0.3610688425    1.4190574790
 H   -1.9817232992    0.1533070411   -0.9566402809
 H   -1.5936213896   -1.4415932423   -0.2820725305
 H   -2.0204295144   -0.0936343040    0.7881872483
 H    2.7874067242   -0.2044937360   -0.4502255122
 H    2.7360491671   -0.5909817143   -2.1791335570
 H    2.2566384981    1.0190487559   -1.6231358119
 H    1.3619574080   -2.2923201713   -0.6162513683
 H   -0.5318013137   -1.0141268125   -2.9891575440