16

 C    0.0333955112    1.4919899958   -0.0536084144
 C    1.4693326540    1.9893735021   -0.0456178326
 C    2.2476578609    1.9672392371    1.0530507413
 C    1.7024111741    1.4059812863    2.2315295307
 C    0.9703038758    0.8596810676    3.0251782470
 C   -0.2372729146    0.1115519211    3.3641991347
 O   -1.0732717172    0.0796855207    2.1857088294
 C   -0.4841650614   -0.5265842110    1.0952796246
 N   -0.0259195990    0.0297222615    0.0628702319
 H   -0.5261969811    1.9914326909    0.7475022307
 H   -0.4283040103    1.7537843101   -1.0103257316
 H    1.8753910814    2.3867246463   -0.9711495366
 H    3.2641351575    2.3455215949    1.0325885590
 H   -0.0071443063   -0.9097202771    3.6984575200
 H   -0.8419948749    0.5910705328    4.1382959321
 H   -0.4619108000   -1.6177777191    1.1659984338