14

 O   -0.1582731389    1.3153133309   -0.0275546136
 N    0.0222312653   -0.0833320801    0.0421886562
 C   -1.0901778652   -0.6823397552   -0.0507694240
 C   -2.5588623565   -0.2622167661   -0.0707571966
 C   -2.9100508741   -1.7568339424    0.0721806191
 C   -2.3428239634   -2.5261477482   -1.0746247999
 C   -1.4077306539   -2.1303437357    0.0549061396
 H    0.7433632303    1.6376253880    0.0735038599
 H   -2.8006526118    0.3424633268    0.8078487375
 H   -2.9303657529    0.2486091590   -0.9641862269
 H   -3.6792395787   -2.1552502881    0.7202211795
 H   -2.5826008440   -3.5844767648   -1.1000996157
 H   -2.2425929070   -2.0666767330   -2.0545190766
 H   -0.8603239594   -2.8666344512    0.6285464016