17

 C    0.1076984924    1.5589605914   -0.0282202682
 C    1.3677688225    0.7248790270   -0.0642597016
 C    0.0240034154    0.0608608934    0.0188698355
 C   -0.5333758239   -0.8309360270    1.1702694161
 N   -1.1174460078   -1.6669650082    0.0925222424
 C   -1.8193959120   -2.7037297326   -0.4408622993
 N   -1.7984838336   -2.6145813097   -1.7591646986
 C   -1.0642385709   -1.4911491533   -2.0927266646
 C   -0.6375190654   -0.8974535479   -0.9307218072
 H   -0.1141722844    2.1091434696    0.8804718455
 H   -0.2128068499    2.0514513880   -0.9396528228
 H    1.9095922892    0.6465710595   -1.0003551849
 H    1.9965616701    0.7119748652    0.8201057679
 H    0.2125514873   -1.3562475467    1.7723718067
 H   -1.2836879567   -0.3659490009    1.8150227015
 H   -2.3107627279   -3.4710596280    0.1359199026
 H   -0.9083299543   -1.2107679299   -3.1217840909