15

 O    0.2848375352    1.4155436232   -0.1957362100
 C    0.1101218465    0.0431283768    0.0566523413
 C    0.7214562009   -0.4516922643    1.3377629205
 C   -0.1028278382   -1.2741245353    2.0127006058
 C   -1.4535585257   -1.4154359933    1.3256170084
 C   -1.3700565801   -0.3249374695    0.2614136662
 O   -2.2746382430    0.2614840311   -0.2730514222
 C    0.1880233630   -1.9572383122    3.2166080355
 C    0.3886965223   -2.5579946571    4.2415658079
 H   -0.5457652117    1.7187282961   -0.5895279398
 H    0.4933482011   -0.5547326225   -0.7942968518
 H    1.7286031890   -0.1966455063    1.6408682764
 H   -1.5784976108   -2.3993720805    0.8543574052
 H   -2.3098881965   -1.2676212080    1.9902062977
 H    0.5820181378   -3.0799989082    5.1460716387