18

 C    0.2558335616    1.0890123010   -0.4831407286
 N    0.0171983093   -0.1275170336    0.2953460640
 C    0.4592666855    0.0123734916    1.6849540159
 C   -1.2933201756   -0.6298462699    0.1694021638
 C   -1.6289799110   -1.8892510360   -0.2912447194
 N   -0.8234107593   -2.9567087774   -0.6607551302
 N   -2.9778645667   -1.9094660415   -0.2229708389
 N   -3.4692342730   -0.7206432080    0.2428172439
 N   -2.4447550742    0.0348561740    0.4843265132
 H    1.3252941192    1.3245202714   -0.4648628485
 H   -0.0446393036    0.9232969103   -1.5209222469
 H   -0.2990879780    1.9588304964   -0.0986738627
 H   -0.0766537216    0.8091229176    2.2249599498
 H    0.2992739823   -0.9295015262    2.2158802455
 H    1.5300608288    0.2422951212    1.7029233718
 H    0.1400599869   -2.6414625440   -0.7075382162
 H   -1.0870204263   -3.3952466910   -1.5351496404
 H   -3.6157640442   -2.6575461859   -0.4393904961