20

 C    0.1683336787    1.6198453974   -0.0848346997
 C    0.0590940219    0.1090010423    0.0562468982
 C    0.8718643139   -0.8206330441   -0.8991613135
 C    1.2740276232   -1.7267623802    0.3033279195
 C    2.6916862222   -1.4603497147    0.8572470209
 C    2.1406835122   -0.2488405982    1.6721173882
 C    0.6839901494   -0.6425523358    1.2636253957
 O   -0.1676451199   -1.0269887113    2.3095406464
 H    1.2113356926    1.9547148354   -0.0799679571
 H   -0.2779097745    1.9583802512   -1.0265137002
 H   -0.3526634503    2.1386839223    0.7287156384
 H   -0.9951606493   -0.1893911349    0.0285337949
 H    0.2878626490   -1.3047244052   -1.6846424225
 H    1.7291762405   -0.3266281756   -1.3685109539
 H    0.9005730386   -2.7506001887    0.2861065295
 H    3.0548482896   -2.2637334072    1.5029934249
 H    3.4636297343   -1.2394711321    0.1144244609
 H    2.3032669199   -0.3237755161    2.7498754579
 H    2.4775653697    0.7358272506    1.3379924675
 H   -0.3217847216   -0.2583638853    2.8704920439