14

 C   -0.0088525964    1.5433044492    0.0633456196
 C    0.0054041077    0.0467329875    0.0049971944
 C   -0.0036862784   -0.7800319557   -1.1192967342
 N    0.0409614617   -2.0594097133   -0.6506555533
 N    0.0750386125   -2.1322641579    0.6758230649
 C    0.0550670112   -0.8583071716    1.0833496772
 C   -0.0542041870   -0.5212947121   -2.5486513470
 O   -0.0481452005   -1.4019301826   -3.3859866614
 H    1.0067302077    1.9548243614    0.0978737533
 H   -0.5098954900    1.9823470114   -0.8034375990
 H   -0.5297250855    1.8914046731    0.9598609284
 H    0.0389109403   -2.8912166655   -1.2201239971
 H    0.0725989804   -0.6352965845    2.1403927065
 H   -0.1004157238    0.5493063105   -2.8336746623