19

 C    0.2222366248    1.5724304975   -0.0116533122
 C    0.0618677380    0.0452889155   -0.0837587699
 C    0.6691337659   -0.6045376946    1.1824923685
 C    0.8105470169   -2.0519055573    1.0974010016
 C    0.9580748530   -3.2422219777    1.0239909781
 N   -1.2948098889   -0.4836364488   -0.2536307452
 C   -2.4614095965    0.2429589689    0.2267685397
 C   -2.2017030225    0.0813854894   -1.2341993471
 H    1.2845227570    1.8334991543   -0.0390967021
 H   -0.2573309128    2.0766085137   -0.8554109619
 H   -0.1935227706    1.9832813244    0.9143700701
 H    0.6265539639   -0.3196086223   -0.9500828766
 H    1.6515245765   -0.1548871579    1.3741542851
 H    0.0378560904   -0.3411940835    2.0416316118
 H    1.0724324468   -4.2954988041    0.9591985142
 H   -3.2149783325   -0.3595268187    0.7269861998
 H   -2.3389088985    1.2430215921    0.6368489173
 H   -1.9066988379    0.9749680600   -1.7820677009
 H   -2.7628137929   -0.6399488609   -1.8230384503