21

 C   -0.0470080791    1.5033297203    0.0501205866
 C   -0.0087296031   -0.0132212955    0.0306977820
 C    0.6466868585   -0.6724969152   -1.2289339124
 C    0.1363922718   -2.1469186776   -1.1816657103
 C   -0.7532632792   -2.1673013759    0.1025897258
 C    0.1862152284   -1.9662349081    1.2809228180
 C    0.6294067999   -0.7035378385    1.2324472440
 C   -1.3843009283   -0.7528383646    0.0136787212
 O   -2.2838792956   -0.3977343398    1.0324055604
 H    0.9571017149    1.9309828169    0.1470306739
 H   -0.4884018376    1.8978534775   -0.8716548550
 H   -0.6529466947    1.8624183676    0.8881048697
 H    0.3044293522   -0.1633757120   -2.1361283245
 H    1.7366305145   -0.5984126820   -1.2036646307
 H   -0.4616738434   -2.3891057870   -2.0654476398
 H    0.9486471877   -2.8747433839   -1.1239600479
 H   -1.4454936871   -3.0070917734    0.1673047776
 H    0.5102165468   -2.7491341212    1.9561013542
 H    1.3838368597   -0.2472301266    1.8634233838
 H   -1.9236810130   -0.5926555607   -0.9259423103
 H   -1.8300854232   -0.5587172201    1.8698272736