17

 O    0.1719217839    1.3485105877   -0.0804964513
 C    0.0997065591   -0.0372110090   -0.0918379475
 C    0.6969223457   -0.6709313096   -1.3374235890
 O   -0.0175768033   -1.9111230942   -1.4716906921
 C   -0.6899489625   -2.1348953005   -0.2309890283
 C    0.3492762226   -2.2540588067    0.9190852839
 C    0.3362062815   -0.7631877787    1.2868098460
 O   -1.0877694335   -0.5653080724    1.5820925124
 C   -1.2658447103   -0.7390905248    0.1516635172
 H   -0.2998880497    1.6469485131    0.7081494881
 H    0.5124715809   -0.0460773715   -2.2172323095
 H    1.7772423912   -0.8504273539   -1.2568944434
 H   -1.3797085894   -2.9658460605   -0.3634871927
 H    0.0020124235   -2.8519371345    1.7644161946
 H    1.3020889778   -2.6450908527    0.5554164709
 H    1.0091845635   -0.3735726674    2.0510090820
 H   -2.2235863709   -0.4067333543   -0.2447879314