24

 C    0.6513182402   -0.5609730433    1.4788146211
 C    0.0182903174   -0.0642945576    0.1739633724
 C    0.7884884964   -0.4280948931   -1.1252817059
 C    2.2585553990    0.0493473102   -1.1696200507
 C    2.8922108997   -0.2706712952   -2.5325387962
 C    2.3949075213    1.5469878002   -0.8636796951
 C    0.7168845538   -1.9459462475   -1.3216347974
 N   -0.2874626190   -2.3802739234   -2.1390056337
 O    1.4685034316   -2.7242871054   -0.7604907076
 H    0.8159180321   -1.6406318379    1.4547687636
 H    1.6189604923   -0.0849513389    1.6646026161
 H    0.0008071756   -0.3270369938    2.3274320137
 H   -0.9970326903   -0.4715496569    0.0878228618
 H   -0.0995472804    1.0241968163    0.2103170534
 H    0.2543363493    0.0560269998   -1.9562586306
 H    2.8034800667   -0.5212707520   -0.4098831353
 H    3.9419181172    0.0393155613   -2.5543641896
 H    2.8584795171   -1.3416217067   -2.7496213754
 H    2.3756175375    0.2609422689   -3.3418093879
 H    2.0544826344    1.8030007565    0.1431545865
 H    3.4417645666    1.8572751022   -0.9447660676
 H    1.8185418235    2.1509510135   -1.5757994370
 H   -0.8824665262   -1.7500979116   -2.6461084668
 H   -0.3948040757   -3.3717570153   -2.2789919918