20

 C    0.0065859326    1.5015029891    0.3562464043
 C   -0.0801546400    0.0811720824   -0.2312255335
 C   -1.4595034910   -0.5092998585   -0.1741262617
 C   -2.2429161840   -0.8127568138   -1.2142059234
 C   -3.5327147709   -1.4790716995   -0.8066973633
 O   -3.5681455888   -2.8552897922   -1.1984484033
 C   -3.5694903328   -1.2562100816    0.7297642610
 C   -2.1299921879   -0.8640421694    1.1406655841
 H    1.0283954734    1.8865456887    0.2862310254
 H   -0.6528405180    2.1876386203   -0.1842517969
 H   -0.2837342815    1.5194880908    1.4111267957
 H    0.2655311096    0.0966666851   -1.2707310017
 H    0.6138611136   -0.5695618543    0.3197372984
 H   -1.9711129821   -0.6826826175   -2.2568838305
 H   -4.4137647676   -1.0478020476   -1.2932987517
 H   -2.7124765248   -3.2350401280   -0.9695759945
 H   -4.2583339732   -0.4390923962    0.9647147316
 H   -3.9414767864   -2.1511093859    1.2344084674
 H   -1.5878323715   -1.6819004653    1.6362214018
 H   -2.1204207988   -0.0300073366    1.8512366307