24

 C   -0.0526036337    1.4254507620   -0.0342007536
 N    0.0467652403   -0.0183055101   -0.0399156317
 C   -1.0271718431   -0.6713148277    0.0056949507
 O   -1.0161772083   -2.0175771700    0.0001470931
 C   -2.2910629691   -2.6615993407    0.0729861690
 C   -2.0926445607   -4.1817257333    0.0111350254
 C   -1.2305218495   -4.6414818999    1.2005030226
 C   -3.4835973255   -4.8350590446    0.0895671295
 C   -1.4092036459   -4.5627244216   -1.3143823506
 H    0.4996964848    1.8297587567    0.8220165588
 H    0.4204026897    1.8315229080   -0.9358791916
 H   -1.0870114965    1.8051168151    0.0128481415
 H   -2.0329948135   -0.2227800638    0.0508933816
 H   -2.7911781895   -2.3829098179    1.0114896316
 H   -2.9217040761   -2.3273995961   -0.7631630298
 H   -1.7129425237   -4.4001589829    2.1545477965
 H   -1.0784665174   -5.7252715234    1.1684306112
 H   -0.2516965495   -4.1563313535    1.1845361807
 H   -4.1215740944   -4.5250912621   -0.7457981302
 H   -3.3954544324   -5.9254695058    0.0520593329
 H   -3.9975726043   -4.5758693715    1.0220770412
 H   -0.4331138403   -4.0801195067   -1.4044028555
 H   -1.2645978420   -5.6463335661   -1.3741357980
 H   -2.0177236394   -4.2592978840   -2.1739657652