23

 C   -0.2004627840    1.4596896028    0.5801765800
 C    0.0922552659    0.0087125303    0.2591813392
 C    0.5603977120   -0.4532735473   -1.0914730316
 C    0.8074242117    0.4980881137   -2.2243968352
 C    1.0921093587   -0.0308353383   -3.5932377720
 N   -0.1507183453    0.6781113147   -3.3228353767
 C   -1.3914088262   -0.0849081199   -3.3403465665
 N    1.4410753379   -0.5296708782    0.0798453218
 C    2.6141096889    0.3237576460    0.2013240034
 H    0.3531013872    2.1658835332   -0.0405631986
 H   -1.2666609221    1.6598564105    0.4303971956
 H    0.0307619751    1.6787414086    1.6286192910
 H   -0.5537495843   -0.6778060074    0.8080871167
 H    0.2288369378   -1.4376139979   -1.4179703502
 H    1.2870417043    1.4324483747   -1.9476164474
 H    1.7992214473    0.4671741365   -4.2522476983
 H    1.0440516582   -1.1134345286   -3.7151903576
 H   -1.2904880319   -1.1424832025   -3.0537791891
 H   -2.1162229292    0.3847921654   -2.6677694533
 H   -1.8018715076   -0.0519034383   -4.3547724058
 H    2.4777604676    1.3790414770   -0.0723745226
 H    2.9556121002    0.2934024222    1.2412974905
 H    3.4134411578   -0.0855065771   -0.4245610633