18

 C    0.0336790853    1.5895341656    0.0427748037
 C    0.1170784619    0.0972803873    0.0568502068
 N   -0.8061709488   -0.7611081623    0.8304855884
 C    0.6606352524   -0.8678164680    1.0370854726
 C    1.2651566767   -1.7338549061   -0.0985582894
 C    0.2713696564   -2.2143778791   -1.1418973865
 C   -1.0300513606   -2.8043820877   -0.9787426361
 C   -2.0681132937   -3.4127716274   -0.9794167962
 C    0.6948432703   -0.7556689629   -1.1169920255
 H    0.9629084960    2.0334857069   -0.3311498978
 H   -0.7836197064    1.9348015873   -0.6019401030
 H   -0.1430264886    1.9801154101    1.0508498789
 H   -1.1773745422   -0.1960229577    1.5948736830
 H    1.1071972054   -0.7115385116    2.0106952965
 H    2.2647441920   -2.1473612445   -0.0507772183
 H    0.8225327039   -2.7188868881   -1.9366935193
 H   -3.0064653107   -3.9055932364   -0.9250666350
 H    1.1907044908   -0.3058912554   -1.9689116526