21

 C    0.1476040852    1.4869147256    0.3758188180
 C   -0.0721512150    0.0068959121    0.0316825389
 C    0.6100328377   -0.4286348692   -1.2271962018
 C    1.0070016646   -1.7976175590   -1.7815298909
 C    0.3215740660   -1.5259122775   -3.1164129532
 C    0.5156021889   -0.0228702396   -2.7706272923
 C   -0.2430124533    1.0869845015   -3.4296158257
 O    1.9693279641    0.1349207440   -2.8260434831
 C    2.0246145809   -0.6497101442   -1.6384536657
 H    1.2135636878    1.7090027581    0.4857496782
 H   -0.2481833621    2.1399866670   -0.4081691967
 H   -0.3535846910    1.7492957655    1.3127224572
 H    0.2946718034   -0.6202245746    0.8551243161
 H   -1.1488365308   -0.1995777255   -0.0405539149
 H    1.0993037129   -2.7303343590   -1.2386375826
 H    0.7938441505   -1.8705567603   -4.0425093525
 H   -0.7333254010   -1.8133955844   -3.0926459828
 H   -1.3207957193    0.9439070300   -3.3059819684
 H    0.0348020068    2.0570462774   -3.0083568827
 H   -0.0211504223    1.1053252390   -4.5026374196
 H    2.9520063162   -0.7036376869   -1.0827048255