16

 O    0.0182515593    0.6391497822   -1.3192186686
 C   -0.0394998190    1.2876067448   -0.2961567923
 C   -1.3415650619    1.7503337090    0.2681927163
 C   -1.6273858864    1.6394356650    1.7448583228
 N   -1.4057236221    2.9363883120    1.1389631639
 C   -0.1779536428    3.6812861173    1.4190188021
 C    1.1463109422    2.9692040422    1.2250081894
 O    1.2899234656    1.6823301629    1.8119583913
 C    1.2194940528    1.7605548578    0.3751775098
 H   -2.1628736748    1.6393462981   -0.4345433687
 H   -2.6547893641    1.4428161581    2.0412668736
 H   -0.8592396194    1.2075449765    2.3746568463
 H   -0.1727613207    4.5651894252    0.7680160971
 H   -0.2441133857    4.0484585787    2.4500263721
 H    2.0331188757    3.6016037771    1.2967396354
 H    2.1346965414    1.4967247630   -0.1494622906