16

 O   -0.1314138715    1.4524329160   -0.1379448816
 C   -0.0398863521    0.0718155278   -0.0058807323
 C   -1.3310822308   -0.7226693936    0.1343700148
 C   -2.6527122170    0.0083846485    0.0368252946
 N   -3.1421824271   -0.0301331524   -1.3416990504
 C   -2.3573813318    0.1468983146   -2.4449344985
 O   -2.7599494412    0.4655113645   -3.5328477393
 O   -1.0091503556   -0.0651903243   -2.2599223533
 C   -0.5357343847   -0.7788804855   -1.1412582298
 H   -0.0975508414    1.6566518834   -1.0816997637
 H    0.8281212533   -0.2656181782    0.5545731976
 H   -1.3076924685   -1.6068191931    0.7608795070
 H   -3.3980649906   -0.4791155027    0.6699277217
 H   -2.5351123564    1.0429402726    0.3833600155
 H   -4.0941134071    0.2586932020   -1.5073555834
 H   -0.0122597275   -1.6828356496   -1.4334309589