18

 C   -0.2433031799    1.3914901865   -0.4018622775
 O   -0.2617411524   -0.0136950689   -0.4401913195
 C   -1.0398601078   -0.5740086719    0.5988211485
 C   -0.9956579736   -2.0721132850    0.4451742371
 C   -1.8915732401   -2.9782084969    1.2510539762
 O   -2.8343912668   -2.3367053924    2.0800285752
 C   -2.1275866318   -2.8284420065   -0.2337524071
 O   -3.2803651546   -2.1501488371   -0.6250011139
 H    0.3795829657    1.7341771261   -1.2318947160
 H   -1.2526611860    1.8184337373   -0.5159201171
 H    0.1821709956    1.7714302935    0.5415636698
 H   -0.6377520456   -0.2725951811    1.5810693736
 H   -2.0748823846   -0.2073517702    0.5440747240
 H    0.0068615176   -2.4525911624    0.2710396279
 H   -1.4742251502   -3.8949653780    1.6622877873
 H   -3.4971711665   -2.9901944689    2.3298187453
 H   -1.8832389628   -3.6413789787   -0.9103380476
 H   -3.7217584662   -1.8781416954    0.1917919238