17

 O   -0.1531046381    0.1601325265    0.6283953087
 C   -0.0824760602    1.3108837924    0.2533950486
 N   -1.1416132156    2.1706423903    0.1078526145
 C   -0.8366313238    3.4806544059   -0.4420951588
 C    0.6956748130    3.5434681507   -0.3230779619
 C    1.2848006846    3.8947098950    1.0773254462
 C    2.0268820740    2.5274391568    1.1016654016
 C    1.1841642129    2.0814330185   -0.1239267915
 H   -2.0808676031    1.8348887691    0.2516022042
 H   -1.1700629071    3.5674618931   -1.4859748976
 H   -1.3232597514    4.2796649644    0.1306682446
 H    1.1535292083    4.0987797509   -1.1420930315
 H    1.9099319290    4.7888131599    1.1247976663
 H    0.5108223256    3.9755069408    1.8460291589
 H    3.0871338548    2.6214995310    0.8553193639
 H    1.9308193978    1.9146418459    2.0005317794
 H    1.7057794391    1.5608605687   -0.9294045156