21

 C   -0.0650238466    1.5642798329    0.0462572931
 C    0.0343850216    0.0474133854   -0.0392582456
 C    0.7619511642   -0.5570753225   -1.2799530938
 C    0.3170251969   -1.9893811801   -1.7190232500
 C    1.5509040848   -2.6126462902   -0.9872186280
 C    1.8307396683   -1.2463168207   -0.3656064501
 C    3.0666102489   -0.5227314730    0.1436810393
 O    2.2700149652    0.1882052664    1.1278069228
 C    1.1059158170   -0.6325102150    0.8627655330
 H    0.9251135798    2.0221661538   -0.0213788668
 H   -0.6879636651    1.9577188087   -0.7641689879
 H   -0.5103416511    1.8787542273    0.9963695810
 H   -0.9553271916   -0.4016619791    0.1098132761
 H    1.0372486097    0.1252168093   -2.0875906847
 H   -0.6497045338   -2.2923286989   -1.3069051088
 H    0.2936833346   -2.1551256280   -2.7980422249
 H    1.3706810372   -3.4467710309   -0.3023939141
 H    2.3321210788   -2.9141371469   -1.6925069699
 H    3.8120695929   -1.1681460624    0.6309394394
 H    3.5785481928    0.1561088700   -0.5497773067
 H    0.7862736653   -1.1828750961    1.7547895764