23

 C    0.2720111625    1.4975562000   -0.3971786125
 C    0.0860967123    0.0427606171   -0.0486887307
 O    1.2717386158   -0.7440281316    0.1273264125
 C    0.4125906566   -0.5356733060    1.2621720688
 C    1.0099103639    0.2398017082    2.4463595475
 C    0.6054494863   -0.5702697004    3.6967049837
 C    0.3877577258   -2.0081537930    3.1821999868
 C   -0.3842300402   -2.9153934456    4.1360726355
 C   -0.2941037238   -1.7664544209    1.8227813707
 H    1.0524551697    1.9555853278    0.2146941288
 H    0.5571221482    1.6046456507   -1.4491165946
 H   -0.6616673754    2.0510642602   -0.2464133326
 H   -0.6880707083   -0.4650473822   -0.6306677863
 H    2.0972060091    0.2655425283    2.3237770808
 H    0.6656321058    1.2770674603    2.4907939862
 H    1.3477144296   -0.5123466216    4.4980466975
 H   -0.3398454911   -0.1899350299    4.1057625889
 H    1.3743556572   -2.4529283044    2.9896419207
 H   -1.3806217236   -2.5068639269    4.3435007971
 H   -0.5170444424   -3.9181454465    3.7161868536
 H    0.1368621465   -3.0230978643    5.0935339717
 H   -1.3585953047   -1.5449349198    1.9850044007
 H   -0.2287837599   -2.6102120899    1.1312279753