18

 O    0.0186036716   -0.0683441406    0.0967888185
 C    0.0088684732    1.1485699749    0.0718938906
 N   -1.1496329929    1.8653628654   -0.0178957482
 C   -1.3114391642    3.3145642023    0.0099518109
 C   -0.0208909264    4.0189527305   -0.4053815985
 C    1.1565974210    3.4492524205    0.3909320599
 C    1.2910967172    1.9703995192    0.1004078988
 C    2.5392606369    1.2376389422    0.3428305522
 O    2.1767323595    1.6263532738   -0.9814752988
 H   -1.9803103433    1.2907631471   -0.0034960079
 H   -2.1312003704    3.5861274742   -0.6639017334
 H   -1.6023667278    3.6460632891    1.0188181347
 H    0.1572480646    3.8659537525   -1.4757942248
 H   -0.1294293142    5.0945885373   -0.2384355476
 H    2.0953003832    3.9471579681    0.1323972485
 H    0.9853236980    3.6005849183    1.4654744894
 H    3.3851159140    1.7737284190    0.7724096085
 H    2.4812072701    0.1710749862    0.5416496973