21

 C   -0.1213723107    1.4750740322    0.1171915120
 O    0.0491171971    0.0714056571    0.2423042944
 C   -1.1504952579   -0.6448721857    0.2108969714
 C   -1.7688879613   -0.9754843264   -1.1723440517
 O   -1.6894439226   -2.3899497942   -0.9012780922
 C   -0.9551086982   -2.1643770909    0.3205668974
 C    1.2157627969    2.1464200622    0.2556721035
 C    2.1243875356    2.2639487990   -0.9401748217
 C    1.4400493719    3.4902143221   -0.3917348419
 H   -0.5657128361    1.7244702205   -0.8612128559
 H   -0.8208051446    1.8339867393    0.8915112807
 H   -1.8757825621   -0.2281901398    0.9246332021
 H   -2.7991054566   -0.6511648047   -1.3593132233
 H   -1.1278202745   -0.6752817043   -2.0123937689
 H    0.0990115044   -2.4570717747    0.2374228002
 H   -1.4134206162   -2.6695503151    1.1777509274
 H    1.6948205110    1.9799742632    1.2159538321
 H    3.1917442053    2.1552907357   -0.7852662872
 H    1.7691671783    1.8619706896   -1.8832276267
 H    0.6268413108    3.9193765050   -0.9682212888
 H    2.0352195394    4.2213887500    0.1432931171