19

 N   -0.1159839788    1.2388258762    0.3386222108
 C   -0.0417145998    0.0162678010    0.0074054793
 O    1.1536588134   -0.5706027866   -0.2677863796
 C    1.2211957527   -1.7900125456   -1.0277272154
 C    0.1106106106   -2.7720191723   -0.6880681681
 C   -1.2380750958   -2.0745787014   -0.8743667880
 C   -1.2794677709   -0.8369097505   -0.0026001519
 C   -2.0551945178   -0.8274307652    1.2805036225
 N   -2.5584989414   -0.1328771855    0.0942588529
 H    0.8077237594    1.6715099542    0.3321923529
 H    1.1841454029   -1.5319592379   -2.0953860043
 H    2.2116855954   -2.1987675810   -0.8137552424
 H    0.2018127622   -3.6495691454   -1.3367904757
 H    0.2226142553   -3.1143040779    0.3475489008
 H   -1.3646925680   -1.7866460496   -1.9264776016
 H   -2.0759065558   -2.7301335530   -0.6230498814
 H   -2.6073597530   -1.7197700452    1.5665969832
 H   -1.6591333851   -0.2340073326    2.0986779266
 H   -2.3453793254    0.8609918983    0.1864520094