19

 C    0.0151214951    1.3955537379   -0.1124760160
 N   -0.0749748317   -0.0392283492    0.0942461540
 C    0.6427884839   -0.6173949699    1.0940555966
 N    1.2416951295   -0.0306284591    2.0642984638
 C    1.7396739150   -1.0872832019    2.9086369272
 C    0.7343463202   -2.0436385578    3.5444120433
 C   -0.7338596739   -1.7353473165    3.7226364692
 C    1.3629298927   -2.3876155508    2.2183824402
 O    0.6625331351   -1.9862308430    1.0468474634
 H    0.9921256526    1.7119155829   -0.5016724076
 H   -0.7654166231    1.7034575306   -0.8119305219
 H   -0.1430184758    1.8979991423    0.8435226170
 H   -0.1989029852   -0.6217169328   -0.7191717493
 H    2.6894166146   -0.9056102810    3.3987537666
 H    1.1732040517   -2.6219090383    4.3553250066
 H   -1.1203352945   -1.1028667681    2.9212029056
 H   -1.3270877726   -2.6559151145    3.7381933653
 H   -0.9024335790   -1.2082953485    4.6673553240
 H    1.9795319454   -3.2618677123    2.0515818220