16

 O   -0.0741178354    1.4170337448    0.0530068787
 C   -0.0018370384   -0.0008661891    0.0010357200
 C   -1.4114656202   -0.5278117546    0.0212814898
 C   -2.5640346680   -0.2650243845   -0.9762784874
 N   -3.2370000010   -1.1993699255    0.0476213999
 C   -1.9144289119   -1.9871311542   -0.0168079202
 C   -2.5069636819   -0.3388996115    1.0968037986
 H    0.8219947746    1.7654492010    0.0435041689
 H    0.5066961927   -0.3468713875   -0.9141522452
 H    0.5556804590   -0.4094567817    0.8601401880
 H   -2.9977574395    0.7370819194   -1.0060253716
 H   -2.4887189589   -0.7000044431   -1.9773834870
 H   -1.7892512817   -2.5531244834   -0.9447221293
 H   -1.7395857371   -2.6173403718    0.8603013806
 H   -2.3776092231   -0.8438108981    2.0587991958
 H   -2.9364326692    0.6577045398    1.2215335005