23

 C    0.0013181304    1.5679047024    0.0508843298
 C    0.0260423155    0.0658427683    0.0341866744
 C   -0.8684021053   -0.7746519247    0.9028164394
 C    0.6227316600   -0.9302555394    1.0402552302
 C    1.2081232475   -1.7783589071   -0.1058047782
 C    0.6492149197   -3.1714853487   -0.4564431371
 C    0.2247146716   -3.0388530925   -1.9388329077
 C   -0.3105917141   -1.5925982014   -2.0788375661
 C    0.5936591783   -0.7730553276   -1.1370107663
 H    0.9659325244    1.9878447934   -0.2582238346
 H   -0.7626865702    1.9621079615   -0.6313148718
 H   -0.2240923087    1.9511212456    1.0518605934
 H   -1.3438147880   -0.2331992611    1.7156007725
 H   -1.4885115667   -1.5699904864    0.4977788443
 H    1.1239464449   -0.7266221144    1.9801667427
 H    2.3004724900   -1.7659330581   -0.1013408814
 H    1.3747516260   -3.9757224775   -0.3033869786
 H   -0.2221780286   -3.4064838494    0.1644582646
 H    1.1048787279   -3.1638773158   -2.5820841194
 H   -0.5036222554   -3.7965256023   -2.2453807999
 H   -0.2847311727   -1.2404799022   -3.1141846295
 H   -1.3556660114   -1.5458401108   -1.7527903642
 H    1.3549919848   -0.2129627819   -1.6866628464