20

 O   -0.0281231827    1.2435658326   -0.4591230008
 C   -0.0257447369   -0.1637279747   -0.5962922004
 C   -1.4138953059   -0.7455951887   -0.3859068472
 O   -2.2520815257   -0.1773504206   -1.3809475103
 C   -3.6159069920   -0.5133589777   -1.2450722729
 C   -4.3615459118   -0.0114095024   -2.4692466452
 O   -4.0417216608   -0.7656268932   -3.6310512419
 C   -2.9581540445   -0.3796745096   -4.3390899745
 N   -2.5454882088   -1.0976560007   -5.2905018585
 H   -0.7449094577    1.5602834929   -1.0205653999
 H    0.3454706421   -0.4737155702   -1.5860138315
 H    0.6585357051   -0.5622753340    0.1594675782
 H   -1.3989293063   -1.8433886413   -0.4717125695
 H   -1.7844962957   -0.4795142591    0.6163389972
 H   -3.7414399614   -1.6038605453   -1.1659967322
 H   -4.0450171978   -0.0547003407   -0.3385236458
 H   -5.4379635361   -0.1276618831   -2.3173716111
 H   -4.1464077459    1.0541920826   -2.6250428346
 H   -2.5373132011    0.5768452703   -4.0061267538
 H   -1.7478232461   -0.6510282970   -5.7380644456