14

 N   -0.0948523686    1.3292877944    0.0099712154
 N    1.0730966335    1.9718997713    0.0026283184
 H    0.9771920817    2.9763496145    0.0091869558
 C    2.3126440770    1.4171701121   -0.0121324872
 C    2.4714130296    0.0503966527   -0.0213228038
 C    1.3028578998   -0.7178383303   -0.0146819142
 N    1.1137443093   -2.0289978246   -0.0202844358
 C   -0.2589641465   -2.1769339848   -0.0082412081
 C   -0.9794643416   -0.9957819315    0.0051643623
 C    0.0127089066    0.0142793465    0.0015540391
 H    3.1321486581    2.1236886925   -0.0158430922
 H    3.4590674790   -0.3932482840   -0.0330908389
 H   -0.6761435354   -3.1774563570   -0.0099627825
 H   -2.0495110525   -0.8647841517    0.0159364717