19

 C   -0.0027003541    1.5334775893   -0.2044504711
 C    0.0512275010    0.0371696405   -0.0042957181
 N    1.3791588197   -0.6014930334   -0.0269772284
 C    0.5827290892   -0.6324982176    1.2132346543
 C    1.1586957755    0.1003157618    2.4008370915
 C    1.9215342648   -0.8208473001    3.3533609110
 C    2.8357026210   -0.1339330608    4.3510012073
 O    1.7943555958   -2.0231387783    3.3233840192
 H    0.8360675671    2.0327535387    0.2856276152
 H    0.0431441911    1.7792204323   -1.2708337064
 H   -0.9352635746    1.9476702491    0.1948868188
 H   -0.7546874131   -0.5006784341   -0.5038738687
 H    1.3415808036   -1.5018689847   -0.4962138356
 H    0.1275564852   -1.5821053487    1.4820310516
 H    1.8172733295    0.9128115457    2.0790761042
 H    0.3601166882    0.5710377692    2.9950208691
 H    2.3230051678    0.6970861579    4.8473907277
 H    3.1915421799   -0.8524882989    5.0903055789
 H    3.6946274923    0.2945921821    3.8207420194