19

 O    0.2045191918    1.3915967061   -0.1305403337
 C    0.1096071631   -0.0068072255    0.0618825419
 C    0.5447823066   -0.5000249090    1.4505463352
 O   -0.1377061557   -1.7304466230    1.6118878084
 C   -1.4555741200   -1.5102143242    1.1205455419
 C   -1.3554428552   -0.4986305864   -0.0367431537
 C   -2.4753561008    0.5536935470   -0.2011428961
 C   -2.6569368571   -0.0542718774   -1.6022517021
 O   -1.6539881293   -1.0597689300   -1.3407071163
 H    1.1260069657    1.6129078557   -0.2927365342
 H    0.6615812367   -0.5537885095   -0.7144048608
 H    1.6173519032   -0.6906150015    1.5444895265
 H    0.2462212927    0.2428340628    2.2102981709
 H   -1.8688180163   -2.4635623537    0.7835871596
 H   -2.0959845713   -1.1027542648    1.9199495640
 H   -3.3210593653    0.4098043248    0.4744305620
 H   -2.1415228315    1.5891665996   -0.1638519026
 H   -3.6352397440   -0.4994313164   -1.8176577798
 H   -2.3688094334    0.5969950755   -2.4358802211