17

 C   -0.4391516256    1.4535245412    0.1572604019
 N   -0.0602229507    0.0421567609    0.0329562552
 C    0.4092924223   -0.6013684984    1.1756939429
 O    0.4917791343   -0.0656089399    2.2549862225
 C   -0.2033587619   -0.6804012923   -1.1513353549
 N   -0.3165718872   -1.9530195798   -1.1206954258
 C   -0.1057131805    0.1106230732   -2.4604223088
 C   -0.7334011312   -0.5155450011   -3.6915718721
 O    0.4889289200    1.1606660198   -2.5055861484
 H    0.3711748266    2.1147435089   -0.1517906032
 H   -1.3187683124    1.6621939763   -0.4533189601
 H   -0.6722231549    1.6248605973    1.2079607439
 H    0.7044151876   -1.6390873941    0.9720770574
 H   -0.3436760418   -2.3423326291   -2.0602701850
 H   -1.7310784881   -0.9104053338   -3.4802493886
 H   -0.7824305837    0.2402254371   -4.4758889650
 H   -0.1177329829   -1.3455425560   -4.0575205719