19

 C   -0.0053259630    1.4145560537   -0.0298626981
 N    0.1271650335   -0.0326798079   -0.0010778631
 C   -0.0957789942   -0.6655108046    1.2907812376
 C    0.0120088068   -0.7017095756   -1.1829043707
 N   -0.1621555228   -0.1059843653   -2.3154903130
 C   -0.1343581198   -1.0680302357   -3.4180606967
 C   -0.0238848743   -2.4757032608   -2.8125963519
 C    0.1622141746   -2.2098577759   -1.3268468768
 O    0.3919052452   -3.0282561794   -0.4696828786
 H    0.4731358411    1.8307438516    0.8614292578
 H    0.4739502405    1.8072189678   -0.9268100688
 H   -1.0581095473    1.7333079680   -0.0429592400
 H   -1.1247913306   -0.5032402941    1.6464127110
 H    0.0943781476   -1.7334892485    1.2229380889
 H    0.5855681627   -0.2280007970    2.0285758198
 H   -1.0371274146   -0.9413817215   -4.0264637117
 H    0.7126710342   -0.8388572936   -4.0769196004
 H   -0.9317878465   -3.0727724999   -2.9496856575
 H    0.8098783068   -3.0722166213   -3.1922779778