22

 C    0.3590579712    1.4542023299    0.0661981111
 C    0.0861726775   -0.0497450473    0.0033466850
 C   -1.4084572118   -0.4056509842    0.0066519637
 C   -1.6223387525   -1.9170192921   -0.1398426090
 N   -1.9982723106    0.0300654418    1.2768621948
 C   -3.0583279356    0.6897803993    1.2789542704
 C   -3.9466596537    1.2942428873    2.3474866167
 C   -4.7854637399    1.7713883915    1.1447944921
 O   -3.8508487621    1.1335443535    0.2245350658
 H    1.4336160292    1.6622656950    0.0596792971
 H   -0.0861865562    1.9745416987   -0.7897118936
 H   -0.0628081805    1.8871592175    0.9780177409
 H    0.5370570577   -0.4714392695   -0.9037043717
 H    0.5600825704   -0.5495529284    0.8572508346
 H   -1.8887445817    0.0993518700   -0.8446161200
 H   -1.1624150099   -2.2837890051   -1.0632899434
 H   -1.1764626695   -2.4495387182    0.7062875585
 H   -2.6888166584   -2.1590152661   -0.1691099676
 H   -4.4258075936    0.5687904950    3.0070642456
 H   -3.4766350806    2.0753117011    2.9472490881
 H   -5.7850100361    1.3402558239    1.0483355659
 H   -4.8228676633    2.8509848065    0.9789700149