15

 N   -0.2389063468   -1.1889090820   -0.3307035962
 C   -0.1299788915   -0.0495939468   -0.1684323157
 C    0.0043718423    1.3880617661    0.0340978158
 C   -0.2491644828    1.9942382562    1.4545552189
 O    0.0673684326    1.0841079508    2.4774852991
 C    1.4507069080    0.7291575490    2.3015450271
 C    2.0096446135    1.7778320489    1.3532636861
 C    1.0127834573    2.8433116725    1.1798392490
 N    1.3959246590    1.9735256746    0.0006783106
 H   -0.5779836565    1.9107387221   -0.7300505207
 H   -1.2169158494    2.4493547490    1.6557175345
 H    1.9531631283    0.7739692019    3.2738499015
 H    1.5325254405   -0.2901569652    1.9098315011
 H    3.0717456361    1.9911072468    1.3532760692
 H    1.1553782994    3.9152612061    1.2055988596