21

 C    0.0953585340    1.3584749701   -0.4458426146
 C   -0.0487603722    0.0156615908    0.2804180968
 C   -1.4261985277   -0.5984029459    0.1364079903
 C   -1.9796218227   -1.2407620702   -1.1266259898
 O   -3.1843537402   -0.8963506672   -1.7102547693
 C   -0.9067893582   -2.0857784157   -1.8058939198
 O   -0.6232173934   -2.7707105591   -0.5559689709
 C   -1.7086255069   -2.0865336241    0.0982505817
 C   -2.5470272978   -2.8705072478    1.0521082925
 H    1.0985161490    1.7761486496   -0.3142480213
 H   -0.0792807666    1.2469245274   -1.5219300763
 H   -0.6226438558    2.0957401356   -0.0690269669
 H    0.6978667860   -0.6959805350   -0.0860918541
 H    0.1659997687    0.1522090911    1.3479147869
 H   -2.2250962155   -0.0679093754    0.6555797831
 H   -3.1477141033    0.0331361740   -1.9600853156
 H   -1.3281463702   -2.7792387114   -2.5425887456
 H   -0.0227246321   -1.5879373966   -2.2219280500
 H   -1.9701847169   -3.1454736240    1.9424090060
 H   -3.4080403348   -2.2784331906    1.3746874165
 H   -2.9109021736   -3.7904850656    0.5843405403