18

 O    0.0801265258    1.0802174557   -0.3246693735
 N    0.0477795095   -0.2278007740    0.1882958469
 C   -1.1292669439   -0.7091978136    0.1397183100
 C   -2.3807461490   -0.0818808025   -0.4332944900
 C   -3.4649873459   -1.1875812849   -0.3146322929
 O   -4.3915843502   -1.2173339339   -1.3702863051
 C   -2.6516043112   -2.5048232579   -0.2110399808
 O   -2.3048578055   -2.9467090126   -1.5270284738
 C   -1.4272563823   -2.1152769535    0.6222277047
 H    1.0109713775    1.3115294056   -0.2357044107
 H   -2.6485049897    0.8434105068    0.0844620491
 H   -2.2232815831    0.1942286163   -1.4824849907
 H   -4.0345116907   -1.0458276971    0.6115028780
 H   -3.9818438060   -1.7724152748   -2.0498364445
 H   -3.2373631650   -3.3172236842    0.2244866832
 H   -1.5212365903   -2.4646444635   -1.8160928325
 H   -0.5847057780   -2.8016889337    0.5132013447
 H   -1.7039323720   -2.0956348582    1.6847874281