16

 O   -0.0983948091    1.4012574666   -0.0870879510
 C   -0.1679119314    0.0271606521   -0.4182700809
 C   -1.1560893095   -0.6093882902    0.5674931826
 C   -1.3346155328   -2.0358090669    0.3408711688
 C   -1.4610765926   -3.2156953289    0.1384564713
 C   -1.6492334778   -4.6441739835   -0.1222939988
 O   -2.9159044700   -4.9610710041   -0.6705754395
 C   -0.5521335507   -5.1528144105   -0.9857562943
 N    0.2852144524   -5.5548117795   -1.6723001187
 H    0.5307570361    1.8249207910   -0.6780048917
 H   -0.5252046218   -0.1300402860   -1.4468103770
 H    0.8096606250   -0.4682816691   -0.3265634874
 H   -0.7969925082   -0.4307647360    1.5879537722
 H   -2.1185341658   -0.0907594987    0.4820549161
 H   -1.6018799149   -5.2016505997    0.8214186260
 H   -3.0493277888   -4.4019269066   -1.4453173779