17

 O   -0.0132071219    1.3664491747   -0.1364536690
 C    0.0121494225   -0.0297842284   -0.0092339932
 C    0.0313184125   -0.6169575380    1.4718575166
 C   -1.4762490842   -0.1946651603    1.5242547821
 C   -1.4277075189   -0.6458302975    0.0290128660
 C   -1.0434504459   -2.1286265381    0.1823342790
 C   -0.0865062854   -2.0911869613    1.1344712167
 C   -1.5715472725   -3.2016312640   -0.5560197544
 C   -2.0531504326   -4.0962142800   -1.2061405310
 H    0.8924388215    1.6900462898   -0.1046393387
 H    0.7176844526   -0.4952595471   -0.7092910174
 H    0.7616190916   -0.2996302460    2.2157626531
 H   -2.1287272181   -0.7551301449    2.1969974236
 H   -1.6101293786    0.8822279475    1.6353387929
 H   -2.1873840288   -0.3797001264   -0.7034363343
 H    0.5010369749   -2.9051926775    1.5339219262
 H   -2.4690396786   -4.8923590624   -1.7718969582