21

 C   -0.2963135364    1.4841339990   -0.0442403763
 C    0.1476036345    0.0120391219    0.0201955566
 C    0.8494261568   -0.4604659912   -1.2190617386
 C    2.1016907689   -0.9302099429   -1.3049583222
 C    2.4544592636   -1.3745274894   -2.6808498254
 C    1.6148010337   -2.5249622259   -3.2367541002
 C    1.2021232618   -1.1163254136   -3.5116028640
 O    1.2397638380   -0.7234407007   -4.8492187812
 C    0.1749099720   -0.4671348645   -2.5825804426
 H    0.5631377954    2.1451237777   -0.1953299826
 H   -0.9987530761    1.6557872156   -0.8660963505
 H   -0.7938842319    1.7810650372    0.8840361475
 H    0.8071102813   -0.1338828802    0.8833600623
 H   -0.7392526388   -0.6122619500    0.2012513246
 H    2.7821515948   -1.0182797273   -0.4638809606
 H    3.4507825861   -1.2305520654   -3.0843476160
 H    2.0283024652   -3.0537458818   -4.0888716616
 H    1.0438643626   -3.1311805031   -2.5404874829
 H    1.4789054167    0.2098494599   -4.8770297239
 H   -0.7797795643   -1.0083661043   -2.5758533331
 H   -0.0562830339    0.5527600092   -2.9252106693