14

 O    0.1656624569    1.3405003996    0.3907085794
 C   -0.0083444615    0.1509004468   -0.3840949610
 C   -1.3311691018   -0.4906495624   -0.1656006661
 C   -1.7234609336   -1.7625491522    0.1802801409
 O   -0.9103905713   -2.8181850271    0.4104304358
 N   -3.0803909750   -1.8739947503    0.2673093219
 C   -3.5391555228   -0.6688464778   -0.0176996734
 N   -2.5355777438    0.1947611719   -0.2943251363
 H    0.0678626369    1.0899500693    1.3160352543
 H    0.1167786656    0.4827367257   -1.4222157473
 H    0.7748517575   -0.5927236364   -0.1847017317
 H   -1.4874299874   -3.5586119655    0.6333585826
 H   -4.5790213953   -0.3801550348   -0.0313563303
 H   -2.6149075043    1.1810515531   -0.4789572387