20

 C   -0.3781716620    1.4858064060    0.1897972854
 C    0.1442936428    0.0737641311   -0.1032554641
 C    0.8163595754   -0.5374981673    1.1089985717
 C    0.0353638389   -1.3805492605    2.0833937194
 O   -1.2949103422   -1.6757700636    1.7778537086
 C    1.1166595129   -2.0288719753    1.2430619911
 C    0.6866351476   -3.0501539442    0.2108096362
 O   -0.1447617362   -4.0792708371    0.7774496103
 H    0.4321521604    2.1549564959    0.5005263291
 H   -0.8500899308    1.9229673338   -0.6956670493
 H   -1.1212383602    1.4629719412    0.9928327791
 H   -0.6965729648   -0.5532740587   -0.4109166636
 H    0.8498469842    0.1068097350   -0.9435365726
 H    1.5709984379    0.1034846855    1.5601833214
 H    0.2294498499   -1.2467435249    3.1475224485
 H   -1.3319849759   -2.6285842712    1.6083443739
 H    2.0400501553   -2.2774003255    1.7612505210
 H    0.0746312992   -2.6021187008   -0.5730519241
 H    1.5632499802   -3.4978790342   -0.2764917141
 H    0.3591152274   -4.5065210854    1.4783788421