18

 C   -0.0047646853    1.5367209145    0.0688073181
 C   -0.0246623929    0.0039322991    0.0330959512
 O    0.6588867189   -0.5571298094    1.1477746697
 C   -1.4221393073   -0.5337345191   -0.0654943038
 N   -2.0072532711   -1.1222876948   -1.0568485642
 C   -3.2976792832   -1.4040182946   -0.6012620663
 C   -4.3027642647   -2.0923692801   -1.4604933455
 C   -3.4045983236   -0.9570907063    0.6721917672
 O   -2.2092959987   -0.3895355489    1.0332766642
 H    1.0272162676    1.8858066608    0.1560551044
 H   -0.4462767066    1.9550389350   -0.8408579733
 H   -0.5751907786    1.9091085933    0.9264490778
 H    0.5071846137   -0.3532455535   -0.8522744301
 H    0.1570109935   -0.3308359400    1.9390473344
 H   -3.9384758953   -3.0764280807   -1.7733775082
 H   -5.2483662673   -2.2277293467   -0.9293606052
 H   -4.4976907930   -1.5158175023   -2.3708242937
 H   -4.1816832162   -0.9582182163    1.4169299130