19

 C   -0.2152747484    1.4823645814    0.0551345879
 C    0.0478747664   -0.0135896644    0.0061880368
 C   -1.1828757297   -0.9411226523    0.3197547927
 C   -0.4407851140   -1.5279751310    1.5491192212
 C    0.8320865218   -0.6987628526    1.1635935375
 C    1.9120751493   -1.4763560320    0.4696653976
 C    1.8884843050   -1.3365389142   -0.8633016089
 C    0.7853392731   -0.4333110348   -1.2720128775
 O    0.4936550062   -0.0940860468   -2.3974513053
 H    0.7213187899    2.0505576418    0.0738209007
 H   -0.7720951976    1.7873379102   -0.8363880388
 H   -0.7963798132    1.7568428309    0.9415361330
 H   -2.0924437302   -0.3845658435    0.5568348614
 H   -1.4189156084   -1.6585854880   -0.4690520933
 H   -0.8710173042   -1.2255768805    2.5062345184
 H   -0.3066427200   -2.6119232338    1.5583633271
 H    1.2225373399   -0.0592128124    1.9607433876
 H    2.6083492341   -2.1054330176    1.0166072410
 H    2.5522294502   -1.8028719504   -1.5805562292