23

 C    0.2732845133    1.4983087220   -0.3300583977
 C   -0.1176234996    0.0772352893    0.0943518117
 C    0.6460985621   -0.4460933433    1.3067240106
 C    2.0294477645   -1.0204533246    1.0588371670
 C    0.8806963942   -1.9360485257    1.4229632944
 C    0.8203307696   -2.5823476397    2.8065656711
 C   -0.1808348400   -1.8768875730    3.7412184626
 C   -0.0100093202   -0.3772861015    3.6942204088
 C    0.3877137976    0.2616354705    2.5929047095
 H    1.3441440634    1.5641576577   -0.5499828015
 H   -0.2735888998    1.8004570780   -1.2287792658
 H    0.0486683595    2.2312672446    0.4511350792
 H   -1.1946549810    0.0411697673    0.3041116911
 H    0.0548966474   -0.6067782064   -0.7461734619
 H    2.3984430143   -1.0327079577    0.0375188853
 H    2.7939462611   -0.8562447684    1.8114906173
 H    0.4811818501   -2.5375434030    0.6112414463
 H    0.5618816181   -3.6422952262    2.7111327338
 H    1.8104253312   -2.5482874106    3.2754745691
 H   -1.2103921135   -2.1398284845    3.4566557768
 H   -0.0542418121   -2.2408437914    4.7670078015
 H   -0.2182048629    0.1852498052    4.6009114721
 H    0.5106987927    1.3421545415    2.6053148289