19

 O   -0.0474058095   -0.0796699221    0.0051465068
 C   -0.0132579750    1.1276305930   -0.0078644259
 C   -1.3000521776    1.9702696445    0.0245416962
 O   -1.6522445801    2.2573418313    1.3698907440
 C   -0.8543879715    3.2090004032    2.0566704950
 C    0.5373166472    2.6833661149    2.4504646943
 C    1.5381429317    2.7230081592    1.3087806486
 C    2.3899553793    1.5276970828    0.9406481393
 C    1.2587803354    1.9331323726    0.0457731549
 H   -1.1768598073    2.8992742639   -0.5551133575
 H   -2.1232812364    1.3818162729   -0.3870969230
 H   -0.7609240214    4.1327077716    1.4613268978
 H   -1.4280182582    3.4471090200    2.9577222599
 H    0.9183192642    3.2757974747    3.2909710098
 H    0.4093773465    1.6595999062    2.8211893170
 H    1.9905420237    3.6984953049    1.1495141959
 H    3.4065755496    1.6984944736    0.6044220198
 H    2.2521402367    0.6151039460    1.5115319594
 H    1.4849654425    2.4331432568   -0.8935841722