18

 C   -0.1078767127    1.5160415970    0.0098415125
 C    0.0096857275   -0.0157212136    0.0150344613
 O    0.6163553008   -0.5123280569   -1.1796205165
 C   -0.2323716222   -0.5422045065   -2.3030073719
 C    0.5347508712   -1.2944365345   -3.3985351287
 C   -0.2312017774   -1.3868828423   -4.6371692448
 N   -0.8536723970   -1.4497760175   -5.6084352776
 C    0.8135342764   -0.4823293400    1.1436529478
 C    1.4598000499   -0.8376380578    2.0912689793
 H    0.8821199728    1.9643179221   -0.1034618250
 H   -0.7490349654    1.8548915451   -0.8084749444
 H   -0.5441917064    1.8614320597    0.9506915095
 H   -0.9999931629   -0.4503610638    0.1046677734
 H   -1.1743044443   -1.0648758980   -2.0751965933
 H   -0.4885262637    0.4664967944   -2.6571724469
 H    1.4817141109   -0.7805089770   -3.5932649792
 H    0.7807899824   -2.3002752251   -3.0435570487
 H    2.0323882901   -1.1623021653    2.9249259334