18

 C   -0.1256439339    1.5002027012    0.0652840463
 C   -0.0695005794   -0.0018353277    0.0909524157
 C   -1.2005046110   -0.8284995411   -0.5059708860
 C   -0.9839783187   -2.2140542624    0.0744610911
 C   -0.0277658303   -2.1705128799    1.2517647269
 C    0.6122566090   -0.8046679479    1.1229856321
 O    1.2152659719   -0.5979535183   -0.1630935824
 N   -1.5529734077   -3.2327271422   -0.4285357147
 O   -1.2274699706   -4.4025882600    0.2820556804
 H    0.7482125753    1.9249104197    0.5653731795
 H   -0.1394547390    1.8694001532   -0.9660943933
 H   -1.0294969373    1.8660007384    0.5638391537
 H   -2.1708912149   -0.4221004342   -0.1916120331
 H   -1.1858638774   -0.8340505840   -1.5994466225
 H   -0.5691074042   -2.2718326076    2.2015099999
 H    0.6940475068   -2.9908292480    1.2045572527
 H    1.1360871601   -0.3539096299    1.9626387905
 H   -1.6802100889   -5.0817272094   -0.2289115167