24

 C    0.0128977277    1.5652815410   -0.0914835044
 C    0.0848752172    0.0389057346    0.0211368715
 C    0.6907209579   -0.4857093450    1.3368462900
 C   -0.1641027631   -0.1240113513    2.5604368256
 C    0.9155666128   -1.9956498231    1.2631172893
 C    1.9440454122   -2.5681452268    0.2432592459
 C    2.3764111555   -3.6035603207    1.3152949315
 C    1.7164327451   -2.7048243569    2.3946329729
 H    1.0036677212    2.0171288853    0.0332944291
 H   -0.3671858207    1.8680769807   -1.0724199439
 H   -0.6475330262    2.0028606185    0.6634930817
 H   -0.9214896331   -0.3861317635   -0.1004586024
 H    0.6790707655   -0.3481379014   -0.8160444136
 H    1.6786249937   -0.0140176253    1.4611478518
 H   -1.1728255313   -0.5455784632    2.4693761814
 H    0.2776555226   -0.5185523009    3.4809884335
 H   -0.2660374435    0.9580657760    2.6831201091
 H   -0.0516992080   -2.4985778012    1.1293879812
 H    1.5681457837   -2.9466148397   -0.7105599622
 H    2.7410277862   -1.8445930236    0.0380092576
 H    1.8445164464   -4.5522591433    1.1984622880
 H    3.4433868992   -3.8170725997    1.4144439161
 H    2.4434032756   -2.0228530258    2.8496134356
 H    1.1550015635   -3.1943023946    3.1943714246