14

 O   -0.1228227905    1.3568868705    0.1090294187
 N    0.0492409552   -0.0454645966    0.0737277767
 C   -1.0881466805   -0.6481408150   -0.0471260373
 C   -2.3970097400   -0.0061286285   -0.1382878458
 C   -3.5016674777   -0.7453871197   -0.2612021143
 O   -3.4986300471   -2.1154054640   -0.3100987490
 C   -2.2899642370   -2.7385870758   -0.2269866546
 O   -2.4209339893   -4.0724034506   -0.2862398628
 C   -1.1188898435   -2.0966474925   -0.1017816244
 H    0.7847643640    1.6626897619    0.1991766529
 H   -2.4714412416    1.0706142008   -0.1061411749
 H   -4.5107749025   -0.3634646171   -0.3355423002
 H   -3.3595601260   -4.2776670622   -0.3756642114
 H   -0.2021680636   -2.6661952613   -0.0422258035