21

 O    0.2937530499    0.5133498642    0.7694409109
 C   -0.0526416999    0.0145626322   -0.5110941472
 C   -1.4431078733   -0.5931737239   -0.5302679087
 C   -1.6882532558   -1.8863314990   -1.2891284388
 C   -1.6553960895   -1.8727251722    0.2169602683
 O   -0.5365150502   -2.3616290578    0.9089119688
 C   -0.6243126753   -3.7138305448    1.2593121045
 C   -0.1371221686   -4.7698475480    0.3036771394
 C    0.6650831580   -4.4111543534    1.5403203022
 H    0.2778460324   -0.2509922591    1.3580540355
 H   -0.0037365114    0.8661658037   -1.1977122873
 H    0.6791134076   -0.7289925913   -0.8586122084
 H   -2.2559668533    0.1253243849   -0.4845768286
 H   -2.6395194192   -2.0390857720   -1.7871042698
 H   -0.8348467458   -2.3181341670   -1.8003740240
 H   -2.5941165147   -2.0157653546    0.7516661550
 H   -1.4876143046   -3.9473661521    1.8824389017
 H   -0.6579761540   -5.7205026447    0.2717293269
 H    0.2528418488   -4.4323772250   -0.6490436500
 H    1.5690532445   -3.8321351943    1.3890781193
 H    0.7059145244   -5.1114467159    2.3666407803