12

 N   -0.1622695860    1.3884794408    0.0116607519
 C    0.1460830402    0.0435437588    0.0335969432
 O    1.2590398103   -0.4026439560    0.1549104747
 N   -1.0012753245   -0.7628143746   -0.0536889904
 C   -1.0074391320   -2.1321651453   -0.0360274797
 N   -0.0030975325   -2.9620050104   -0.1239357585
 O   -0.6184168279   -4.1883612851   -0.0741973285
 N   -1.9728190593   -4.0243775995    0.0399629797
 N   -2.2234548459   -2.7897522282    0.0644731513
 H    0.6494348969    1.9796322311   -0.0809116861
 H   -0.9749664659    1.7026951163   -0.4957851718
 H   -1.9131717135   -0.3478529779    0.0634893242