11

 O   -0.0485023841    1.3746641256   -0.0698426214
 C   -0.0019156923   -0.0182411101   -0.0033849638
 C   -0.4694185969   -0.7093461282    1.2670689980
 C   -1.3429947688   -0.7034031146    0.0407563587
 C    1.0722781496   -0.6295573864   -0.7582632677
 N    1.9520278258   -1.0972764773   -1.3458687851
 H    0.7346958984    1.7262307662    0.3700582777
 H    0.0172597512   -1.6326239703    1.5581535467
 H   -0.7366002494   -0.0429273844    2.0789987283
 H   -2.1921268218   -0.0304978072    0.0268220819
 H   -1.4643963717   -1.6220287933   -0.5197090233