16

 C   -0.0208162396    1.5395929030    0.0193407867
 C   -0.0029260841    0.0004257507    0.0094651848
 N    0.7947285982   -0.4912342129   -1.1511773788
 C    1.7492710746   -1.1750557697   -0.6566331554
 N    1.7848837539   -1.2751759089    0.7274406345
 C    0.7310459900   -0.5392408777    1.2636680614
 N    0.4071243556   -0.3014812902    2.4640810301
 C   -1.3582971755   -0.5424846684   -0.0648511313
 C   -2.4747811539   -0.9802078153   -0.1250530954
 H    1.0034357443    1.9221103382    0.0320084119
 H   -0.5254527405    1.9070316647   -0.8760190570
 H   -0.5437397616    1.8893336885    0.9117581285
 H    2.5162113380   -1.6678930287   -1.2460786225
 H    2.4906854704   -1.7504367062    1.2646361624
 H    1.0387017415   -0.7444269823    3.1330255909
 H   -3.4626838013   -1.3665921346   -0.1749528009