18

 C   -0.0112614500    1.5134051353    0.0184198965
 C   -0.0388025596    0.0028173415   -0.0035669519
 C   -1.2616110460   -0.6814457126    0.6400259442
 C   -1.1629867376   -2.1820413214    0.5706049075
 C   -0.2774349988   -1.4317219524    1.5297301004
 N    0.8957058671   -0.7499431421    0.9275530197
 C    1.5692270979   -1.4515221833   -0.2113147760
 C    0.6443479704   -0.7083372307   -1.2022759412
 O    0.5319215688   -0.6627641496   -2.3902497744
 H    0.9890134920    1.8921481858   -0.2112286540
 H   -0.7091357482    1.9092275257   -0.7272566405
 H   -0.3030431307    1.8872080179    1.0046306787
 H   -2.1762213082   -0.1616996471    0.8964300476
 H   -1.9832951904   -2.7045290961    1.0529750783
 H   -0.7847408986   -2.6904826106   -0.3104822131
 H   -0.2978356384   -1.6155160979    2.5977219453
 H    2.6240970270   -1.1718210599   -0.3030386524
 H    1.4940328432   -2.5435163026   -0.2202628447