19

 C    0.0762790600    1.3672151373   -0.2990423124
 C    1.4533286805    2.0484050845   -0.2277361163
 C    2.5942225239    1.1236765686   -0.5725954804
 N    3.8832754411    1.3630603710    0.1013778108
 C    3.1060591185    0.1541461272    0.4262602821
 C    2.5220432713    0.1159388535    1.8144013329
 O    1.4171075364   -0.7791377257    1.9198132491
 C    0.2081223625   -0.5792628763    1.3123452186
 N   -0.3002366914    0.2292789651    0.5003745049
 H   -0.6847041492    2.1355775877   -0.1095714515
 H   -0.0973746496    1.0599908167   -1.3412587749
 H    1.4347010691    2.8871064353   -0.9357438650
 H    1.6210801635    2.4918246298    0.7572442200
 H    2.6281898319    0.8011061293   -1.6123338350
 H    4.6572994537    1.1235877142   -0.5120117015
 H    3.4678168055   -0.8053010962    0.0623076399
 H    3.2547436426   -0.2734903363    2.5270958636
 H    2.2405500713    1.1198376177    2.1438559231
 H   -0.4274243816   -1.3855133832    1.6882548421