19

 C    0.0436492166    1.5972867013    0.1603675812
 C    0.0467649267    0.0633050126    0.0390053292
 O    0.8110354394   -0.5061615118    1.0703675551
 C   -1.3881925876   -0.4961204443    0.1530745860
 O   -1.7098695614   -1.0109062275    1.2202698708
 N   -2.2525811186   -0.3826850524   -0.8916180263
 C   -3.6257103766   -0.8390731281   -0.7293609529
 C   -1.9367155918    0.1783103992   -2.1917391375
 H    1.0771735279    1.9514598378    0.1889577635
 H   -0.4701968705    2.0875318061   -0.6721569358
 H   -0.4449663591    1.8921158836    1.0939109004
 H    0.4980619188   -0.2302011345   -0.9178504483
 H    0.1486296447   -0.8766687349    1.6799443476
 H   -4.3259940528   -0.0103231237   -0.8911408720
 H   -3.8544937676   -1.6285704898   -1.4554727047
 H   -3.7446148198   -1.2266305768    0.2803317797
 H   -0.8712378326    0.3692396510   -2.2970175805
 H   -2.2355335574   -0.5224949523   -2.9808705543
 H   -2.4761841282    1.1203398446   -2.3578087110