16

 C    0.7342601942    0.1953752390   -0.7332316935
 C   -0.4015917889    0.4923264999    0.2226599374
 O   -0.4151025926    1.4367830443    0.9788128911
 C   -1.5354221434   -0.4871318027    0.2203654010
 N   -2.8894349455   -0.2235808966    0.7856423394
 C   -2.9711548340   -1.6640415314    0.3841309337
 C   -2.1173773102   -1.4203449302   -0.8940969325
 O   -1.1958071883   -2.5237779299   -0.6474974323
 C   -1.4768450072   -2.0082897510    0.6803503149
 H    1.6456779112    0.6913847247   -0.3960775138
 H    0.8833781432   -0.8823741294   -0.8451727885
 H    0.4702454150    0.5868193595   -1.7237760479
 H   -2.8373176382   -0.1216846154    1.8008064558
 H   -3.8606147986   -2.2817200165    0.5052321360
 H   -2.4122958463   -1.1883715863   -1.9159479588
 H   -0.9908135804   -2.4641652280    1.5442478081