21

 C   -0.1177733238    1.5638849969   -0.0513519711
 C   -0.0548427435    0.0356313967    0.0154967607
 C    0.7454643184   -0.5108202575    1.2245867900
 C    0.0996725144   -0.1586615000    2.5809130023
 C    0.9188485326   -1.9582271056    1.1035291040
 C    1.0427503648   -3.1536655358    1.0089129526
 C    1.1656412603   -4.5796729876    0.8762633793
 C    2.4509560184   -5.2775559961    1.0798495134
 O    1.4312124155   -5.3429744084    2.0674635744
 H    0.8868713855    2.0016705752   -0.0664616539
 H   -0.6330941794    1.8875107820   -0.9607825153
 H   -0.6558567786    1.9926350081    0.7992393324
 H   -1.0679068854   -0.3832812280    0.0491875564
 H    0.4061165881   -0.3493658487   -0.9006113860
 H    1.7427835409   -0.0472088846    1.1962955138
 H    0.6804755024   -0.5788826022    3.4057952092
 H    0.0470529603    0.9246031083    2.7183293155
 H   -0.9144204615   -0.5660016120    2.6404973288
 H    0.4412344003   -5.0519796012    0.2130551408
 H    2.6454111344   -6.2019154033    0.5367442206
 H    3.3290188760   -4.6928391363    1.3476127221