20

 C    0.0814776907    1.5620206011    0.1320338335
 C    1.3573189003    0.7623592704    0.0173009894
 C    0.0227035198    0.0591244190   -0.0186038368
 C   -0.4014548072   -0.7615299889    1.1813147407
 C   -1.9059002289   -0.7159882909    1.4181682704
 O   -2.7093280619   -1.4161327835    0.4631997094
 C   -2.7133639104   -1.0781512013   -0.8574897115
 N   -1.8249049001   -0.6647783064   -1.6475599230
 C   -0.4093295419   -0.5055803429   -1.3615007114
 H   -0.1620983868    1.9939044728    1.0975632978
 H   -0.2174961892    2.1735230711   -0.7126091888
 H    1.9240346718    0.8345060853   -0.9053088779
 H    1.9711031590    0.6472125483    0.9045779328
 H   -0.0812551959   -1.8055551385    1.0675393051
 H    0.0818219857   -0.3765190901    2.0878315034
 H   -2.1570478012   -1.1891486691    2.3710902585
 H   -2.2401726342    0.3293611129    1.4553014927
 H   -3.7108562895   -1.2765985281   -1.2539136879
 H    0.0070621080    0.1245686451   -2.1556560753
 H    0.0559213720   -1.4958010663   -1.4904663310