17

 C    0.0341938681    1.5734734132   -0.0246964017
 C    0.0203678926    0.0757024913   -0.0476011926
 C    0.5513002737   -0.9043946933   -1.1324498254
 C    0.8520390963   -1.8709883560   -0.0516346449
 C    0.6064895345   -0.8695370375    1.0920616923
 C   -0.8298046768   -1.1573752583    1.5917678023
 C   -1.2126532257   -0.8732144611    0.1316257497
 N   -0.4901376879   -1.9002838364   -0.7320445660
 H    1.0577311968    1.9629957577   -0.0734060528
 H   -0.5210612083    1.9890167483   -0.8737004836
 H   -0.4240802108    1.9585486481    0.8934781558
 H    0.9139219702   -0.7974587553   -2.1485145952
 H    1.4389521250   -2.7808701346   -0.0609374759
 H    1.4319243234   -0.5893593612    1.7445038191
 H   -1.0569411811   -2.1422310143    2.0088586129
 H   -1.1938613435   -0.3706904735    2.2598993607
 H   -2.2291608265   -0.6723561372   -0.2057120247