13

 N   -0.0978985850    1.3577199062    0.1528610460
 C    0.0635433964   -0.0144278919    0.0472101006
 N   -1.0061694239   -0.8238590836    0.0205103966
 N   -0.4988999013   -2.0675470670   -0.0043452464
 C    0.8482631791   -2.0561554024   -0.0077422439
 C    1.2738440856   -0.7447593641    0.0277933928
 N    1.5829339065   -3.2827962834   -0.0405278022
 O    0.9210767556   -4.3210995738   -0.0596288640
 O    2.8042603173   -3.2106417495   -0.0479456568
 H    0.6003710154    1.8991762270   -0.3356329990
 H   -1.0344168239    1.6577868829   -0.0820858649
 H   -1.0885995438   -2.8833391305   -0.0260176888
 H    2.2902551920   -0.3923057599    0.0465259799