13

 N   -0.1744436712    1.1598522854   -0.5222850546
 C   -0.0501369172    0.0403109327    0.0195579288
 O    1.1172578051   -0.6288931857    0.3054847320
 C    0.8220859095   -1.8256744931    0.9747712985
 C    0.1342482111   -1.7201658831    2.3056140061
 C   -0.6848177058   -1.8830110591    1.0346228767
 O   -1.1291730421   -0.6890126169    0.4376328201
 C   -1.4889662265   -3.0387803081    0.7673986568
 N   -2.1136088749   -3.9932936841    0.5817316035
 H    0.7323114798    1.5551852951   -0.7561581796
 H    1.4619402806   -2.6536957374    0.7014890628
 H    0.1959100934   -2.5866985815    2.9540284051
 H    0.0820488482   -0.7555825442    2.7985082139