19

 C    0.0376903559    1.6326000329   -0.3314693278
 C    0.1748628642    0.1324456370   -0.1879234591
 C    1.4429775384   -0.6131806611   -0.4147323006
 O    2.5739906775    0.1259573469    0.0348188508
 C    2.1476681264   -0.0112162331    1.4234560961
 C    2.2287995644    1.2505721915    2.2559336674
 C    0.8094134652   -0.6337919939    0.9858365096
 C    0.1265344759   -1.6524207746    1.7007678917
 C   -0.4449552296   -2.5041420211    2.3321394728
 H    1.0106981065    2.1216987409   -0.2641044044
 H   -0.3878942763    1.8709554331   -1.3121271195
 H   -0.6251243344    2.0553715124    0.4301435567
 H   -0.6863711992   -0.4340050131   -0.5376541370
 H    1.6086378627   -1.4088803665   -1.1326130150
 H    2.7573774158   -0.7980171735    1.8862452933
 H    3.2619586868    1.6122708403    2.2820767548
 H    1.5907266815    2.0484760383    1.8748560441
 H    1.9254141350    1.0244076578    3.2836403209
 H   -0.9498343068   -3.2581368641    2.8830135552