8

 O   -0.1233429646    0.0094593075    0.0040185430
 N   -0.0251682784    1.2223383793    0.0070630295
 O    0.9909305184    1.8916456875    0.0026204896
 C   -1.2855022747    1.9629658349    0.0171518448
 N   -1.3580046316    3.2602135037    0.0212497805
 O   -2.6708870683    3.5045727796    0.0302218205
 N   -3.3702119734    2.2698624884    0.0313417317
 N   -2.5135162274    1.3561935990    0.0232770803