18

 C    0.0335544460    1.6078680838   -0.0424135667
 C    0.0306014000    0.0953595034    0.0951633153
 N    0.6837489452   -0.5654888528   -1.1568079719
 H    0.0037598715   -0.7899812296   -1.8830343664
 H    1.3334938899    0.1170900099   -1.5479325380
 C    1.4617252202   -1.7849366925   -0.6793566963
 C    1.6389436244   -1.4802431867    0.7783894290
 C    0.8655601761   -0.4827011227    1.2061832156
 C    0.6598728715   -0.0054183628    2.6736056304
 O    1.4589187282   -0.4794025058    3.4846787040
 O   -0.3178140745    0.7688715624    2.7829529023
 H    1.0536477385    1.9889507743   -0.1735308389
 H   -0.5966425433    1.9548174879   -0.8680672933
 H   -0.3472679472    1.9773505684    0.9140154929
 H   -0.9971214513   -0.2811966533    0.1380694026
 H    0.8467029731   -2.6710504020   -0.8811442253
 H    2.3782599538   -1.8697576016   -1.2717338981
 H    2.2918370177   -2.0529277902    1.4229315429