13

 N    0.0466443321    1.4412655085    0.1649254592
 C    0.0283688928    0.0535181591    0.0464372421
 C   -1.0957833937   -0.7723717535    0.0160911664
 N   -0.6035484497   -2.0564344632   -0.0254964060
 N    0.7261478396   -2.1103474940   -0.0339549255
 C    1.1234350757   -0.8376369163    0.0129398632
 C   -2.4628034895   -0.4528839875    0.0214487984
 C   -3.6324138361   -0.1569836862    0.0166794984
 H    0.8226520160    1.8792513045   -0.3120922533
 H   -0.8255837416    1.8738735479   -0.1098526198
 H   -1.1415886102   -2.9055933393   -0.0552486915
 H    2.1768487463   -0.5994071924    0.0225388038
 H   -4.6629747818    0.0982299924    0.0243311548