16

 C    0.0309524026    1.5871062376   -0.0151957510
 C   -0.0433016060    0.0494196207    0.0346423991
 N    0.4903177225   -0.5547500143   -1.1902220935
 C    1.6617990556   -1.2453275046   -1.3545844352
 O    2.0929205568   -1.5945619490   -2.4377452038
 N    2.3209827659   -1.5424348383   -0.1684037549
 C    1.7946447090   -1.2402692442    1.0803746747
 C    0.6859997920   -0.5141389333    1.2245295012
 H    1.0714144298    1.9181967987   -0.0797003014
 H   -0.5135934071    1.9756911618   -0.8831615015
 H   -0.4173321872    2.0205162124    0.8849973539
 H   -1.1072219504   -0.2263005581    0.1041792670
 H    0.0576526070   -0.3076702567   -2.0666187898
 H    3.1261884690   -2.1359204707   -0.2698500163
 H    2.3500104290   -1.6370852316    1.9221497046
 H    0.3032351115   -0.2877449904    2.2108485967