19

 C   -0.0339920871    1.5022872610    0.0196192512
 C   -0.0116423714    0.0133594840   -0.0354494049
 C   -0.0742860574   -0.8339522024   -1.0695964502
 C    0.0207443775   -2.2077718842   -0.4422576950
 C   -0.8051816640   -2.1600741496    0.8921014299
 C    0.2085835457   -3.0881169380    1.5971208264
 C    1.0564243211   -2.0951323465    0.7640853804
 O    2.4280101986   -1.9725875718    0.7123531344
 C    0.1129164140   -0.9118070853    1.1694335501
 H    0.8822245668    1.8984069432    0.4764776787
 H   -0.1281292727    1.9370432173   -0.9795075202
 H   -0.8689974187    1.8712788494    0.6295071539
 H   -0.1505767682   -0.6117580881   -2.1252457826
 H   -0.0034366042   -3.1100904193   -1.0557568812
 H   -1.8918957349   -2.1807417415    0.9680484621
 H    0.2832780987   -3.0027515481    2.6848825077
 H    0.2175164605   -4.1355310784    1.2789142227
 H    2.8066868002   -2.8357613441    0.5134902477
 H    0.1744111757   -0.5007360575    2.1788502688