17

 C    0.1830767012    1.5536664512   -0.0243849218
 C    0.1132786155    0.0591923963    0.0744836290
 C    0.6004845053   -0.8850969201   -1.0441190716
 C    1.2888188463   -1.7918706046    0.0224926947
 C    0.8088682782   -0.8527996963    1.1606602394
 O    1.7698599160   -0.5200710510    2.0971247842
 C   -0.6271708589   -1.1214036209    1.6084065678
 O   -1.1735032797   -1.6628943956    2.5176784416
 O   -1.1950397604   -0.4151273175    0.5794981554
 H    1.2023923661    1.8648848865   -0.2714774800
 H   -0.4884141027    1.9251422705   -0.8056400137
 H   -0.1019140769    2.0217183950    0.9224993056
 H   -0.2100850270   -1.3382790667   -1.6166859126
 H    1.3064493107   -0.4165975815   -1.7331568885
 H    0.9705072444   -2.8336461833    0.0886540274
 H    2.3786552414   -1.7579423278   -0.0354333232
 H    1.3358814605   -0.2339701342    2.9086677162