21

 C    0.3997884767    1.5403631274   -0.3708924285
 C    0.0409115675    0.0892856458   -0.0309992385
 O   -1.3457336831    0.1308430920    0.3120620046
 C    0.3360353510   -0.8307668665   -1.2013052493
 C    1.3931611493   -1.6099297731   -0.9830489208
 C    2.0026591003   -1.3676606794    0.3769870016
 C    0.9036262634   -0.5570021297    1.1037246085
 C    1.4049440279    0.3842207958    2.1850752926
 O    2.0291137424   -0.4135298246    3.1848713929
 H    1.4640773362    1.6401490070   -0.5994472738
 H   -0.1728092534    1.8651304894   -1.2441300329
 H    0.1487706708    2.2060728380    0.4601951679
 H   -1.6404211812   -0.7791065250    0.4278287891
 H   -0.2533654663   -0.7816998376   -2.1109958071
 H    1.8087304596   -2.3162027415   -1.6942073422
 H    2.2681235355   -2.2869768243    0.9076405770
 H    2.9333060160   -0.7878556980    0.2891496871
 H    0.2426262189   -1.2783784074    1.6017914206
 H    2.1171928567    1.1101374972    1.7626060649
 H    0.5574672379    0.9511849950    2.6008988844
 H    2.3626348040    0.1721327295    3.8706755619