21

 O   -0.0600550911    1.4163556144    0.0474101093
 C   -0.0043947811    0.0208011383    0.0116732056
 C    0.8813020551   -0.6994304263    1.0355258921
 C    0.5438913204   -2.1696958039    0.6535475688
 C   -0.4503679778   -1.9082368701   -0.4882773391
 C   -1.3591347613   -0.7434672769    0.0216732680
 C   -2.1013124084   -0.2376345310   -1.2198244516
 C   -0.9224780006   -0.2453577609   -2.2431715619
 C    0.1938693938   -0.7680670563   -1.3352380314
 H    0.8408102804    1.7567803689    0.0486285055
 H    1.9423701912   -0.4567858849    0.9046493113
 H    0.6037836414   -0.4423908473    2.0621717773
 H    1.4212269234   -2.7316744888    0.3191063869
 H    0.0903413012   -2.7239231312    1.4806694502
 H   -0.8984058353   -2.7711271174   -0.9832790777
 H   -1.9233788405   -0.8446656577    0.9516282253
 H   -2.9192099075   -0.9037409735   -1.5105074852
 H   -2.5152515141    0.7623881829   -1.0690294204
 H   -1.1060595170   -0.9001770151   -3.1001090642
 H   -0.7007959609    0.7559241187   -2.6226471435
 H    1.1912963389   -0.8947588420   -1.7645516650