18

 O    0.0859366318    1.4525095699   -0.1636045362
 C    0.0314454986    0.0539128274    0.0120231740
 C    0.2858680901   -0.5451607328    1.4426127397
 C   -1.1202825193   -1.2146861614    1.3928731363
 C   -2.3319305670   -0.4603383433    1.9898765731
 C   -2.2196346526    1.0299231529    1.8359828388
 C   -2.5893628244    0.2157005772    0.6309523159
 C   -1.4006127365   -0.5517719539    0.0118614081
 H    1.0111440822    1.7178167359   -0.1595824256
 H    0.6589650044   -0.4521158075   -0.7358157254
 H    1.1204313467   -1.2503212374    1.4820630022
 H    0.4227157742    0.2006824161    2.2297239716
 H   -1.1571868367   -2.2976592265    1.5054709906
 H   -3.0437006157   -0.9017843140    2.6779595429
 H   -3.0496517451    1.5821358275    2.2672652145
 H   -1.2736371184    1.5546457654    1.8834981768
 H   -3.5284111245    0.3741694391    0.1143511327
 H   -1.6726447579   -1.1506584245   -0.8577094700