18

 C    0.0358244977    1.5038153578    0.1039647149
 C    0.0092914876   -0.0085395539    0.0077894852
 O    0.6939828947   -0.5311951980    1.1629400694
 C    0.7703460226   -1.8521421025    1.2517744441
 N    0.3002843961   -2.6979231195    0.4201615861
 C    0.6003867558   -4.0602480714    0.8911019860
 C    1.3749642390   -3.9520414301    2.2214436538
 C    1.4797387534   -2.4481543514    2.4476813459
 O    1.9975652509   -1.8512643774    3.3530421634
 H    1.0641325709    1.8750580776    0.1199413028
 H   -0.4759762269    1.9379781332   -0.7600709374
 H   -0.4676936869    1.8453770732    1.0124148752
 H   -1.0119644288   -0.4048427958   -0.0048674411
 H    0.5115164762   -0.3748512643   -0.8943180604
 H   -0.3415544676   -4.6084488841    1.0002638372
 H    1.1733899764   -4.5803667288    0.1159601440
 H    0.8582858872   -4.4158992921    3.0667707037
 H    2.3772139817   -4.3884786724    2.1802880975