21

 C   -0.0224263426    1.4791365338   -0.0741757495
 C   -0.0721332598   -0.0208224196    0.1585645877
 C   -1.2844379040   -0.6629963222   -0.4900733055
 O    1.1815014513   -0.7035148491   -0.0272586464
 C    0.6468151216   -0.6413140092    1.3085541037
 C    1.4164972155    0.1838412938    2.3196565149
 C    0.2066751259   -1.9932574800    1.8155359323
 C    0.8157467586   -2.6672747048    2.9716554594
 O   -0.4587017047   -2.0298433823    3.0825522010
 H    0.9470977821    1.9016599541    0.1881927206
 H   -0.1987100141    1.6918455916   -1.1340634748
 H   -0.8015341891    1.9913351204    0.5007167665
 H   -1.2782631319   -0.4509762423   -1.5647230817
 H   -1.3173824779   -1.7443200204   -0.3658865155
 H   -2.2049835737   -0.2401153066   -0.0737386904
 H    1.5047787849    1.2285602535    2.0270470470
 H    0.9070683666    0.1391530402    3.2866649909
 H    2.4280213141   -0.2167634473    2.4407307445
 H   -0.2356559212   -2.6374013850    1.0600664452
 H    0.7986295674   -3.7553563732    3.0159230992
 H    1.6238517908   -2.1944364654    3.5238156311