19

 C   -0.2970147481    1.5366676947    0.0789528926
 C   -0.0268996811    0.0537479904    0.0270961625
 C    1.0927173039   -0.5022506223   -0.8805750658
 O    1.6172716633   -1.3285521722    0.1784343493
 C    0.6409233862   -0.8396336408    1.1369288661
 C    1.2296598761   -0.4356465954    2.4549935213
 C   -0.6249577651   -1.7008113420    1.0605997382
 N   -0.9472485414   -2.7828449282    1.6266165484
 N   -1.2044875913   -0.8244695937    0.1330472387
 H    0.6335121371    2.0994105693    0.2015606274
 H   -0.7721694963    1.8799785249   -0.8480057914
 H   -0.9667890641    1.7796000776    0.9084251199
 H    0.7629798151   -1.0834278730   -1.7504661712
 H    1.8308572353    0.2438769526   -1.2017211759
 H    2.0476151030    0.2773205675    2.3179839793
 H    0.4661656218    0.0101497822    3.0993945606
 H    1.6219727978   -1.3224616729    2.9627226848
 H   -1.8449234671   -3.1381122188    1.2908460581
 H   -1.8116123851   -1.0929742300   -0.6316651030