21

 C   -0.1387528225    1.4063921289   -0.1857627782
 C    0.0174099566   -0.0572992224    0.1597800466
 C    1.3403909154   -0.7850638490   -0.0116795998
 C    0.7588461038   -0.5579804116    1.3666301389
 C    1.4248257607    0.3739621485    2.3537363632
 O    0.1275958162   -1.6698414281    1.9618786788
 C    0.9942446975   -2.6472794950    2.4880150941
 C    0.1720587269   -3.8893530561    2.7855206832
 O    0.6004054732   -4.8497465154    3.3679674652
 H    0.7723211958    1.9767607883    0.0170916719
 H   -0.3648261847    1.5252102893   -1.2508946099
 H   -0.9550917240    1.8677568984    0.3808483597
 H   -0.8521146235   -0.6673328208   -0.0692818490
 H    1.3173150995   -1.7913546816   -0.4155465497
 H    2.2101324733   -0.2026105180   -0.3002840169
 H    1.8429961867    1.2499227874    1.8533939505
 H    0.7027413794    0.7168899759    3.1021518482
 H    2.2480824646   -0.1227332077    2.8783335455
 H    1.7853417751   -2.9195864206    1.7699552634
 H    1.4929982624   -2.3257618572    3.4142691691
 H   -0.8711594326   -3.8337312033    2.4029937551