17

 N   -0.0637506163   -1.1411502394   -0.1337039081
 C   -0.0652200149    0.0132511793   -0.0618463399
 C   -0.0418638618    1.4613798729    0.0443516673
 C   -0.2479514864    2.0259284495    1.5029462929
 C    1.1606809463    2.6737470820    1.4489999253
 C    1.3931288362    2.1040307431    0.0364897744
 C    1.5054292817    3.5567432810   -0.4442555800
 C    0.3558278867    4.4018237912   -0.0749314247
 N    1.3457374673    4.1083852278    0.9754395315
 H   -0.7165233515    1.8814259634   -0.7063318903
 H   -1.1032405947    2.6914204193    1.6350627351
 H   -0.3078000748    1.2321937712    2.2492122199
 H    1.8292407119    2.4773833338    2.2853414549
 H    2.2286154102    1.4526374550   -0.2088305347
 H    2.2930471917    3.9138908204   -1.1000175104
 H    0.3954436604    5.4411440433   -0.3873006580
 H   -0.6535509721    4.0067277462   -0.0155415553