16

 O   -1.0383131046   -0.0684690661   -0.0525004793
 C    0.2770284825   -0.5154658184   -0.2704146038
 C    1.0758602848    0.5883902618   -0.9630554562
 O    0.5686783012    1.6443385400   -1.2533599483
 C    0.9536382229   -0.8615184001    1.0266600257
 C    2.0547221736   -1.6365513334    1.3266761028
 C    2.2796097340   -1.5243327030    2.7267675683
 C    1.3109616517   -0.6874796611    3.2336759279
 N    0.5244091280   -0.2788476895    2.1898754378
 H   -1.0881179333    0.7943595391   -0.4976910898
 H    0.2977482795   -1.3957001902   -0.9358858875
 H    2.1426041940    0.3661740041   -1.1568050033
 H    2.6284853698   -2.2215760683    0.6235344602
 H    3.0579655705   -2.0090858288    3.2955304575
 H    1.1083506168   -0.3648642070    4.2421251931
 H   -0.3217702315    0.2635048608    2.2382781549