18

 C   -0.4713731849    1.5602786110    0.1859600375
 C   -0.0637308087    0.1058182673   -0.0057707355
 C    0.6180732455   -0.4691315779   -1.2836426721
 C    1.7592062275    0.2672377517   -2.0491738269
 O    1.7526640972    1.6629687864   -1.8692122111
 C    2.7811923825   -0.5447934271   -1.1883662265
 N    1.6510979902   -1.1522757588   -0.4155452944
 C    1.2137278995   -0.3888461592    0.7073212937
 O    1.7628171300   -0.1505443504    1.7432135811
 H    0.3579226793    2.2357919442   -0.0184082151
 H   -1.3009862075    1.8221396889   -0.4779048880
 H   -0.8027181428    1.7094220297    1.2180160251
 H   -0.9078034960   -0.5499351770    0.2411523619
 H    0.0013409474   -1.1171887633   -1.9093935238
 H    1.7829668695    0.0070418981   -3.1159473458
 H    2.5442459344    2.0264637963   -2.2797959767
 H    3.3548417336   -1.2955108895   -1.7379103766
 H    3.4517138733    0.0550543797   -0.5666948567