18

 C   -0.0730046926    1.5554321802   -0.0072452201
 C   -0.0473414293    0.0269748555   -0.0126255880
 C   -1.4309885478   -0.5790126543    0.2223555437
 C    0.7704153133   -0.6189661270   -1.1810633310
 N    1.7286681709   -1.1219214346   -0.1766902366
 C    2.8812532419   -1.8723163984   -0.3235478608
 O    3.5957073802   -2.2306745955    0.5749369659
 C    1.0361342921   -0.5616142717    0.9221511304
 O    1.2440831472   -0.5685145896    2.0966852923
 H    0.9215616024    1.9761426442   -0.1854330918
 H   -0.7484950664    1.9338791041   -0.7817342030
 H   -0.4238334008    1.9234638892    0.9613156829
 H   -2.1352197101   -0.2458622097   -0.5473291661
 H   -1.4000480942   -1.6729608564    0.2072128780
 H   -1.8183820848   -0.2682788507    1.1970404692
 H    0.2526884192   -1.4136783539   -1.7249088689
 H    1.2111965633    0.0909835300   -1.8860902446
 H    3.0693348356   -2.1069161815   -1.3914935913