18

 C   -0.0275523640    1.5435803072    0.0229093314
 C    0.0594808843    0.0488938729    0.0258827988
 C    0.6008650774   -0.9017225652   -1.1011227301
 C    1.4594378243   -1.6075772335   -0.0179163076
 C    0.6859664573   -0.8652949152    1.1317592686
 C   -0.6842788545   -1.5285594715    1.2030033155
 O   -1.1812231245   -2.4178416506    1.8279507939
 N   -1.2153398947   -0.7766006293    0.0875669971
 C   -0.8345640163   -1.4615419553   -1.2086908301
 H    0.9707475087    1.9928781256   -0.0044333995
 H   -0.5870352590    1.9025525537   -0.8472123797
 H   -0.5394333896    1.8995597955    0.9232282727
 H    1.1064126422   -0.5776868650   -2.0110859029
 H    1.4767944577   -2.7006022167    0.0116974433
 H    2.4861948649   -1.2358026504   -0.0555508624
 H    1.2358277772   -0.5684169143    2.0241574975
 H   -1.4037120768   -1.0344366810   -2.0389046813
 H   -0.9780710648   -2.5459591871   -1.1936436852