17

 O   -0.1761779076    1.3972643100   -0.0788033381
 N    0.0098024179    0.0074946140    0.0138254850
 C   -1.0957007266   -0.6026798283   -0.0051576751
 C   -2.5650332358   -0.2762172679   -0.1516351499
 N   -2.8054822385   -1.7309588119   -0.3789521990
 C   -1.4135842438   -2.0838856677    0.0271651561
 C   -0.6625418459   -3.0014238021   -0.9482032384
 C   -1.1488193433   -4.3741393253   -0.8984119514
 C   -1.5693205882   -5.4979355361   -0.8266625525
 H    0.7291930501    1.7262536329   -0.0669586635
 H   -3.0028891468    0.1425452663    0.7651472630
 H   -2.8422302462    0.3665707823   -0.9938536017
 H   -3.5249530321   -2.1370161118    0.2070376659
 H   -1.3389985971   -2.4985842441    1.0427074960
 H   -0.7745585034   -2.5964034725   -1.9599989293
 H    0.4063398517   -2.9681551155   -0.7031329035
 H   -1.9308539244   -6.4950775023   -0.7807486838