20

 O   -0.2831598137    1.4953253218    0.1045750085
 C   -0.0295443932    0.1232580989   -0.1041880007
 C   -1.3159007310   -0.6842856085   -0.1655397640
 O   -2.0558961264   -0.1806757368   -1.2853310885
 C   -3.3532689328   -0.5335266555   -1.3650074301
 N   -4.0567414759   -0.1710137255   -2.3422323071
 C   -5.4600683648   -0.5476062485   -2.3626705968
 C   -6.2945662278    0.7070657624   -2.6396756430
 O   -5.8939790578    1.3310816233   -3.8396276843
 H   -0.8573749035    1.7809648300   -0.6153052526
 H    0.5473701703   -0.0510031719   -1.0255122101
 H    0.5732675812   -0.2261542144    0.7402068353
 H   -1.1034706194   -1.7529638600   -0.3020091562
 H   -1.8927142637   -0.5449463775    0.7571810190
 H   -3.7143507746   -1.1425490742   -0.5228896711
 H   -5.6148661342   -1.2526339736   -3.1891685764
 H   -5.7939689039   -1.0326529708   -1.4301092152
 H   -7.3509564051    0.4376887756   -2.7470715037
 H   -6.2090539089    1.3911653467   -1.7782993107
 H   -4.9281528349    1.3438816285   -3.8117987725