17

 C   -0.0372174809    1.6614910534   -0.6395587361
 C   -0.0405465434    0.2342264828   -0.1538207707
 C    1.1560111279   -0.6533128373   -0.3124009997
 C    0.7126501136   -0.2032488262    1.0659005589
 O   -1.2651644343   -0.4637890832   -0.4211316769
 C   -2.3357026052   -0.1777900001    0.3294018771
 N   -2.3689676178    0.6794088692    1.2627920220
 C   -3.4705085558   -0.9954370497   -0.0728740798
 N   -4.4114877643   -1.6117165372   -0.3385241021
 H    0.9583206573    2.0932863242   -0.5055629246
 H   -0.2857625066    1.7042946840   -1.7049114987
 H   -0.7535730687    2.2681994653   -0.0814960816
 H    0.9699185632   -1.6863340403   -0.5818951458
 H    2.0511915135   -0.2219102510   -0.7460135626
 H    1.2955878387    0.5443760948    1.5918299125
 H    0.2440008111   -0.9406044017    1.7061366240
 H   -3.2897680583    0.7184066730    1.6939938241