21

 C   -0.7035204419    1.6035934594   -0.3079896200
 C    0.0816469952    0.3561829795    0.1371260766
 C    0.8648948412   -0.2426732025   -0.9393983856
 C    1.5017974643   -0.7163338581   -1.8466736638
 C    2.2801337061   -1.3068460072   -2.9263391680
 C    3.8236018261   -1.3217423709   -2.6871315667
 C    4.2635255257   -2.5685755532   -3.4151612236
 C    3.2373464533   -3.3599891523   -3.7220143624
 C    1.9194235948   -2.7902914637   -3.2565325461
 H   -0.0253626552    2.3772214997   -0.6784293213
 H   -1.4020391489    1.3559965271   -1.1119753397
 H   -1.2737132554    2.0166077867    0.5297259588
 H    0.7468496024    0.6219334713    0.9691468898
 H   -0.6164712960   -0.3893956223    0.5397730000
 H    2.1067884673   -0.7271015752   -3.8418821981
 H    4.2998358931   -0.4062815734   -3.0536207038
 H    4.0549737935   -1.3880178265   -1.6156775442
 H    5.3066710038   -2.7893481390   -3.6134094644
 H    3.3143374528   -4.3258845838   -4.2091630821
 H    1.5562716642   -3.3150753725   -2.3628541829
 H    1.1218554637   -2.8572159329   -4.0039183523