20

 C    0.6384922405   -0.0091534417   -1.2921486729
 C   -0.0637864902    0.0629771801    0.0634686161
 O   -1.3824464105   -0.5082701198   -0.0101954331
 C    0.6545959996   -0.6684319132    1.2178272408
 C    0.6732898785   -2.2018484011    1.0626703026
 O   -0.5853936730   -2.8035909182    1.2704752310
 C    2.0790629267   -0.1501132144    1.4196606041
 O    2.0573804951    1.2710707901    1.4591028586
 H    0.7891489648   -1.0406005386   -1.6231963739
 H    0.0382174309    0.5036660418   -2.0532044691
 H    1.6059181759    0.4984153955   -1.2497992967
 H   -0.1477181934    1.1187934881    0.3485402056
 H   -1.8405474589   -0.1192344671   -0.7611614422
 H    0.0803830510   -0.4511509807    2.1268095337
 H    1.0937624201   -2.4725218481    0.0785296822
 H    1.3491842149   -2.6284925430    1.8146048831
 H   -1.2118990029   -2.2884784523    0.7444413108
 H    2.4762475494   -0.5653028661    2.3581119355
 H    2.7286476080   -0.5102367412    0.6052315982
 H    2.9563786934    1.5825023900    1.5980790856