17

 O   -0.0186965838   -0.0402503001    0.1060987184
 C   -0.0777198106    1.1746412354    0.0659960767
 C    1.1552829716    1.9904962076    0.1199278068
 N    2.1429472631    2.5889373345    0.1649823938
 N   -1.2136148075    1.8963259562   -0.0271157481
 C   -1.3286287775    3.3618540342   -0.0878499173
 C   -2.7733335433    3.5702542600   -0.5643837416
 C   -3.5215834534    2.3728545778    0.0462622802
 C   -2.5169225003    1.2192478536   -0.0835339547
 H   -1.1708969396    3.8015717218    0.9050803014
 H   -0.5844056634    3.7865622138   -0.7651442655
 H   -3.1736237890    4.5371032920   -0.2531409960
 H   -2.8140416440    3.5247238204   -1.6577711015
 H   -3.7392869100    2.5636742269    1.1024565142
 H   -4.4669835385    2.1550449090   -0.4543308554
 H   -2.6171905263    0.6886675729   -1.0381420859
 H   -2.5899090476    0.4736165941    0.7118335743