23

 C    0.0239124273    1.5656513361   -0.2288014292
 C    0.0069303425    0.0635946774   -0.0415939596
 C    1.2729838944   -0.7507264092   -0.1524658688
 C    0.5740901068   -0.6252027762    1.1835917736
 C    1.1995730862    0.1315161101    2.3213277161
 C    0.3064986856    0.6870106903    3.4717614315
 C    1.4260166399    0.2964313738    4.4730982082
 C    2.0070427691   -0.6597990935    3.3943523018
 O    1.4924095755   -1.9773229866    3.4885511642
 H    0.9440769104    2.0161586805    0.1547031425
 H   -0.0452554385    1.8248575634   -1.2913790184
 H   -0.8182674651    2.0440669886    0.2842063789
 H   -0.8835978241   -0.4105873253   -0.4475689328
 H    1.2479672805   -1.7043702172   -0.6685231203
 H    2.2033760933   -0.2043107722   -0.2811676427
 H    0.0328397171   -1.5071597350    1.5106997630
 H    1.8415251503    0.9342002082    1.9443986621
 H    0.0121970962    1.7377136194    3.4194793454
 H   -0.5893751413    0.0760910008    3.6082388743
 H    2.1036661153    1.1287849631    4.6855397048
 H    1.1284549401   -0.1670975327    5.4179962947
 H    3.0994273382   -0.6773094915    3.2771365218
 H    1.8342430303   -2.3700928025    4.2978105890