13

 O    0.0261208367   -0.0615864692    0.1286663131
 C   -0.0324840971    1.1316069071    0.0598845825
 C   -1.1575423336    2.1962689255    0.0593362298
 C    0.0035118663    3.2491288913   -0.0435914073
 N    0.9316921558    2.1124650440   -0.0415548675
 C    0.0290840430    4.0783283281   -1.2367426023
 C    0.0578673956    4.7805802873   -2.2195409230
 C    0.0880651766    5.5709371870   -3.3324548621
 N    0.1143280257    6.2445309545   -4.2783519730
 H   -1.8158865073    2.1548600180   -0.8082997601
 H   -1.7430585958    2.2494352317    0.9775494921
 H    0.0922280617    3.8843704186    0.8453160630
 H    1.9377616525    2.0751780761   -0.1194804451