22

 C   -0.1337012837    1.4588773496   -0.3978543016
 C   -0.0398957113    0.1181320478    0.3421519013
 C   -1.3625962672   -0.6094913863    0.3486236234
 O   -1.7909365232   -1.2132674634   -0.8878015459
 C   -1.5586451780   -2.0691957876    0.2446034156
 C   -0.4080233272   -3.0447043288    0.1155484661
 C   -2.8137725728   -2.6832538842    0.8103978284
 C   -4.1450821066   -2.0998897235    0.5344221494
 N   -3.7473006231   -3.3710622323   -0.1032021091
 H    0.8274365737    1.9809300739   -0.3889469551
 H   -0.4280640606    1.3020442489   -1.4397577337
 H   -0.8769222615    2.1168470777    0.0654080239
 H    0.7326158174   -0.5033743808   -0.1185173136
 H    0.2634630794    0.2858540919    1.3838951228
 H   -2.1645461998   -0.0597655748    0.8479960242
 H    0.4504156444   -2.5978870471   -0.3869976163
 H   -0.0924897265   -3.3970919296    1.1035056688
 H   -0.7243473388   -3.9193906974   -0.4622521503
 H   -2.6618761646   -3.2148845798    1.7482326276
 H   -4.9359556662   -2.1845347206    1.2740929113
 H   -4.1823148543   -1.2136001933   -0.0913038281
 H   -3.4644458494   -3.1614285605   -1.0598499790