15

 O   -0.0277038344   -0.0266955582   -0.0064831089
 C   -0.0296134799    1.1657009544    0.0206599794
 O    1.1116921391    1.8854518568   -0.0990674129
 C    1.0133264858    3.3151469378   -0.0063894305
 C    0.9054658987    3.8625845412    1.4484093599
 O    2.2244701599    4.4243771271    1.3829841642
 C    2.4357986826    3.9273650760    0.0502358047
 C    0.0999509021    3.8721658568   -0.9876881052
 C   -0.6504192964    4.3476432972   -1.7969633909
 H   -0.9319082534    1.7914525181    0.1370959443
 H    0.1329435533    4.6217564662    1.6075047123
 H    0.8207705843    3.0707917324    2.2021133316
 H    3.2209099473    3.1657963131   -0.0003038638
 H    2.6292102619    4.7274597420   -0.6702671181
 H   -1.3126440110    4.7644740990   -2.5162126562