19

 O   -0.0562357262    1.4009217811    0.1693219529
 C    0.0263156588   -0.0056110772   -0.0233042247
 C   -1.3810677595   -0.5468921382   -0.0686709480
 C   -2.2324142600   -0.4746159447    1.2657111020
 C   -2.7027289595   -1.8962799895    0.9938766348
 C   -3.0440967402   -2.1239325318   -0.5054129066
 C   -3.2707081367   -0.9315872349   -1.3715614316
 C   -2.2891958586   -0.0460225052   -1.1742492725
 C   -1.6163969568   -2.0985884554   -0.0348641030
 H    0.8364841128    1.7581477353    0.1716349388
 H    0.5459896693   -0.2487589255   -0.9646722420
 H    0.5836871170   -0.4883184630    0.7963524362
 H   -1.5687588372   -0.4541949276    2.1348097360
 H   -2.9682415945    0.3311068864    1.3444744501
 H   -3.0784880794   -2.5952021749    1.7318980074
 H   -3.5143008537   -3.0766430092   -0.7209037500
 H   -4.1356867996   -0.8067685583   -2.0113300173
 H   -2.2119817784    0.9528359592   -1.5838645553
 H   -0.8846388076   -2.8881796965   -0.1637025071