21

 O   -0.0914897788    1.3717552354    0.1750480906
 C    0.0070290801   -0.0201457438   -0.0056992812
 C   -0.5028616037   -0.5654628224   -1.3206635983
 C   -1.2986712171   -0.7596421226   -0.0421528476
 C   -1.3138748867   -2.0780127096    0.7218648947
 C   -0.7066134990   -1.8012691272    2.1332505129
 C    0.6830886834   -2.0007868535    1.4545768732
 C   -0.0445928289   -2.9334364890    0.4498651192
 C    1.1419442608   -0.6979410843    0.7719997177
 H    0.6185379137    1.7835851933   -0.3299498436
 H   -0.8860500211    0.1726036026   -2.0171344110
 H   -0.0095869891   -1.4114411634   -1.7858444360
 H   -2.1911415317   -0.1497621926    0.0609474423
 H   -2.2834893467   -2.5765319646    0.6521677477
 H   -0.9224409503   -0.8330461448    2.5938198371
 H   -0.9233978403   -2.6045176942    2.8426730245
 H    1.4914419270   -2.4270563287    2.0539212580
 H   -0.1666565325   -3.9384105581    0.8628775842
 H    0.3405780362   -3.0221715098   -0.5689440355
 H    2.0111260608   -0.8928710016    0.1291548076
 H    1.4634001939    0.0124019690    1.5417200135