18

 C    0.0194183711    1.5914416050   -0.0505160825
 C    0.0177403249    0.0929138475    0.0124047318
 C   -0.1480057986   -0.7335381988    1.3012488316
 C   -1.2179613453   -1.7788162185    1.5374780109
 O   -0.8249895365   -2.7200848170    2.5240396561
 C    1.0417523181   -0.9474826092    0.4267396703
 O    0.6888377473   -1.8055869870   -0.6926751544
 C   -0.1995182220   -0.8282101765   -1.1504506870
 N   -0.8537692730   -0.7630320781   -2.2162655589
 H    0.5889516209    1.9478044933   -0.9141517886
 H   -1.0013663944    1.9758519872   -0.1432810660
 H    0.4588077949    2.0213713120    0.8543331771
 H    0.0827666569   -0.1356220175    2.1818560441
 H   -2.1203865729   -1.2962876330    1.9255753925
 H   -1.4879946139   -2.2700167933    0.5943736608
 H   -0.0875248654   -3.2229042539    2.1625283013
 H    2.0909988932   -0.8748452236    0.6798721296
 H   -0.6982518651   -1.5853020186   -2.8018209587