17

 C    0.0594870670    1.3367557456   -0.0508949090
 O    0.0836009679   -0.0734294424   -0.0026154244
 C    0.5969939045   -0.5898807460    1.2064147381
 C    0.6780146364   -2.1042132116    1.0199972349
 O    1.4618136492   -2.4166651531   -0.1102160975
 C    1.3329914760   -2.7775934576    2.2333833952
 C    1.2862858261   -4.2360875025    2.1606638120
 N    1.2373555435   -5.3894175454    2.1220240162
 H    1.0678139470    1.7627164067    0.0617765080
 H   -0.3414335253    1.6215690668   -1.0260242204
 H   -0.5847484153    1.7559305338    0.7361904676
 H    1.6020144674   -0.1813754876    1.4056984646
 H   -0.0559152575   -0.3301613781    2.0558612278
 H   -0.3473024005   -2.4897523451    0.9049848992
 H    1.1460480781   -1.8423859222   -0.8190438255
 H    2.3795372640   -2.4594862715    2.2936546843
 H    0.8320355915   -2.4591474498    3.1544172688