16

 N   -0.0565708416    1.2855188328   -0.0478365608
 C   -0.0172752247    0.0269172753    0.0080690671
 O    1.1333811236   -0.7189842916    0.0561937115
 C    0.8351440888   -2.1274658432    0.0271428747
 C   -0.0079292497   -2.4535074486    1.2577343484
 O   -1.2019935630   -1.6677184304    1.2078288871
 C   -1.2332970722   -0.8732636359    0.0180177176
 C   -1.1360117611   -1.8086119868   -1.1902853119
 O    0.1508656229   -2.4544898175   -1.1481576476
 H    0.8889240232    1.6750810876   -0.0554105505
 H    1.7931977017   -2.6461873180    0.0094469263
 H   -0.2640923504   -3.5199723223    1.2591545425
 H    0.5474016353   -2.2168635082    2.1729871960
 H   -2.1516299624   -0.2897017105    0.0317953053
 H   -1.9282232947   -2.5646463236   -1.1394119933
 H   -1.2168950957   -1.2602474390   -2.1347055424