19

 C   -0.0019193794    1.5033168607    0.0497372520
 C   -0.0005692143    0.0482176373    0.0329622669
 C   -0.0001458032   -1.1582437227    0.0218647531
 C    0.0093736334   -2.5774029488   -0.0077369713
 C   -0.2848855293   -3.4682249618    1.2014574959
 C   -1.1227903912   -3.6198595684   -0.0241403126
 C   -2.6076171231   -3.5219000079   -0.1257830504
 O   -0.4368644045   -4.4352577682   -0.9802415861
 C    0.6326470338   -3.4618419302   -1.0894072599
 H    0.8145371045    1.9046582057   -0.5611947225
 H   -0.9395282397    1.9110053516   -0.3453462583
 H    0.1270356300    1.8919077754    1.0662736815
 H    0.4159760554   -4.2522172364    1.4775691055
 H   -0.7455224951   -2.9396816754    2.0293868151
 H   -2.9864777156   -2.7700137151    0.5718694516
 H   -2.9112278704   -3.2460941867   -1.1398778131
 H   -3.0726221204   -4.4829370310    0.1221825194
 H    0.6309435257   -2.9932352249   -2.0789096228
 H    1.6174581235   -3.8956584332   -0.8793603141