18

 C   -0.0224396449    1.4811268781   -0.0184459112
 N   -0.0077574144    0.0197019582   -0.0115825929
 C    0.0006290948   -0.6325410254    1.2245009391
 O   -0.0036686698   -0.0555067296    2.2849542135
 C   -0.0016272395   -0.7525446662   -1.1858913299
 O    0.0104099558   -1.9653649216   -1.1502126290
 C   -0.0110386730    0.0187347563   -2.4904231319
 C   -0.0023171544   -0.9081055488   -3.6989014522
 O   -0.0120892235   -0.0746097889   -4.8475566005
 H    0.8634581438    1.8848889617   -0.5156665798
 H   -0.9165535825    1.8669408539   -0.5151682929
 H   -0.0253068298    1.8001454852    1.0232966554
 H    0.0114775757   -1.7228383013    1.1070900983
 H   -0.8919370924    0.6704044899   -2.5347032900
 H    0.8556215864    0.6890984019   -2.5363772858
 H    0.8881344433   -1.5506174179   -3.6649500898
 H   -0.8788873532   -1.5693077123   -3.6633796260
 H   -0.0098211524   -0.6390729831   -5.6258526646