25

 C    0.0987274099    1.4503626696    0.1879261940
 C   -0.0418228611   -0.0725399509    0.2443257784
 C   -1.4485504098   -0.5423175787   -0.1011749588
 O   -1.4908076169   -1.9496385710   -0.0227222164
 C   -2.7568422012   -2.4903521959   -0.3466186916
 C   -2.6673937391   -3.9911205295   -0.2733328482
 C   -2.8374298368   -4.7105167429    1.0431523514
 C   -3.8750254401   -4.8737479797   -0.0401860192
 C   -5.2830416793   -4.3413289903    0.1278497348
 H    1.1162701375    1.7613496432    0.4415808871
 H   -0.1258744149    1.8360824919   -0.8127979403
 H   -0.5829738685    1.9410051628    0.8916414808
 H    0.6622262832   -0.5461352960   -0.4494722262
 H    0.2112149001   -0.4414923530    1.2449141343
 H   -2.1823841558   -0.0952538051    0.5937221315
 H   -1.7268273329   -0.2039503192   -1.1156836708
 H   -3.5219176476   -2.1043818869    0.3466867490
 H   -3.0538656870   -2.1692384358   -1.3608848523
 H   -1.9134309071   -4.3958304875   -0.9430554039
 H   -2.1773766626   -5.5386715871    1.2763514534
 H   -3.1076786440   -4.1042904787    1.9029097307
 H   -3.8373538416   -5.8195400549   -0.5753769372
 H   -5.3087430627   -3.4234133553    0.7218114934
 H   -5.7509233739   -4.1255756792   -0.8394832676
 H   -5.9114896676   -5.0771794300    0.6418042839