21

 C   -0.0732594108    1.5899411904    0.2587141026
 C   -0.0541050767    0.0778158347    0.0086427901
 C    0.8976350292   -0.6595081707    0.9575092094
 N   -1.4030788281   -0.4852588934    0.0713413744
 C   -2.2618336267   -0.5113729912    1.1236972301
 C   -3.4135871964   -1.1521279423    0.7076139398
 C   -4.6527463415   -1.4278444697    1.5037136574
 C   -3.1389243194   -1.4792225951   -0.6392855218
 N   -1.9284093170   -1.0770815627   -1.0196213552
 H    0.9287551521    2.0065612414    0.1188277223
 H   -0.7559470845    2.0888623248   -0.4339989512
 H   -0.3911047393    1.8206707400    1.2809584866
 H    0.2528340806   -0.1102722968   -1.0230235426
 H    0.6088994963   -0.5120928111    2.0034833927
 H    0.8973355120   -1.7326040570    0.7493779488
 H    1.9176003454   -0.2826125793    0.8356268050
 H   -2.0030028190   -0.0812443589    2.0788606055
 H   -5.5358650466   -0.9550101424    1.0590335571
 H   -4.8634381287   -2.5013377258    1.5702177967
 H   -4.5576235444   -1.0487598032    2.5253111690
 H   -3.7767102062   -1.9916519318   -1.3460115166