18

 C   -0.0061724734    1.5245336527    0.0383038115
 C   -0.0617357063    0.0269208805    0.0509182411
 N    1.1398734203   -0.7286057117   -0.2933477365
 C    0.5533981352   -0.9648504780    1.0403059949
 C    1.3381351689   -0.7262784580    2.2070092957
 C    1.9705584761   -0.5356960855    3.2126017672
 C   -0.6968282340   -1.8251174820    0.9649909104
 C   -1.9125634978   -1.0209384422    1.3423076442
 C   -1.3111858186   -0.8334523673   -0.0275630846
 H    0.9638192750    1.8714467063    0.4018606990
 H   -0.1437880780    1.9083830225   -0.9792143607
 H   -0.7933729283    1.9497832055    0.6686615916
 H    0.9433608176   -1.5087201741   -0.9182591705
 H    2.5394232524   -0.3677143204    4.0931016236
 H   -0.7043174439   -2.9081461126    0.9199852012
 H   -2.8495674043   -1.5696670578    1.3773525839
 H   -1.8288823480   -0.2345509261    2.0869508955
 H   -1.8581373230   -1.0623348719   -0.9355119275