15

 N   -0.0183511805    1.4076918251    0.1448887936
 C    0.0041380691    0.0214638148    0.0481291883
 C   -1.1870325518   -0.7131865503    0.0384185184
 C   -1.1551041360   -2.1104157431    0.0016028716
 C    0.0634755573   -2.8003101219   -0.0271996237
 C    1.2436750445   -2.0656973127   -0.0190587698
 C    1.2217067500   -0.6773041134    0.0173782069
 C   -2.3874181031   -2.8388619570   -0.0103807747
 N   -3.3840706793   -3.4280604902   -0.0213646695
 H    0.8049480790    1.8810768135   -0.1955269217
 H   -0.8684181944    1.8533710511   -0.1661522877
 H   -2.1426632915   -0.2009246869    0.0626646723
 H    0.0737350780   -3.8822279518   -0.0571110106
 H    2.1974117195   -2.5818161533   -0.0435480087
 H    2.1538253193   -0.1202993340    0.0260493354