14

 C   -0.0253261514    1.4312530003   -0.0093950587
 C    0.0038476929   -0.0589487195    0.0088368965
 N   -0.0756223230   -0.7668379980   -1.1230002643
 N   -0.0117766918   -2.0411514296   -0.6346448252
 C   -0.0201870028   -3.3532282890   -1.0264064769
 N    0.0794130893   -4.1400891374    0.0150600911
 N    0.1535644898   -3.3044117631    1.1038091201
 C    0.0986347487   -2.0060968838    0.7236779471
 N    0.1132099374   -0.7702949988    1.1827767875
 H    0.8875903454    1.8376072439    0.4367680929
 H   -0.1153187694    1.7928993940   -1.0345863459
 H   -0.8687415584    1.8049454639    0.5793499118
 H   -0.0973437765   -3.6927862411   -2.0448702883
 H    0.2352767497   -3.6934428215    2.0257677022