21

 C   -0.5873505262    0.8323437213   -1.5907674104
 C    0.2336665924   -0.2696862211   -0.9412607972
 C    1.7407049321   -0.4239374590   -1.3104572165
 O    2.2494810747    0.8281551993   -1.7312018371
 C    2.0526564580   -0.7586805357    0.1902303668
 C    3.3118164118   -0.1975913627    0.8307826264
 C    0.6824615978   -0.1534118890    0.5204621100
 C    0.3459183394    0.8706461907    1.5092921424
 O   -0.1061800584   -0.4868502134    1.6471907744
 H   -0.0706339230    1.7924348687   -1.5288026401
 H   -0.7694234193    0.6165017927   -2.6485137320
 H   -1.5612513987    0.9248270677   -1.0982659263
 H   -0.2571024643   -1.2414858827   -1.0714695939
 H    1.9805780436   -1.2093137889   -2.0380533629
 H    3.2021906446    0.7440952431   -1.8368069229
 H    1.9986803301   -1.8446684436    0.3326527404
 H    3.4029029243    0.8752992806    0.6378334899
 H    3.2962672729   -0.3471251821    1.9153071813
 H    4.2113607176   -0.6937914849    0.4480205382
 H    1.0906573716    1.1896610220    2.2372897836
 H   -0.4318540809    1.6017167269    1.2936940960