15

 N    0.1120292989    1.3837417594   -0.2073583351
 C   -0.0294818470    0.0101313834    0.0046909881
 C   -1.1784598090   -0.7070212470   -0.1218251334
 N   -1.1840670546   -2.0793598022    0.0160736338
 C   -0.0896742034   -2.6865121368    0.3063397291
 O   -0.0623588540   -4.0304461752    0.4550949945
 C    1.2172629446   -2.0379664463    0.4951218988
 N    2.3465593608   -2.5701724242    0.7785639639
 N    1.1299640621   -0.6624077146    0.3030727644
 H    0.5987596692    1.8615288987    0.5434355983
 H   -0.7770802090    1.8348655938   -0.3765295941
 H   -2.1244935367   -0.2266604756   -0.3342615936
 H   -0.9664341264   -4.3365367413    0.2997762628
 H    2.2326032736   -3.5766078067    0.8738850202
 H    2.0109306208   -0.1681425956    0.3182402822