17

 C    0.0113404980    1.4200077113   -0.0434736849
 O   -0.0145937518    0.0124463297    0.0245183677
 C    0.6122820195   -0.5888034847   -1.0646383929
 C    0.5573215792   -2.0845060999   -0.9418747428
 N    0.0265003552   -2.7540087143    0.0056070528
 C    0.2300803857   -4.1647048999   -0.3292469947
 C    0.9879410888   -4.2018732302   -1.6627761540
 O    1.3721287056   -5.1317738151   -2.3260506355
 N    1.1410413534   -2.8496352311   -1.9578796669
 H    1.0415685427    1.8096125141   -0.0543447872
 H   -0.5089298601    1.7954838630   -0.9388073399
 H   -0.4996264612    1.7927872244    0.8462960029
 H    0.1365366725   -0.2974801230   -2.0207679189
 H    1.6729049404   -0.2821651945   -1.1448893314
 H    0.8036172030   -4.6756192362    0.4520044669
 H   -0.7272019344   -4.6902537870   -0.4172918633
 H    1.6057417633   -2.5094070466   -2.7844263978