23

 C   -0.0024568194    1.4946185167   -0.2487774857
 C    0.0213129348    0.0269660543    0.1964011542
 C   -1.3545234916   -0.6022724666    0.1520645061
 C   -1.8812514548   -1.2885278198   -1.0890587829
 O   -0.9277176214   -1.6130560529   -2.0692647847
 C   -0.3711388123   -2.8909894275   -1.7446681676
 C   -0.4662101546   -3.0332165778   -0.2110058213
 C   -1.6326766746   -2.1033421214    0.1532409806
 C   -2.7481964588   -2.6548223932    1.0105225036
 H    0.9965311692    1.9392214954   -0.1997765065
 H   -0.3604680384    1.5794276754   -1.2796029781
 H   -0.6654114446    2.0932303234    0.3859412095
 H    0.7041310022   -0.5272158519   -0.4537921936
 H    0.4260532069   -0.0446216080    1.2144409733
 H   -2.1098855906   -0.0328016486    0.6935000797
 H   -2.8747367512   -1.0819798147   -1.4790299678
 H   -0.9471711500   -3.6861566438   -2.2426052888
 H    0.6523380441   -2.9165820000   -2.1303292602
 H   -0.6860721679   -4.0641670607    0.0814095826
 H    0.4682968949   -2.7470371833    0.2812828049
 H   -2.4031239582   -2.8625715155    2.0304511521
 H   -3.5797771230   -1.9466878024    1.0844656302
 H   -3.1431564309   -3.5905508072    0.5968089204