20

 O    0.4036913980    0.9618643598   -0.8014738430
 C    0.0596790559   -0.1366507701    0.0352858705
 C    0.6148029483    0.0540650196    1.4664688263
 C   -0.1682797010   -0.7355996370    2.5432225657
 C   -1.6420241007   -0.9038278703    2.1379166497
 C   -1.7157125675   -1.7330740296    0.8270740305
 C   -1.4557045202   -0.3987059410    0.0782452675
 C   -2.1248261598    0.3131382237    1.2927723095
 H    0.0008025884    1.7523416428   -0.4251227528
 H    0.5383997230   -0.9965572307   -0.4484419207
 H    1.6837272394   -0.1749939663    1.4971297551
 H    0.5352985423    1.1245378678    1.6922980110
 H    0.2715472269   -1.7287339452    2.6966851777
 H   -0.0892108342   -0.2108716038    3.5021381421
 H   -2.2581524990   -1.2245869011    2.9814947584
 H   -0.9896580214   -2.5430803840    0.6955850313
 H   -2.7211406845   -2.1179413041    0.6361576151
 H   -1.8856949459   -0.2611811452   -0.9165669390
 H   -3.2132004569    0.3235364014    1.1931358032
 H   -1.7901623409    1.3163798730    1.5764364318