21

 C    0.2858734100    1.2180346862    0.3938096606
 O    0.1454291896   -0.1540464406    0.1126881446
 C    0.5101215268   -0.5116372585   -1.2041667820
 C    2.0244889008   -0.7356918211   -1.3522058190
 O    2.2770983048   -2.1152850013   -1.0640533888
 C    1.0526104859   -2.7752531773   -0.7686014288
 C   -0.0219419295   -1.9281909056   -1.4735525628
 O   -1.3384232037   -2.0804260921   -1.0242491535
 C   -1.9485352281   -3.2797861287   -1.4477735050
 H    1.3296660188    1.5607262000    0.3222061620
 H   -0.3246620854    1.8338553580   -0.2851251946
 H   -0.0598780585    1.3730778737    1.4185354223
 H    0.1223994658    0.2248849928   -1.9218587636
 H    2.3691588773   -0.5147936262   -2.3715159612
 H    2.5869963768   -0.1023907909   -0.6559863847
 H    1.1260450267   -3.8017158144   -1.1391957440
 H    0.8480701589   -2.7945112682    0.3116132386
 H    0.0404267766   -2.1120784838   -2.5598994140
 H   -1.9381405929   -3.3758259496   -2.5452597361
 H   -1.4651478717   -4.1702420303   -1.0199033274
 H   -2.9859478989   -3.2491432524   -1.1065929427