22

 C   -0.3770879030    1.5538296896    0.1120172223
 C   -0.0684899686    0.0699807931    0.0983099052
 C   -1.1379656542   -0.7826488927   -0.5584500232
 N    1.3412779370   -0.2973340695   -0.1746797982
 C    0.7643790623   -0.5776285593    1.1558856557
 C    1.4481561728    0.1387865869    2.2918604353
 O    2.1875933891    1.2579697001    1.8954847671
 C    0.7929561067    0.2369087140    3.6345211007
 C    1.9910534761   -0.6764764004    3.4451420657
 H    0.4113857025    2.1174522110    0.6093538313
 H   -0.4906722118    1.9270621275   -0.9123183450
 H   -1.3192416371    1.7383120059    0.6400174839
 H   -1.2727540784   -0.4935716412   -1.6075127658
 H   -0.8800330121   -1.8467284105   -0.5293700989
 H   -2.1034242657   -0.6571245132   -0.0564988810
 H    1.4040841033   -1.1401011633   -0.7391441107
 H    0.5104762046   -1.6118645562    1.3834060698
 H    2.5029545282    1.0405925496    1.0037167339
 H    0.9499531038    1.1607403937    4.1797056732
 H   -0.1859557713   -0.2108090115    3.7712088007
 H    1.8315174581   -1.7501913490    3.4583977973
 H    2.9364650175   -0.3468702645    3.8600121907