17

 N    0.1104195983    1.3571329621    0.1651914613
 C    0.0102195667    0.0002563621    0.0565185217
 C   -1.1005883187   -0.7958412734    0.0066754868
 C   -0.7270294036   -2.2676342048    0.0442344277
 C    0.7948108051   -2.2501353416    0.0069710416
 N    1.3563028574   -1.6335804566   -1.2101838764
 C    1.2485078986   -0.8323209890    0.0437094607
 C   -2.4644683120   -0.3474487844   -0.0974529951
 O   -3.4393029472   -1.0772506810   -0.1455979741
 H    0.9452482108    1.7888395611   -0.1986441555
 H   -0.7252005616    1.9087257145    0.0477297088
 H   -1.0928621004   -2.7535492388    0.9569365806
 H   -1.1502274640   -2.8188742828   -0.8016729360
 H    1.3634066397   -3.0309106524    0.5002561319
 H    2.3246526937   -1.9366997985   -1.3052706326
 H    2.1497322700   -0.4921373875    0.5435344004
 H   -2.6018490829    0.7619051911   -0.1358783118