13

 N   -0.0153639284    1.3869268676    0.1375794670
 C    0.0050558437    0.0230687523    0.0459080984
 C   -1.1716639148   -0.7522071801    0.0279633001
 N   -1.1645559064   -2.0735068674   -0.0097404785
 C    0.0344586914   -2.6742238171   -0.0314449840
 N    1.2113349776   -2.0663349250   -0.0278659353
 C    1.1975303356   -0.7284382857    0.0075491957
 C    2.4502909514   -0.0276126609   -0.0016434558
 N    3.4065333448    0.6253734443   -0.0144851939
 H    0.8343668354    1.8900532980   -0.0681613178
 H   -0.8677910662    1.8654790853   -0.1039681910
 H   -2.1424182553   -0.2581515003    0.0462642224
 H    0.0397453411   -3.7590849510   -0.0582471069