15

 C   -0.2077291154    1.1641304873    0.3690522065
 O    0.2040040715   -0.1801543688    0.2135705671
 C    0.5556243220   -0.5284780946   -1.1118518971
 C    1.3107610964   -1.8608408126   -1.0192559741
 O    0.5220676706   -2.8521229826   -0.3946387659
 C   -0.6873834763   -0.6948832080   -1.9879184272
 O   -0.6572640119   -0.6834322886   -3.1897850245
 H    0.5983301755    1.8618562769    0.0989002815
 H   -1.0897475643    1.4013789123   -0.2433352622
 H   -0.4629822745    1.3038745263    1.4216357603
 H    1.2081486975    0.2287295227   -1.5735395433
 H    1.5443078485   -2.2140102958   -2.0274970980
 H    2.2545483491   -1.6876023035   -0.4807170308
 H    0.2534261104   -2.4867826596    0.4564771903
 H   -1.6286363988   -0.8556738512   -1.4161087828