21

 C   -0.3023972473    1.5595188356    0.0049033958
 C    0.0819201099    0.0819206336   -0.0281877050
 O   -1.1021397714   -0.7265740248   -0.1235713127
 C    1.0624260349   -0.2997052427   -1.1627820561
 C    1.5956262437   -1.6822995885   -0.7448018401
 C    1.7393743826   -1.5675083257    0.7705701926
 O    2.8934013616   -0.7765000705    1.1579164907
 C    2.0578577163    0.2566501412    1.7159003007
 C    0.7720967903   -0.4468826426    1.2429596187
 H    0.5699926414    2.2076052274    0.1285554660
 H   -0.7927554776    1.8477811283   -0.9326673707
 H   -1.0018096617    1.7526537742    0.8236377664
 H   -1.5329097911   -0.5159298546   -0.9592675186
 H    0.5689900670   -0.2970669991   -2.1406068609
 H    1.8814444517    0.4261723483   -1.2096184483
 H    0.8596275190   -2.4582638205   -0.9777758616
 H    2.5432905095   -1.9488916673   -1.2204354789
 H    1.7238653212   -2.5276318680    1.2963967934
 H    2.1626334176    0.3202960486    2.8067218647
 H    2.2794110805    1.2415297363    1.2861087161
 H    0.0371490420   -0.6800588092    2.0126946379