18

 C    0.1857327381    1.4547306490    0.0222494235
 C    0.1651392753   -0.0558725578    0.0327939914
 C    1.4303983594   -0.8538046671    0.0925509591
 C    0.5145778719   -0.8464769751    1.3046684857
 N    0.9543330627   -0.1019864674    2.4552225709
 C    2.1574395850   -0.2795354392    3.0835593572
 O    3.0677816708   -0.9732926796    2.6948871012
 C   -0.2670117297   -2.0207057838    1.5987009896
 C   -0.9404840932   -2.9847937748    1.8514450371
 H    0.9910273101    1.8459392238    0.6488981610
 H    0.3438052009    1.8243234361   -0.9964015106
 H   -0.7611204424    1.8719643659    0.3828601966
 H   -0.6470776877   -0.5050063960   -0.5307677014
 H    1.4992256485   -1.7847429222   -0.4562974917
 H    2.3687452291   -0.3273589127    0.2143505854
 H    0.2510338976    0.4156643255    2.9616630806
 H    2.2123929351    0.3322361009    4.0075774529
 H   -1.5190754716   -3.8459567555    2.0773589516