19

 O   -0.0436033010    1.4071971400    0.0877468810
 C   -0.0239112393    0.0057790263   -0.1360463191
 C   -1.3842610522   -0.5969254235    0.0023358573
 C   -2.0832311236   -1.0512733681    1.2445227650
 C   -1.9303892244   -2.0062205209    0.0696074693
 C   -2.8492877441   -1.5524554264   -1.0353251103
 C   -3.1634021467   -2.2179721097   -2.3307268806
 C   -4.2737227116   -1.8629571708   -1.3445249002
 O   -2.3527764630   -0.2005686702   -0.9929368047
 H   -0.6756269090    1.7801558019   -0.5370333111
 H    0.3802522490   -0.2322772126   -1.1319974530
 H    0.6489084766   -0.4231594953    0.6132802903
 H   -1.4369133413   -1.2669254903    2.0898408298
 H   -3.0577153889   -0.6433072607    1.4957285431
 H   -1.4220291770   -2.9594610122    0.1265118281
 H   -3.0816569377   -1.6153004490   -3.2286848238
 H   -2.8938234082   -3.2619473938   -2.4553345365
 H   -4.7627943651   -2.6627321536   -0.7985688690
 H   -4.9154882128   -1.0277922611   -1.6030337857