19

 C    0.0415142978    1.5629672712   -0.0791669851
 C   -0.0393772536    0.0366118252    0.0020398077
 C   -1.4828527303   -0.5138439517    0.0748320259
 C   -2.2431109693   -0.0147715492    1.3182139326
 O   -2.1015732384   -0.1186066766   -1.1401982171
 C   -3.4277030289   -0.5670900639   -1.3645526495
 C   -1.4025492264   -1.9993936355    0.1320335359
 N   -1.3475503768   -3.1532104360    0.1726212293
 H    1.0800431754    1.8714111293   -0.2295566494
 H   -0.5512261347    1.9383547927   -0.9163321999
 H   -0.3130672148    2.0441483211    0.8371219910
 H    0.4269279047   -0.4058204995   -0.8835734183
 H    0.5115587773   -0.3341513602    0.8728129264
 H   -2.4122450789    1.0609854876    1.2343665743
 H   -3.2079560133   -0.5142343053    1.4269381081
 H   -1.6601868291   -0.2139166422    2.2212626107
 H   -3.6784708995   -0.2726015064   -2.3856206635
 H   -3.5065853900   -1.6589030534   -1.2794752941
 H   -4.1466257312   -0.1018489471   -0.6780185649