17

 N    0.2774265798    1.3630941212   -0.0002219369
 C   -0.0211511141   -0.0397453907   -0.0365068817
 C    0.1096090004   -0.8981791700   -1.3194965900
 O   -1.2209523419   -1.4388078522   -1.1417901809
 C   -1.4584980597   -0.6441900123    0.0321244030
 C   -1.1144676455   -1.4043176425    1.3309951093
 C    0.3345375287   -0.7956029442    1.2910436501
 C    1.4649680716   -1.7059103270    1.2671243094
 N    2.3636879847   -2.4329071389    1.2223364972
 H    1.2785620120    1.5136159229    0.0979641353
 H   -0.0046010290    1.8147403292   -0.8658887885
 H    0.1777322821   -0.2935106954   -2.2344889471
 H    0.8838098980   -1.6737243118   -1.3389728550
 H   -2.3858958003   -0.0691265906   -0.0168594799
 H   -1.6729178450   -1.0908602788    2.2146057814
 H   -1.1700203790   -2.4877888682    1.2234285954
 H    0.4772494373   -0.0648123408    2.0904295190