17

 C    0.1359535171    1.5475348283   -0.0184683069
 C   -0.0269909318    0.0510925257   -0.0260941939
 C   -0.0036159661   -0.7180607623    1.2691410931
 C    1.3861234636   -0.6965212676    1.9472049914
 C    1.3978845634   -1.5390797542    3.2029452414
 O    1.6892594176   -1.1386749903    4.2997995157
 N   -0.1846892514   -0.6466406640   -1.0859660347
 O   -0.1715707372    0.1534923721   -2.2394994797
 H    1.0987220334    1.8352358311   -0.4552479171
 H   -0.6361551016    2.0129674289   -0.6374985450
 H    0.0796797181    1.9508792207    0.9946511361
 H   -0.7424276750   -0.2893590604    1.9587963116
 H   -0.2999892943   -1.7506700391    1.0627275256
 H    2.1210571759   -1.1212483421    1.2495888314
 H    1.7006801923    0.3180221622    2.2062183944
 H    1.0987341630   -2.6018324502    3.0417945197
 H   -0.3300035470   -0.4927432191   -2.9355832132