17

 O   -0.5968566205    0.8042676178    0.7186274714
 C    0.1270738012    1.0352145036   -0.2179108930
 C    1.3508576396    1.8781581308   -0.1466118720
 C    1.8479254740    2.3963222914    1.1995850016
 N    2.3267849781    3.7904343799    1.0342709594
 C    3.5506916226    3.9653269748    0.2486445911
 C    2.2249417587    4.1258754499   -0.4034385457
 C    1.6146469331    2.9693682033   -1.1641588228
 N    2.2899737212    1.6886046918   -1.2705933097
 H   -0.0694916866    0.6341707420   -1.2363262111
 H    1.0052502190    2.3960720526    1.8960513861
 H    2.6338557616    1.7673132618    1.6328875609
 H    4.1334728473    4.8458963537    0.5070090166
 H    4.1626101075    3.0973784643    0.0104684239
 H    1.8519492035    5.1147401358   -0.6546318863
 H    0.9244940519    3.1997666873   -1.9700234948
 H    3.2553633379    1.7251572091   -0.9579055456