17

 O   -0.1069939703    1.4479934794    0.0453990409
 C    0.0414088039    0.0367186285    0.0065869394
 C    0.7810596047   -0.5089533552    1.2398735804
 N    0.8281153815   -1.9686729029    1.2914234342
 C   -0.5076517042   -2.5750651736    1.2617227235
 C   -1.3743302725   -2.0715796856    0.1052618428
 O   -2.0036086446   -2.8137928401   -0.6115175728
 C   -1.3699731171   -0.5578954439   -0.0716606014
 H    0.7688107613    1.8455457171   -0.0004091878
 H    0.6014152296   -0.2671410606   -0.8951531250
 H    1.8074813264   -0.1235456667    1.2659523688
 H    0.2742990515   -0.1405021405    2.1418929825
 H    1.3734272638   -2.3221155371    0.5104871930
 H   -0.4255173431   -3.6622061628    1.1952197018
 H   -1.0152928915   -2.3334496856    2.2072573754
 H   -1.9530581104   -0.1206644252    0.7519296020
 H   -1.8657241090   -0.2977898050   -1.0091151777