17

 C   -0.0342748439    1.5618632068   -0.0169965131
 C   -0.0438939585    0.0334406788   -0.0574193218
 C    0.6878336650   -0.5000252463   -1.2831342498
 O    1.1718795842    0.2421161176   -2.1061540303
 N    0.8029317899   -1.9074310377   -1.4484539106
 C    1.5858162049   -2.3394732664   -2.5605600269
 N    1.4447648199   -3.4828634476   -3.0752755271
 C    0.2506613849   -2.8217534857   -0.5234636786
 O    0.4588365807   -4.0005062691   -0.4990127343
 H    0.9872627406    1.9466267977    0.0168402307
 H   -0.5136366125    1.9808096719   -0.9041263997
 H   -0.5693672183    1.9134808860    0.8689854398
 H    0.4166012490   -0.3788756534    0.8479682903
 H   -1.0755672743   -0.3394207821   -0.0672421121
 H    2.2661744866   -1.5528072024   -2.8842534095
 H    2.1081376622   -3.5932380906   -3.8426311480
 H   -0.4058275307   -2.3202844474    0.2025680910