19

 C    0.0347247420    1.5248399437   -0.0429071139
 C    0.0142100869    0.0254374604    0.0277489292
 C   -1.2547284012   -0.8243284676   -0.1533734792
 C   -0.7871169625   -1.7377997110    1.0497942529
 C   -0.7663034993   -3.2246424868    0.8268032113
 O    0.1884461940   -3.8717614973    0.4585030885
 C    0.5196689376   -0.9464232690    1.1322406360
 C    1.2109389476   -0.8461651557   -0.1984164861
 O    1.2238840511   -1.8549193220   -1.1564713600
 H    1.0121204004    1.9198410523    0.2523481441
 H   -0.1671368589    1.8716258615   -1.0637739376
 H   -0.7196786076    1.9727436699    0.6144067820
 H   -2.1811074857   -0.2931884239    0.0699054610
 H   -1.3358511755   -1.3198126783   -1.1235657099
 H   -1.4351545946   -1.5402120628    1.9099383269
 H   -1.7370063621   -3.7358373460    1.0135970847
 H    1.0358477683   -0.7319884153    2.0617069069
 H    2.1520884931   -0.2969613047   -0.1322653766
 H    1.2257322663   -2.7024078774   -0.6859377304