15

 C    0.0691967848    1.5412780825    0.0489748070
 C    0.0254174497    0.0503502214   -0.0008461280
 C   -0.1244174115   -0.7838823021   -1.0757466031
 N   -0.3528838292   -0.5972083616   -2.4254663025
 O   -0.1122812946   -2.0660239330   -0.6420493254
 C    0.0510275879   -1.9646877191    0.7251695915
 N    0.1312130553   -0.7351894352    1.1347191486
 C    0.1165805948   -3.1591092112    1.4634808044
 C    0.1705565787   -4.1859724779    2.0898257808
 H    0.8866286180    1.8804419632    0.6922943701
 H    0.2236753745    1.9712922677   -0.9462239802
 H   -0.8594845411    1.9642689728    0.4495886601
 H   -0.0971207399    0.3258720263   -2.7472044854
 H    0.0610183728   -1.3153366538   -3.0063810650
 H    0.2192504798   -5.0871772099    2.6493199872