17

 C   -0.0528975189    1.4216561932    0.0107685144
 O    0.0198187812    0.0141313609    0.0028581128
 C   -1.2463359741   -0.5967187745    0.0106150922
 C   -1.0819039157   -2.0768479661    0.0017512479
 C    0.0216172293   -2.8234759706   -0.0104737428
 C   -0.3705781461   -4.2705713369   -0.0142945446
 O   -1.7980000813   -4.2730929947   -0.0032529490
 C   -2.2591953900   -2.9819656843    0.0057383040
 O   -3.4268332009   -2.7052798425    0.0172963623
 H    0.9718849423    1.7994736470    0.0038766005
 H   -0.5818625246    1.8069260930   -0.8746288379
 H   -0.5664700939    1.7977011661    0.9091014794
 H   -1.8322403548   -0.2972889323    0.8975564297
 H   -1.8473909164   -0.2884746149   -0.8630531043
 H    1.0444672515   -2.4743481209   -0.0165617557
 H   -0.0195610756   -4.8049516805   -0.9064065714
 H   -0.0058185821   -4.8133042220    0.8672037625