14

 C   -0.1082587580    1.5493486588    0.1108602629
 C   -0.0223014140    0.0210678803    0.0109072970
 C    0.8442431423   -0.5542633548   -1.1494951323
 O    1.8137860153   -1.0598288159   -0.1854028185
 C    1.0752526746   -0.6059922048    0.8822918649
 N    1.2616262131   -0.6581556686    2.1150018185
 C   -1.3332723307   -0.6030621216    0.1477891532
 N   -2.3781159739   -1.0891660444    0.2322228962
 H    0.8853366818    1.9873850709   -0.0150062399
 H   -0.7741899326    1.9497537562   -0.6579501175
 H   -0.4910389481    1.8368357818    1.0923970409
 H    0.3961127000   -1.3660308607   -1.7241588981
 H    1.2917527922    0.1945492345   -1.8064473807
 H    2.1285185180   -1.1396559117    2.3572081632