16

 N   -0.0689418873    1.2252802078   -0.0321379071
 C   -0.0620708905   -0.0327961488   -0.0082363024
 O    1.0555617398   -0.8521889752   -0.0316958424
 C    0.4588755085   -2.1538163309    0.0142040308
 C   -0.7624467312   -2.1234585309   -0.9763084918
 C   -1.5568573978   -3.3500076593   -0.5608312796
 C   -1.5100021416   -3.3244047875    0.7743889504
 C   -0.6901288109   -2.0838831824    1.0859112495
 C   -1.2065893108   -1.0012896392    0.0504869523
 H    0.8861770761    1.5882319505   -0.0725917575
 H    1.2189159613   -2.9337584338    0.0025214190
 H   -0.6197076604   -1.8906885892   -2.0309453143
 H   -2.0057532918   -4.0714365653   -1.2278603366
 H   -1.9100894567   -4.0191577937    1.4983664263
 H   -0.4742036858   -1.8110610641    2.1182676393
 H   -2.2163685309   -0.5994258380    0.0781835443