13

 O    0.1712946203    1.3370696114    0.3063003309
 C    0.0714302823   -0.0338061566   -0.0041851229
 C   -1.3619586210   -0.5296681701   -0.0408367094
 C   -1.6832437942   -1.9566906743    0.1811913772
 O   -1.9591566670   -0.9967776472    1.1835824611
 C   -2.3277777551    0.2520463833   -0.8735860504
 O   -2.0037846313    1.1655875434   -1.5945890266
 H   -0.2515413689    1.8117393555   -0.4201469303
 H    0.5432851736   -0.2710785193   -0.9710288511
 H    0.6082196912   -0.5823990353    0.7755541150
 H   -2.5510304566   -2.4060331900   -0.3007222184
 H   -0.8566275983   -2.6364969354    0.3849614768
 H   -3.3860832852   -0.0669459153   -0.7627327620