17

 O   -0.2363604216    0.5426460245    1.1347150777
 C   -0.1398003657    1.3204853184    0.2205953932
 C   -1.2930367680    1.7450130843   -0.6823408645
 N   -1.4657344437    3.2104251782   -0.6084530449
 C   -0.2222899960    3.9314158905   -0.3816271823
 C    0.3456437643    3.9150792474    1.0933866806
 C    1.5543252910    3.1129138622    0.5908892610
 C    1.0679416989    3.2070661649   -0.8299401535
 N    1.0869578055    1.9329476776   -0.1277152540
 H   -1.0435365606    1.4017318365   -1.7001572564
 H   -2.2022982237    1.2347043192   -0.3581371298
 H   -1.9224282361    3.5437297186   -1.4486620964
 H   -0.3260827086    4.9484536151   -0.7617731583
 H    0.6145516584    4.9195963929    1.4281884360
 H   -0.2758175428    3.4353521830    1.8533777473
 H    2.5649422881    3.1185251075    0.9785466850
 H    1.6182773507    3.2956137194   -1.7600211108