15

 O   -0.2459588792   -0.0122920446   -0.5885455438
 C   -0.0717106153    1.0701132793   -0.1515476238
 O   -1.0755598051    1.9957737444    0.2574442536
 C   -0.0249106220    2.7511349271    0.9628092979
 C    0.8704880787    4.0653730991    0.9957123399
 C    1.9829723527    2.8938935277    1.1507862098
 C    1.5590924695    2.2685350080    2.4800135216
 C    0.2333396977    2.1957769301    2.3659040054
 C    1.0369130684    2.1423109346    0.1068191874
 H    0.9358704559    4.6164538719    0.0557051716
 H    0.7504364361    4.7295161063    1.8532466360
 H    3.0330079029    3.0923341269    0.9460595529
 H    2.2142884160    1.9954514493    3.2943243506
 H   -0.5318636576    1.8342229905    3.0365830033
 H    1.0966468914    2.6699807094   -0.8521143225