15

 N   -0.0618179308    1.5278276120    0.0324599898
 C   -0.0129942326    0.0623556163    0.0159362686
 C    0.6518882069   -0.5140037134   -1.1672282135
 C    1.1824233073   -0.9466527137   -2.1558123145
 C    0.6482426299   -0.4614359550    1.2721378249
 N    1.3833658946    0.3275340088    2.0153923193
 O    1.8565497798   -0.4626084242    3.0560489338
 C    1.3838409654   -1.7081052864    2.9008822889
 C    0.6104561486   -1.7882694988    1.7911717878
 H    0.8625702999    1.8881867640    0.2515198904
 H   -0.2993278113    1.8586983795   -0.8973876511
 H   -1.0498646274   -0.3028418483    0.0216192910
 H    1.6561719790   -1.3298952030   -3.0257743276
 H    1.6798500001   -2.4200120681    3.6556565905
 H    0.0954403805   -2.6466350996    1.3939741616