11

 N    0.0436635560    1.3332487872    0.1444634324
 C   -0.0529845761   -0.0226133768    0.0456992211
 N   -1.1240064537   -0.7526277055    0.0274274359
 C   -0.6230610937   -2.0576648399   -0.0006856935
 C    0.7328626507   -2.0301819705   -0.0060087363
 O    1.1164786189   -0.7152807172    0.0247855608
 C   -1.4579440688   -3.2050874828   -0.0257551192
 N   -2.1221820301   -4.1524427606   -0.0477666612
 H    0.8818211935    1.7447951161   -0.2365375214
 H   -0.8084322356    1.8226017412   -0.0824376077
 H    1.5116018290   -2.7708372810   -0.0314603308