22

 O   -0.0252341679    1.4808850748    0.3404710680
 C    0.0078676601    0.0627559214    0.4214587206
 C   -1.3441510188   -0.4953852230    0.0091957573
 C   -2.5610698339    0.2848635496    0.3413170629
 N   -2.0760499770    0.2061592636   -1.0549779500
 C   -1.3748978182   -2.0067499181   -0.0514123832
 C   -2.6667753475   -2.7255924669   -0.5297889444
 C   -1.7771852002   -3.7316316506   -1.3082616748
 C   -0.6084809754   -2.7164117462   -1.2098387797
 H    0.8637314247    1.8154132888    0.4844966189
 H    0.7827810242   -0.3480909852   -0.2451540118
 H    0.2423020589   -0.2719367808    1.4447617623
 H   -3.4985509469   -0.2318499867    0.5273253482
 H   -2.4344074951    1.2246256630    0.8689584951
 H   -1.5801738146    1.0704514187   -1.2637096242
 H   -1.0523513001   -2.4104799312    0.9167799535
 H   -3.3398351321   -3.1224038846    0.2342407520
 H   -3.2279277123   -2.0796196379   -1.2094086118
 H   -1.5786428161   -4.6363643730   -0.7258818027
 H   -2.1061340912   -4.0280967216   -2.3068813529
 H   -0.5657676704   -2.0688878130   -2.0907036637
 H    0.3920671596   -3.1057665311   -1.0040215897