13

 O   -0.1020781023   -0.0904127871    0.0033298039
 C   -0.0289775903    1.1177952786    0.0075192970
 C    1.2047025215    1.8566432340   -0.0000699525
 C    2.2292356745    2.5091811250   -0.0061524211
 C    3.3746589981    3.2323881109   -0.0130045647
 C    4.3987932528    3.8771979068   -0.0191432455
 C    5.6404213708    4.6451133458   -0.0268226658
 C    5.4339047693    6.0939364465   -0.0169886271
 C    5.2751035118    7.2831885831   -0.0090562016
 H   -0.9359981419    1.7551628478    0.0179155391
 H    6.2477819648    4.3508541232    0.8409429994
 H    6.2310519578    4.3603497643   -0.9091837471
 H    5.1313977631    8.3355713411   -0.0021997438