16

 C   -0.0321193644    1.5443708024    0.0854680579
 C   -0.1072335595    0.0587315809   -0.0532792800
 C    0.4033970353   -0.7320058351   -1.2897796807
 C   -0.4844522966   -1.8685233548   -0.7788655424
 C   -0.8587406765   -3.0770266287   -1.4239514168
 N   -1.1622871182   -4.0661469616   -1.9449491797
 C   -0.4294446190   -1.7157165380    0.7793992801
 O    0.4915922840   -0.6857228446    1.0637591853
 C   -1.3764787508   -0.8887684039    0.0035567401
 H    1.0152279845    1.8631708101    0.1120850940
 H   -0.5202170426    2.0333114816   -0.7625427312
 H   -0.5157614793    1.8730282228    1.0091347953
 H    0.0176311292   -0.3201985503   -2.2248992888
 H    1.4823180256   -0.8982525943   -1.3477921439
 H   -0.5517424498   -2.5457908481    1.4615408140
 H   -2.4479488117   -0.7468402782    0.0045463068