19

 C    0.3802461699    1.1839537514    0.2170806292
 O   -0.3309041254    0.1577685508   -0.4656268332
 C    0.4632398472   -0.5342060909   -1.3598300424
 C    1.4132099622   -1.5728559728   -0.8562222767
 O    1.5540801747   -1.8111280384    0.4943273094
 C    0.1213144752   -2.0154991059   -1.5870418969
 C   -0.9422534221   -2.6675991154   -0.7832918797
 C   -1.9437334087   -3.5103979859   -1.5436486406
 O   -1.0088423956   -2.5538995972    0.4315517699
 H    1.2208985434    0.7709206420    0.7847662840
 H    0.7541959859    1.9434512121   -0.4853110367
 H   -0.3302831316    1.6533329323    0.9005659874
 H    0.7311915465    0.0171203678   -2.2644236944
 H    2.3432994811   -1.7260154671   -1.3965353593
 H    0.6561843051   -1.9819226663    0.8431414053
 H    0.2083296881   -2.3590860328   -2.6119794194
 H   -1.4294508919   -4.3127689391   -2.0849858153
 H   -2.6694380143   -3.9394404247   -0.8521160606
 H   -2.4590272996   -2.8989412299   -2.2928602099