16

 O   -0.0847923344    1.4110871215    0.0495495520
 C    0.0218206849    0.0012908468    0.0042809631
 C    0.7473002459   -0.5517588803    1.2397656688
 O    0.6505150739   -1.9744808302    1.2772575065
 C   -0.6922313980   -2.3767732635    1.2660031907
 O   -1.3720110412   -1.9788836289    0.1080922493
 C   -1.4024106941   -0.5576643437   -0.0050674966
 C   -0.7257276130   -3.8492920228    1.3306275796
 N   -0.7743997462   -4.9979013521    1.4213837352
 H    0.7706154878    1.7930589044   -0.1692351482
 H    0.5395234162   -0.3452741618   -0.9009099312
 H    1.8146754700   -0.3164795482    1.2287493896
 H    0.2997545320   -0.1073935345    2.1430397730
 H   -1.2072706832   -1.9665595349    2.1569772152
 H   -1.9695765613   -0.1132381623    0.8281615219
 H   -1.9173538993   -0.3272464096   -0.9387851491