15

 O   -0.9354689037    1.7639250704   -0.2039552399
 C    0.1144846891    1.2207524992   -0.3964819776
 C    1.4832752173    1.9032560915   -0.2849557637
 O    2.5057254962    1.2832942669   -0.4428754475
 O    1.3858432650    3.1998222191   -0.0005757984
 C    2.6393422064    3.9049090825    0.1280290466
 C    2.3235230700    5.3440112030    0.4065557647
 C    3.2690722827    6.4002623697    0.0257218995
 O    2.0777042971    6.1754514732   -0.7255060218
 H    0.2209408474    0.1521607240   -0.6706908404
 H    3.2141741760    3.4556775702    0.9452376748
 H    3.2116874616    3.8010730877   -0.7978199169
 H    1.6548289978    5.5171676568    1.2496076689
 H    3.2989605435    7.3227434872    0.6026970361
 H    4.1978440136    6.1384663286   -0.4799838645