17

 N   -0.1685648690    1.2558612180    0.4003594411
 C   -0.1242226567   -0.0827058229    0.1010282517
 C   -1.1081805194   -0.9846873124   -0.2245751055
 C   -0.3522714341   -2.1586769175   -0.4887143240
 N    0.9383521696   -2.0057741858   -0.3332547157
 O    1.0847710353   -0.6490337483    0.0505408561
 C   -2.5670617014   -0.7500237716   -0.3045363522
 C   -3.5320829688   -1.6894825451    0.3784010125
 C   -3.3402690518   -0.2996110508    0.9241467965
 H    0.6116240386    1.5910368205    0.9476208596
 H   -1.0637869322    1.5687261130    0.7469833766
 H   -0.7253237479   -3.1299386814   -0.7864737759
 H   -2.9254978125   -0.3306711603   -1.2427244221
 H   -4.4628995846   -1.9190252655   -0.1274885668
 H   -3.1137000390   -2.5126984950    0.9464022394
 H   -2.7944302931   -0.2031482781    1.8566081376
 H   -4.1396670830    0.4208589033    0.7910276310