21

 C   -0.1078939733    1.6131944793    0.1541600089
 C    0.0386089313    0.0879439555    0.0923748979
 C    0.7837754701   -0.4567945977    1.3169542511
 C   -1.3460069750   -0.5709723162   -0.0187980854
 O   -2.0976368104   -0.2445342409    1.1387726807
 O    0.6616439033   -0.3319625639   -1.1330867712
 C    1.9755660862    0.0920335377   -1.3848984463
 C    2.3909234578   -0.4841876289   -2.7288483038
 O    3.4683876600   -0.3011640565   -3.2292585282
 H    0.8503983966    2.1118710654    0.3259956619
 H   -0.5350239519    1.9907245486   -0.7802152246
 H   -0.7796775327    1.8797946762    0.9730076177
 H    0.1670110109   -0.3181156843    2.2076021867
 H    0.9801992907   -1.5267286517    1.1957476556
 H    1.7359180259    0.0561076006    1.4809128188
 H   -1.8304214612   -0.2054252739   -0.9357884819
 H   -1.2052092749   -1.6567854227   -0.1205373841
 H   -2.9617730876   -0.6579310936    1.0639525030
 H    2.0711795254    1.1874097007   -1.4390447659
 H    2.6932275979   -0.2581015585   -0.6270811503
 H    1.5988208311   -1.0974325753   -3.2128191706