25

 C   -0.0894945292    1.3808303358    0.0658835499
 C   -0.2982021912   -0.0727387205   -0.3219771542
 O   -1.3019100522   -0.6215922307    0.5198283347
 C   -1.5454144923   -1.9706934907    0.2750440424
 C   -2.8389045224   -2.5230444873    0.7878551462
 C   -2.6128197545   -2.4065707415   -0.7136647719
 C   -3.3860647509   -1.3290028103   -1.4496913612
 C   -2.3563347192   -3.6924314330   -1.4856944312
 C   -3.6237146166   -4.4917791754   -1.8148520149
 H    0.6887951770    1.8336065285   -0.5557320279
 H   -1.0136132326    1.9510886312   -0.0657800072
 H    0.2130269337    1.4581502348    1.1140617893
 H   -0.5988686195   -0.1572433567   -1.3773490147
 H    0.6380743604   -0.6430444889   -0.2049720658
 H   -0.6542667877   -2.5984095042    0.3497953728
 H   -2.8371111497   -3.5051824451    1.2495394387
 H   -3.5141445691   -1.8088181608    1.2471201203
 H   -3.3786314912   -0.3936598527   -0.8851620369
 H   -2.9463617958   -1.1325919055   -2.4352897090
 H   -4.4303202697   -1.6196570768   -1.6071171069
 H   -1.8251737641   -3.4507347641   -2.4168118933
 H   -1.6764380821   -4.3282392336   -0.9041210359
 H   -3.3750907157   -5.4255115846   -2.3290088513
 H   -4.1752855738   -4.7462750763   -0.9035198703
 H   -4.2996662917   -3.9275165415   -2.4649056317