20

 C   -0.0957278264    1.5138860101    0.1275647538
 C   -0.0833615989   -0.0099356168    0.2070983052
 C    0.3208197870   -0.5284328982    1.5870668274
 C    0.3717203085   -2.0367266381    1.6637183669
 C    1.6128316382   -2.7848275724    1.4188832114
 O    1.1237926370   -2.5884405654    2.7459726391
 O   -1.4007987370   -0.5268843563   -0.0585135447
 C   -1.7418560362   -0.7209839800   -1.3460897886
 N   -2.9210537925   -1.0557748375   -1.6469966152
 H    0.9004113612    1.9175568300    0.3332498857
 H   -0.4016118554    1.8501428357   -0.8676099447
 H   -0.7979644729    1.9263897722    0.8579673249
 H    0.6073231103   -0.4162291360   -0.5467604422
 H    1.3042004877   -0.1234467924    1.8481917817
 H   -0.3940053510   -0.1495031057    2.3274600006
 H   -0.5731330768   -2.5438197245    1.4735584876
 H    1.5679330678   -3.8080625965    1.0486817468
 H    2.5281462805   -2.2451076640    1.1752589705
 H   -0.9070011333   -0.5754040508   -2.0470656331
 H   -2.9978582078   -1.1868685835   -2.6534486828