18

 C   -0.0308203377    1.4744759593    0.0248659519
 C    0.0218668591   -0.0408891419   -0.0045370076
 O    0.6749193566   -0.4706710125    1.1998446602
 C    0.8149818233   -1.7947277093    1.3519397738
 C    1.4066583558   -2.4387899523    2.4197713034
 N    1.2949124639   -3.7527524034    2.0939259962
 C    1.7400076056   -4.9123140014    2.8379210038
 N    0.6804381475   -3.9119651643    0.9154992046
 N    0.3857105283   -2.7170818763    0.4578650869
 H    0.9765844320    1.8980157634    0.0698762275
 H   -0.5228821081    1.8470760581   -0.8783680788
 H   -0.5915566030    1.8274814707    0.8950607727
 H   -0.9807152116   -0.4813240871   -0.0508975029
 H    0.5799955597   -0.4111461071   -0.8721220538
 H    1.8679579761   -2.0876424636    3.3254353127
 H    1.2474482810   -4.9570985607    3.8133429822
 H    1.4714085761   -5.7912659331    2.2521818862
 H    2.8237083155   -4.8851539485    2.9825852410