16

 O    0.1120289653   -0.0538157664    0.2336909064
 C    0.0022032465    1.1068466804   -0.0584314043
 O   -1.1702340004    1.5838944736   -0.5294905844
 C   -1.3540152731    2.9991931077   -0.7450469938
 C   -0.1253676028    3.7227505765   -1.2745836920
 C    0.9522697274    4.1724510192   -0.3229030172
 N    0.8566723763    3.3032896702    0.8687496311
 C    1.1430705579    2.1079309146   -0.0127938729
 C    1.2073095367    3.0103954241   -1.2562764860
 H   -2.1732748204    3.0575449274   -1.4644121348
 H   -1.6811981923    3.4411522740    0.2005862916
 H   -0.2844081274    4.3653535232   -2.1339278511
 H    1.3475828714    5.1796963397   -0.2849747162
 H    1.6428009074    3.4474943675    1.4935574250
 H    2.0632375903    1.5846958418    0.2423041554
 H    1.8374842572    2.8749798165   -2.1248683571