15

 C    0.0621411803    1.5306866316    0.0827859194
 C   -0.0588071407    0.0152560635   -0.0726992988
 N    0.6782095493   -0.4822821434   -1.2438171925
 N   -0.0504568432   -0.7471226827   -2.3171504208
 N    0.5267796745   -1.1754484944   -3.3807986810
 C    1.8924540462   -1.3409841236   -3.3237664919
 N    2.6802427537   -1.1121181874   -2.3219760837
 C    2.0966829879   -0.6290595599   -1.1641843124
 O    2.6773125108   -0.3422245496   -0.1462456171
 H    1.1054018295    1.8209202465    0.2216783752
 H   -0.3426479270    2.0453619894   -0.7932434461
 H   -0.5048291347    1.8504347852    0.9615349490
 H    0.3565056837   -0.4951927790    0.7983716010
 H   -1.0950314529   -0.2924155421   -0.2205630667
 H    2.3279627227   -1.7142071541   -4.2482440835