21

 C   -0.1603408133    1.5642577029   -0.0522419297
 C   -0.0171553157    0.0469925644    0.0123104388
 C   -1.2828697580   -0.6565172705   -0.4592818256
 O    1.1334919124   -0.3831139972   -0.7744356178
 C    1.8417662705   -0.8335488373    0.3961817973
 C    0.6286042651   -0.5561181709    1.3019710111
 C    0.8392756859    0.3194061927    2.5428828522
 C    1.6184673821   -0.3688347987    3.5669225518
 C    2.2654677296   -0.9621036963    4.3881297994
 H    0.7689267012    2.0680841970    0.2255526135
 H   -0.4059528402    1.8631620866   -1.0760711470
 H   -0.9610173874    1.9189656449    0.6057656889
 H   -1.5324234865   -0.3498641488   -1.4802384260
 H   -1.1459264825   -1.7413279057   -0.4525833247
 H   -2.1306230322   -0.4082895356    0.1892451682
 H    2.1635991152   -1.8770893671    0.3094816166
 H    2.7220895008   -0.2117891584    0.6110647975
 H    0.1201657064   -1.4753006724    1.6032051797
 H    1.3491358947    1.2504565811    2.2684346345
 H   -0.1332661722    0.6130236770    2.9592700596
 H    2.8364352540   -1.4741418877    5.1223553115