19

 C    0.0131701458    1.3412479758    0.1925751449
 O    0.0093025915   -0.0664686740    0.1531750700
 C   -1.2731562965   -0.6054507473   -0.0836184107
 C   -1.1553163350   -2.0995375133   -0.1147982160
 C   -0.1649011212   -2.7838889405   -1.0382502724
 O   -0.5614638649   -4.1510546175   -1.0893592180
 C   -1.9407232870   -4.2642102698   -0.7649016074
 C   -2.2634563352   -3.0415327252    0.0666217854
 O   -1.3205174311   -2.8169316347    1.1187537727
 H    1.0423944796    1.6591987606    0.3732927521
 H   -0.3336585867    1.7770786940   -0.7580910809
 H   -0.6266703929    1.7277733154    1.0011127724
 H   -1.9822550095   -0.3107546203    0.7056616264
 H   -1.6699761657   -0.2408364009   -1.0479151615
 H   -0.2024729495   -2.3111264965   -2.0333492703
 H    0.8634613765   -2.7422570364   -0.6705095621
 H   -2.5780971551   -4.2733763078   -1.6653223313
 H   -2.0831566421   -5.2076343016   -0.2278076257
 H   -3.2914306611   -2.7443690600    0.2591192724