19

 C    0.0292684677    1.5432021256   -0.0596221322
 C    0.0202416750    0.0228364022   -0.0136289835
 C    0.3685240771   -0.5963079763   -1.3730075387
 C    0.3675575009   -2.0976827275   -1.3586654008
 C    0.0792152329   -2.7326145374   -0.2251517923
 C   -0.2332579147   -1.9230375286    0.9927044079
 C    0.6126647564   -0.6459631433    1.2762150133
 O   -0.5105363668   -0.1057153360    2.0656244983
 C   -1.1158481168   -0.6490754463    0.8347884510
 H    1.0158589602    1.9152833697   -0.3597242323
 H   -0.6936319972    1.9122267808   -0.7965741606
 H   -0.2207730768    1.9609371497    0.9159770115
 H   -0.3383504342   -0.2230640217   -2.1292534269
 H    1.3501947462   -0.2200288333   -1.6980135778
 H    0.6029675177   -2.6278724019   -2.2767436715
 H    0.0636629924   -3.8158259073   -0.1566563787
 H   -0.4621429540   -2.4931449809    1.8929817862
 H    1.6153120689   -0.5679947041    1.7010753930
 H   -2.1996916248   -0.5748664235    0.7267944942