21

 C   -1.0559239204    1.0088829319    0.0624747173
 C    0.0242303181   -0.0811167491    0.0063986170
 C    0.7887277648   -0.0452146558   -1.3038268951
 N    1.7392546176    1.0670458370   -1.5138944183
 C    2.2461239799   -0.3094890153   -1.3404025528
 C    2.9998560594   -0.6335948651   -0.0636619490
 N    2.3503353480   -0.3309477240    1.2114961488
 C    1.9170824055    1.0425399224    1.4873530968
 C    0.9161907981   -0.0390688723    1.2449725528
 H   -0.5992915944    1.9994798685   -0.0165196208
 H   -1.7728774678    0.8959805894   -0.7584270798
 H   -1.6140110769    0.9629811720    1.0033834235
 H   -0.4814744332   -1.0579394629    0.0243030442
 H    0.2015834063   -0.3560358839   -2.1665969715
 H    1.7607042881    1.3282896919   -2.4955684256
 H    2.6424049187   -0.8081054413   -2.2240944190
 H    3.2015186743   -1.7137895833   -0.0724280862
 H    3.9752704958   -0.1321117790   -0.0691201891
 H    2.1069302028    1.3819589592    2.5036370592
 H    2.0439946817    1.7859754628    0.7087413198
 H    0.4219517237   -0.4581296232    2.1217903077