15

 O   -0.1254901804    0.2758719735    0.7787079965
 C    0.3272019553    0.7637899119   -0.2241534915
 C    1.4571467387    1.7405222237   -0.2314476918
 O    2.1885306775    1.8150613054   -1.4711892678
 C    1.3968598223    2.9202356914   -1.1171383634
 C    0.2460535542    3.4577649359   -1.9895626390
 C    0.7784814387    4.8744834645   -1.6796290202
 O    0.3983560098    5.9740920508   -1.9448418287
 C    1.9715633907    4.3249540835   -0.8669991676
 H   -0.0646870943    0.5278883347   -1.2381823722
 H    2.0519553634    1.7888329963    0.6791076993
 H    0.3312228129    3.1817130638   -3.0455939490
 H   -0.7768464980    3.2668574231   -1.6543081892
 H    2.0209887450    4.6668620719    0.1703340093
 H    2.9428917843    4.4925792197   -1.3436607947