19

 C    0.9335682428    0.8232869752    0.0602278048
 C   -0.3256754120   -0.0097319595   -0.0264995097
 O   -1.1892382421    0.0125147161    0.8202132263
 C   -0.4511897980   -0.9425130210   -1.2330202476
 C   -0.0680820001   -2.3759049637   -0.8406047249
 C   -0.0961058087   -3.3804319115   -2.0155534934
 O    1.2631893605   -3.4552303439   -2.4198148703
 C    1.9808894254   -3.3522692411   -1.2201423135
 O    1.3023569442   -2.4057293986   -0.4163926111
 H    1.8005567600    0.1552239201    0.0169569428
 H    1.0029349010    1.4954735770   -0.8031714047
 H    0.9432862369    1.4039117493    0.9833551414
 H   -1.4992232931   -0.9362165312   -1.5491114951
 H    0.1818705052   -0.6212150373   -2.0660784356
 H   -0.7090373504   -2.7036069014   -0.0140657908
 H   -0.4605122376   -4.3633538057   -1.6813649725
 H   -0.6928505325   -3.0468630769   -2.8665726770
 H    2.0227445804   -4.3268627362   -0.7003616773
 H    2.9918936982   -2.9952962096   -1.4362917718