23

 C    0.0131045772    1.4640815783    0.1140313995
 C    0.0457646040   -0.0647990742    0.0378954240
 C    0.7199188232   -0.5787710630   -1.2383806303
 C    0.7517345991   -2.1021861813   -1.3638607821
 C    1.3643105371   -2.5827257870   -2.6806718190
 C    1.3503721084   -4.1031413474   -2.8541942426
 O    1.5399218741   -2.6326979115   -0.2734198966
 C    0.9676077650   -3.4795761153    0.5984468961
 O    1.5581774076   -3.9610523341    1.5191355280
 H    1.0256244799    1.8818052258    0.0934029050
 H   -0.5389174689    1.8936662772   -0.7294238635
 H   -0.4681992263    1.8050219324    1.0355134210
 H    0.5748115314   -0.4629556830    0.9107650385
 H   -0.9793954069   -0.4561468876    0.0907367689
 H    0.1967996320   -0.1808388380   -2.1173952213
 H    1.7501639078   -0.2043133076   -1.2915625233
 H   -0.2710717725   -2.4990515196   -1.2714291669
 H    0.8088613899   -2.1081950594   -3.4985027299
 H    2.3926785208   -2.2068751940   -2.7397825577
 H    0.3294101993   -4.5000689392   -2.8169863231
 H    1.7799276538   -4.3874655737   -3.8190108131
 H    1.9338422368   -4.5969797906   -2.0721813380
 H   -0.0984529429   -3.6766981471    0.3702126262