16

 N   -0.0014434004   -1.1336153972    0.0326133894
 C   -0.0184425766    0.0230505962    0.0354002831
 C   -0.0367089439    1.4650637856    0.0342458592
 C   -0.7165670950    2.4051613619    1.0608158004
 C   -0.0580040124    3.3495113430    0.0287612847
 C    1.2195401449    2.4314277748   -0.0193049042
 C    1.7151257724    2.4351423548   -1.4555210069
 C    0.5962588051    2.4203718464   -2.1829826561
 C   -0.5151946011    2.4085427322   -1.1471894155
 H   -1.8084280546    2.3803083760    1.0857095737
 H   -0.2960285409    2.4002603433    2.0690422256
 H   -0.0632046778    4.4402776586    0.0146296832
 H    1.9190905621    2.4270831955    0.8162057256
 H    2.7476877914    2.4387600614   -1.7730303992
 H    0.4675727984    2.4086603023   -3.2555088423
 H   -1.5623857616    2.3811522253   -1.4473698409