19

 C   -0.0994501790    1.2749117601   -0.5802001536
 O   -0.0746087120    0.0382641461    0.0926577825
 C   -1.3005779597   -0.6500376906    0.0223799910
 C   -1.1343497817   -1.9672700560    0.7882628840
 C   -2.3485846075   -2.7727663614    0.7823254679
 C   -3.3676083713   -3.4145709496    0.7787509652
 C   -4.5882270718   -4.2052853053    0.7164223311
 C   -4.8687027688   -4.7283886176   -0.6941895740
 O   -5.9665793300   -4.7924888097   -1.1756638006
 H    0.8894504920    1.7262710491   -0.4707711180
 H   -0.3181758512    1.1518956488   -1.6526568918
 H   -0.8514784173    1.9572001255   -0.1534665769
 H   -2.1144457620   -0.0547694236    0.4674062869
 H   -1.5796643327   -0.8542375433   -1.0242107190
 H   -0.3028644187   -2.5264306169    0.3427043424
 H   -0.8350607394   -1.7364195246    1.8177072949
 H   -4.5006267049   -5.0891595832    1.3674650250
 H   -5.4680482026   -3.6484398139    1.0551562255
 H   -3.9620187213   -5.0625450941   -1.2440468725