17

 C   -0.1249952343    1.5705796837   -0.0189505830
 C   -0.0037423808    0.0642706123    0.0517139203
 N    1.1929300264   -0.5638511007   -0.6649472277
 C    2.0987361785   -0.2935013559    0.5699461506
 C    2.5789499084   -1.7456932973    0.5911189498
 C    1.0871444555   -1.8022816145    0.2618620022
 C    0.7110189113   -0.6235092944    1.2238764379
 C    0.3694325416   -0.6805868688    2.6262974366
 N    0.0891028847   -0.7194786000    3.7480865728
 H    0.7931670173    2.0753486404    0.2946680297
 H   -0.3489764088    1.8793264916   -1.0447857365
 H   -0.9387201873    1.9183307736    0.6254478137
 H   -0.9382963449   -0.4214398794   -0.2530538513
 H    2.6661376230    0.6310372899    0.6677786083
 H    3.2548222380   -2.0329277540   -0.2172215466
 H    2.8918414448   -2.1518377238    1.5549772736
 H    0.4444544566   -2.6422650128   -0.0044671104