13

 N   -0.0116591320    1.4020556916    0.1202376779
 C   -0.0268028588    0.0422500346    0.0420823993
 C   -1.1527919109   -0.7454337119    0.0181976333
 O   -2.3725042780   -0.1585919194    0.0229990130
 N   -1.1396708022   -2.1024177997   -0.0110131209
 N   -0.0372596516   -2.7519602683   -0.0263094921
 N    1.0951991400   -2.0244128736   -0.0173360014
 C    1.2474540048   -0.6407507716    0.0063845192
 O    2.3429898713   -0.0970079146   -0.0092143313
 H    0.8804526275    1.8256678008   -0.0896126141
 H   -0.8419365001    1.9043295551   -0.1466486085
 H   -3.0245061808   -0.8722505214   -0.0030392131
 H    1.9409151006   -2.5794466718   -0.0413628613