16

 C   -0.0201199930    1.4768384282   -0.0073036536
 C   -0.0081277807   -0.0182565154    0.0115468294
 N   -0.0256399836   -0.7255464207   -1.1167869062
 N   -0.0073931309   -2.0093775323   -0.7199829319
 C    0.0212013469   -2.1640408716    0.6276804698
 C    0.0215746058   -0.8803098030    1.1382004604
 N    0.0456941239   -0.4723417937    2.4777973830
 C    0.0739970682   -1.3052752210    3.5566856945
 O    0.0821020986   -2.5171729286    3.5027827776
 H    0.8723704564    1.8992397194    0.4707419681
 H   -0.0465766190    1.8281184452   -1.0405722559
 H   -0.8961687528    1.8854775721    0.5113740832
 H   -0.0159610192   -2.7344763137   -1.4160341849
 H    0.0386630327   -3.1190767053    1.1198216822
 H    0.0417953126    0.5197206702    2.6560250425
 H    0.0889246241   -0.7383067296    4.5069569317