16

 C    0.7425079395    1.1089478049    1.1147979403
 C    0.1046287690    0.0461888200    0.2341033746
 O   -0.2100050433   -1.0743261634    1.0528212122
 C   -1.2504947900    0.5114575139   -0.3179861565
 O   -1.6254516553    0.3360011663   -1.4527980396
 C    1.0320111423   -0.4425050902   -0.9104527317
 O    0.4407878798   -1.5321323771   -1.5908969482
 C    1.4176699338    0.6500033869   -1.8218416678
 N    1.7253091179    1.5166993080   -2.5210523249
 H    1.6490609322    0.7089246062    1.5772705797
 H    0.9993013212    2.0015504785    0.5381574943
 H    0.0525369823    1.3915790822    1.9147441268
 H   -0.3547845320   -1.8157858643    0.4453571621
 H   -1.9159872512    0.9622253682    0.4472348477
 H    1.9444060658   -0.8307439580   -0.4447627249
 H   -0.3358869220   -1.1703411319   -2.0466269041