19

 C   -0.0302417831    1.5119795203    0.0179735319
 C   -0.0148369970   -0.0070515961    0.0518676245
 O   -0.0268037494   -0.6046889237    1.1093696728
 C    0.0195802527   -0.7332222341   -1.2592904104
 C    0.0403626935   -2.0723841254   -1.2586397181
 C    0.0241178957   -2.8800862696   -2.5205358782
 C   -0.3701159588   -1.9954610598   -3.7053493428
 O    0.3525600773   -0.7767572930   -3.6818236281
 C    0.0268516912    0.0299023363   -2.5674892988
 H    0.9041599089    1.8950087118   -0.4086649586
 H   -0.8453293315    1.8877736563   -0.6105668582
 H   -0.1427119211    1.8914615729    1.0337032430
 H    0.0611660835   -2.5833965738   -0.3000821087
 H    1.0158966942   -3.3231790884   -2.6880987654
 H   -0.6720480522   -3.7230476535   -2.4240473903
 H   -0.1362975833   -2.4728359570   -4.6604748288
 H   -1.4546145203   -1.7982305562   -3.6796238973
 H   -0.9510975023    0.5218862458   -2.7253827454
 H    0.7795923321    0.8254499075   -2.5514372534