21

 C   -0.0309188081    1.5265635816    0.0889599640
 C    0.0250362210    0.0182632339    0.0787748706
 C    0.8301612574   -0.7945460230   -0.9912616333
 C    0.6994171016   -1.9390045989    0.0533831736
 C    0.8103012699   -0.8264574241    1.1357685511
 C   -0.8174284187   -2.2151966265    0.0410545030
 C   -1.2966945704   -0.7515937321    0.0435041278
 C   -2.5896687923   -0.2679592336    0.5264960675
 O   -2.3035462630   -0.3404273487   -0.8801746715
 H    0.9677734746    1.9600748996   -0.0215038586
 H   -0.6561581250    1.8913317357   -0.7327120597
 H   -0.4532656679    1.9046067189    1.0270253438
 H    0.3765433968   -0.9336838496   -1.9767971212
 H    1.8555093297   -0.4299049106   -1.0915452267
 H    1.3642767157   -2.8022584822    0.0468014129
 H    1.8324962752   -0.4632821635    1.2690133380
 H    0.3419318282   -0.9999379393    2.1102306667
 H   -1.1572257664   -2.7360803824   -0.8586890091
 H   -1.1542649112   -2.7766840418    0.9179461202
 H   -3.3313850902   -0.9805800994    0.8868506126
 H   -2.6895234469    0.7399316062    0.9270850384