18

 C   -0.0115591746    1.6036610541   -0.0264366785
 C    0.0050233161    0.0750061774    0.0668883650
 C    0.7168140228   -0.6195674601   -1.1575379343
 C    1.5831631639   -1.8274977166   -0.6384827028
 C    1.6288021010   -1.4799534880    0.8049897940
 C    0.8058391081   -0.4934621222    1.2004247856
 N    0.9057030551   -0.3220411912    2.5744890765
 C    1.7827060092   -1.2137128262    2.9164439416
 O    2.2780618855   -1.9767940450    1.8934515111
 H    1.0071030503    2.0003375172   -0.0948228609
 H   -0.5672448587    1.9363138925   -0.9095222186
 H   -0.4839843319    2.0419549580    0.8575794104
 H   -1.0347874783   -0.2744708386    0.1345442379
 H   -0.0004133950   -0.9366025589   -1.9182259990
 H    1.3824837972    0.1109044838   -1.6278520406
 H    1.0919466591   -2.7925876297   -0.8173054230
 H    2.5614087927   -1.8713428420   -1.1281307809
 H    2.1754868476   -1.4252518245    3.8986314364