15

 O    0.5561661419    0.4036228671   -0.7138749419
 C   -0.2304702398    0.2992036563    0.4571273551
 C   -1.5021714788   -0.4656091744    0.1891117538
 O   -2.4076764202   -0.5574838019    1.3097014874
 C   -2.6191354394   -1.9796528377    1.0868558775
 C   -1.7442021152   -1.9483056142   -0.1671905169
 O   -2.4961997589   -1.5519316673   -1.3543084055
 C   -2.2624694452   -0.2105733629   -1.1331884942
 O   -2.5756497090    0.7106063379   -1.8149431854
 H    0.1130195556    1.0128145582   -1.3155344124
 H    0.3720876174   -0.2234237644    1.2061488143
 H   -0.5024096010    1.2783091482    0.8792794472
 H   -2.2093129366   -2.5677799261    1.9149688113
 H   -3.6704298774   -2.2318094698    0.9219470736
 H   -1.0012377434   -2.7089844590   -0.3892824140