19

 O   -0.0771111026    1.4756601606    0.1057071773
 C    0.0399344497    0.0613910802    0.0447168429
 C    0.7239268010   -0.4893424979    1.3041472863
 O    0.7527777496   -1.9053553352    1.3094554224
 C   -0.5431207582   -2.4658690119    1.2930511643
 C   -1.3405681621   -2.0582403117    0.0325048407
 C   -1.3702085230   -0.5129389512   -0.0628662166
 C   -0.7925334319   -2.6732214730   -1.1749239659
 C   -0.3497075904   -3.1810240364   -2.1705555560
 H    0.8055340312    1.8531768906    0.0359857424
 H    0.6210326921   -0.2514927722   -0.8350815812
 H    1.7668528316   -0.1592998794    1.3606904791
 H    0.1926579638   -0.1005457673    2.1898468436
 H   -0.4128883790   -3.5496197569    1.3350731519
 H   -1.1119702914   -2.1445010426    2.1823726939
 H   -2.3699443233   -2.4173209576    0.1639809587
 H   -1.9677348747   -0.1159625697    0.7670361222
 H   -1.8415664206   -0.1885455687   -0.9940402372
 H    0.0424820180   -3.6335714297   -3.0474143288