14

 C   -0.0639176393    1.5666550183   -0.2928897820
 C   -0.0463035854    0.0907129253    0.0095715968
 N    1.2323420598   -0.5951515089   -0.0560937393
 C    0.5806021719   -0.4983858384    1.2595697481
 C    1.2353615599    0.3704178722    2.2756346587
 O    2.0237925403    1.2561058918    2.0572792571
 C    0.7985787775    0.0890557031    3.6643190051
 N    0.4560911880   -0.1403544970    4.7447986221
 H    0.8331806598    2.0531643498    0.0920432999
 H   -0.0994972902    1.7168739053   -1.3769183449
 H   -0.9481572706    2.0416428102    0.1437820252
 H   -0.9270435657   -0.4595672219   -0.3215166321
 H    1.1354450601   -1.5430191275   -0.4106057880
 H    0.0900306740   -1.3761094623    1.6728179632