18

 N   -0.1335105277    1.3628103629   -0.0164506351
 C    0.0898544272    0.0202411026   -0.0744201122
 O    1.1787093206   -0.4850781998   -0.2609393059
 C   -1.1851875925   -0.8290943853    0.0615001328
 C   -0.9448492470   -2.3409274521    0.1573829654
 C   -2.1491488612   -2.8767238166    0.9627063386
 C   -2.4306282754   -1.7741841718    1.9945507278
 C   -2.0446425090   -0.4793096102    1.2908047418
 O   -2.3596073206    0.6387614422    1.6267201986
 H    0.6836905623    1.9516130945    0.0326559153
 H   -0.9841295944    1.6815470666    0.4307573610
 H   -1.8166728073   -0.5847543438   -0.8048950267
 H   -0.8451102518   -2.8140464971   -0.8210484974
 H   -0.0052644140   -2.5140893291    0.6907225925
 H   -3.0184372983   -3.0003813501    0.3063217008
 H   -1.9482796394   -3.8478216285    1.4205661716
 H   -3.4519512312   -1.7269621796    2.3784791137
 H   -1.7632509403   -1.8722383748    2.8624529974