17

 O   -0.1613553469    1.3204365976    0.1159177962
 N    0.0040578592   -0.0739844839    0.0724460522
 C   -1.1223332171   -0.6703115460    0.0435939483
 C   -1.2221242639   -2.1538344381   -0.0907036271
 C   -2.0071673825   -2.9154440208    0.9633572442
 C   -2.7018225266   -2.4250674789   -0.2775184085
 N   -3.4518468934   -1.1592099537   -0.3143851291
 C   -3.5376542357   -0.3921236123    0.9298051937
 C   -2.4846659632   -0.0643628651   -0.0748817080
 H    0.7482924458    1.6347609542    0.0802443630
 H   -0.4415168666   -2.6675132266   -0.6377914094
 H   -1.8162021268   -3.9823433346    1.0122671422
 H   -2.1883745705   -2.4638085629    1.9302893193
 H   -3.0640133236   -3.1526643234   -0.9938081208
 H   -4.4082554730    0.2544800332    0.9984361368
 H   -3.2477964954   -0.8454689679    1.8708252278
 H   -2.5717190696    0.8366474492   -0.6736327208