23

 C    0.1873544518    1.3419979160   -0.1716342129
 O    0.1500879495   -0.0624090015   -0.0656255760
 C    0.5763989941   -0.5456714091    1.1966584751
 C    0.6014555354   -2.0700680192    1.0914940281
 O    1.3865983740   -2.4427729116   -0.0324590323
 C    1.1872569785   -2.7608851905    2.3286546673
 C    0.4606384460   -2.3863375886    3.6265970563
 C    1.1806330279   -4.2872680846    2.1283317367
 O    1.8067392239   -4.9842991567    3.1986069314
 H    1.2043880178    1.7343207654   -0.0178323754
 H   -0.1462500633    1.6036331633   -1.1786367776
 H   -0.4809367374    1.8207875348    0.5601429734
 H    1.5866428658   -0.1680176391    1.4275036073
 H   -0.1085655728   -0.2073491219    1.9876898712
 H   -0.4408564815   -2.4104252798    0.9537474776
 H    1.1312974332   -1.8374166122   -0.7397370231
 H    2.2393232289   -2.4456700914    2.4005011452
 H   -0.6215501258   -2.5355878234    3.5284219044
 H    0.8128573228   -3.0292919168    4.4365763059
 H    0.6325155274   -1.3458910319    3.9169007117
 H    0.1454079831   -4.6494214547    2.1076052017
 H    1.6390795167   -4.5356731932    1.1647229808
 H    2.7512889739   -4.8071353534    3.1465252631