16

 O    0.3017633573    0.0316329921    0.2980814325
 C    0.1267851727    1.2046807790    0.2064642341
 C   -1.0964732581    2.1307350482    0.1026725171
 C   -0.0717165944    3.2589605773    0.0083149942
 C    0.9071296025    3.2604451185    1.1049357029
 C    0.6196374188    2.8713519605    2.5503480833
 C    1.8237938301    2.4585750534    3.2630915635
 C    2.8253178337    2.1333571264    3.8402672491
 N    1.1095834236    2.2610501301    0.0089542216
 H   -1.6343319631    1.9599002193   -0.8334737508
 H   -1.8123167206    2.1335722062    0.9280911925
 H   -0.0994710853    4.0441719310   -0.7378254976
 H    1.6741405633    4.0275211464    1.0308689163
 H    0.1793131461    3.7453244333    3.0489967800
 H   -0.1310625116    2.0762099071    2.6077308799
 H    3.7066959351    1.8310031514    4.3496009511