17

 O   -0.1006191195    0.0142789059   -0.2287670324
 C   -0.0450040062    1.1842856820    0.0138246839
 C   -1.0942682396    2.2538547948    0.3539299674
 C    0.0755540629    3.1711824495    0.8233082480
 C    1.1094448461    2.1791194962    0.2091656542
 N    0.0814044178    4.4924525571    0.2302508965
 C   -0.5789442533    5.5498877195    0.9923971369
 C    0.9054919702    5.4995464365    0.8948845882
 H   -1.5690795312    2.6496970398   -0.5502049402
 H   -1.8661966412    1.9748240051    1.0747151240
 H    0.1487575957    3.2004652282    1.9225540470
 H    1.9483444480    1.8454616872    0.8241312100
 H    1.4876518088    2.5460335338   -0.7510065627
 H   -1.1472932243    6.2673449468    0.4081128206
 H   -1.0235525258    5.2870787686    1.9508969143
 H    1.4527817245    5.2030996538    1.7882266886
 H    1.4397137668    6.1796124351    0.2381723858