17

 O   -0.1270249639    1.2862638378    0.1653847589
 N    0.0117159502   -0.1112530413    0.1634561115
 C   -1.1062537402   -0.6829351088   -0.0299426727
 C   -2.4807392379   -0.0854158271   -0.2056352214
 O   -3.3303000200   -1.1826707776   -0.5157075901
 C   -2.7678412736   -2.3620334333    0.0539574753
 C   -1.2609654378   -2.1635294131   -0.0481485731
 C   -0.3270457358   -3.0314011992   -0.8192989796
 N   -0.3385400486   -3.0553000129    0.6499460711
 H    0.7748010721    1.5865312248    0.3213484454
 H   -2.7903882418    0.4266775819    0.7202395633
 H   -2.5239461004    0.6435573321   -1.0202080018
 H   -3.0607582059   -2.4767170330    1.1097610262
 H   -3.1408346655   -3.2206418102   -0.5086473555
 H   -0.7064090282   -3.9312474261   -1.2969263075
 H    0.4985841622   -2.5413432273   -1.3276813309
 H    0.4385298352   -2.5014450366    1.0077436308