16

 O    0.1632303840    1.4420546181   -0.1376874877
 C    0.0370100594    0.0553351249   -0.0226725004
 C    0.1926544712   -0.6534003595    1.3740572075
 C   -0.9066821489    0.0490409025    2.2044123946
 C   -2.0779188754    0.0682982947    1.1509495604
 C   -1.3809927893   -0.6275492219   -0.0413354993
 C   -0.6446769698   -1.7563697093    0.7021271555
 O   -0.6415007830   -2.9509274151    0.6767850550
 H   -0.4085209403    1.8716920112    0.5061409551
 H    0.7038937702   -0.3747397397   -0.7719809676
 H    1.1576442968   -0.8430986875    1.8381299351
 H   -1.1633896606   -0.5102107397    3.1065579375
 H   -0.6006583131    1.0515265194    2.5198660791
 H   -2.9580012537   -0.4806787681    1.4924253519
 H   -2.4055679518    1.0812056299    0.8963906036
 H   -1.9475848257   -0.7920758400   -0.9548224403