20

 C   -0.1832203504    1.4768579589    0.0407469506
 N    0.1350709753    0.0592085041   -0.0017632081
 C    1.4612391516   -0.4540193177   -0.2491213214
 C    2.5791256317    0.3661523988    0.4218495009
 C    1.8492862281    0.1745513301    1.8058378723
 C    0.7711045424   -0.6549900644    1.0789960864
 C    2.7000518644   -0.6101474921    2.7832323683
 C    3.6169710416    0.2080777056    3.6761425024
 O    2.6620891031   -1.8193452880    2.8381003139
 H    0.5890711023    2.1210400317    0.4856087974
 H   -0.3629603187    1.8243327143   -0.9812887178
 H   -1.1073599774    1.6121558169    0.6111580300
 H    1.6059295940   -1.1476576424   -1.0701065965
 H    3.5367579468   -0.1591026277    0.3912113633
 H    2.7286104154    1.3938686421    0.0780683933
 H    1.5065078437    1.1026258135    2.2753839686
 H    0.2989874673   -1.5387902585    1.4900684996
 H    3.0161871497    0.7739654011    4.3982522930
 H    4.3000590265   -0.4498396867    4.2146804527
 H    4.1819180127    0.9416086904    3.0907034611