16

 O   -0.0862049480    1.4242185062   -0.0042381736
 C    0.0378173962    0.0135548193    0.0097351455
 C   -1.3844227711   -0.5430275784    0.0847010935
 N   -1.3268578349   -1.9843246355   -0.0877348809
 C   -0.3490177572   -2.5497346415   -0.8657625529
 N    0.6412784455   -1.9689636801   -1.4288098004
 C    0.7357291260   -0.5233613528   -1.2490586057
 C   -0.4842378726   -3.9864705725   -1.0276147258
 N   -0.6290865352   -5.1275668058   -1.1373838115
 H    0.7972662125    1.8057343128    0.0083616225
 H    0.5896018690   -0.3274417570    0.8991422905
 H   -1.8320981355   -0.3093333543    1.0544018361
 H   -1.9924787006   -0.0592679504   -0.6922287787
 H   -2.1019532726   -2.5546519817    0.2052236561
 H    0.3030455467   -0.0208619617   -2.1256784768
 H    1.7988519516   -0.2536977766   -1.2327324478