12

 N   -0.1057907045    1.3024526396    0.1223640450
 C    0.0682719503   -0.0464428104    0.0232773628
 O    1.1304548148   -0.6176457256   -0.0572897672
 O   -1.1394425450   -0.6696450808    0.0608977124
 C   -1.0551482304   -2.1041771616    0.0157891169
 C   -2.4024238091   -2.6496700203    0.0104118629
 C   -3.5006064426   -3.1346653501    0.0045846418
 H    0.6930365161    1.8743468765   -0.0895330447
 H   -1.0231632640    1.6897853177   -0.0173910301
 H   -0.5008243492   -2.4098783836   -0.8779642792
 H   -0.4879937272   -2.4639131967    0.8813569010
 H   -4.4727257591   -3.5623018548   -0.0002428617