23

 C   -0.4601600847    1.4258543136   -0.0471072557
 C    0.1736922988    0.0499100684   -0.0857251148
 O    1.4746706272    0.0572443034   -0.7229564285
 C    2.0464387665   -0.7376489290    0.3333296829
 C    0.7698263744   -0.6078036547    1.1959061609
 C    0.9080850190    0.2337314957    2.4488247362
 C   -0.3381207161    0.4858391151    3.3483411371
 C    0.5701531036    0.3101004547    4.5943068155
 C    1.6102563804   -0.4008855950    3.6873800554
 H    0.1667755923    2.1465343609    0.4841658815
 H   -0.6021711839    1.7914377315   -1.0692876654
 H   -1.4412283548    1.3860609433    0.4379848623
 H   -0.4984332427   -0.6429468668   -0.6149366711
 H    2.2799599633   -1.7577939420   -0.0000915596
 H    2.9573436852   -0.2824005179    0.7422596165
 H    0.3001908819   -1.5632668955    1.4506361389
 H    1.3911525760    1.1877146887    2.2082461768
 H   -0.8710000775    1.4322994949    3.2295962048
 H   -1.0614029601   -0.3320757888    3.2593793466
 H    0.9430432261    1.2702220481    4.9623619628
 H    0.1682544150   -0.2510116052    5.4410282815
 H    1.4782577454   -1.4882472956    3.7016605188
 H    2.6683647244   -0.1787719078    3.8460399065