21

 C   -0.1211385555    1.5531548886   -0.0855940656
 C    0.0065786765    0.0429723274    0.0516254869
 C    1.0006659520   -0.6676600059   -0.8779376360
 O    2.3166153747   -0.2008542581   -0.5415694938
 C    1.7420617803   -1.2433900023    0.2519408784
 C    0.8017765092   -0.5865701108    1.2856431797
 C    1.4623954882    0.3684512226    2.2734704825
 C   -0.0466439088   -1.6363092387    1.9928456091
 O   -1.1303384817   -0.9747604951    2.6312593266
 H    0.8615756386    2.0297443834   -0.1230611421
 H   -0.6563601288    1.8112418501   -1.0063695292
 H   -0.6810048108    1.9770276286    0.7536603402
 H   -0.9815340109   -0.4234677837   -0.0044021879
 H    0.8578389661   -1.0358951218   -1.8880698065
 H    2.3056102431   -2.1673047666    0.3365618583
 H    2.1158958663    1.0729274586    1.7553885047
 H    0.7099025971    0.9277308322    2.8355594375
 H    2.0710288722   -0.1888958793    2.9956332351
 H   -0.4102496067   -2.3753004013    1.2595265175
 H    0.5737168782   -2.1786828919    2.7257085149
 H   -1.6608038392   -1.6343195060    3.0873245400