16

 N   -0.0433209221    1.3059416305    0.0597240852
 C    0.0479091857    0.0501306335   -0.0489307302
 C   -1.2060498834   -0.8031734219   -0.0719080879
 C   -1.4136353424   -1.6351393023   -1.3353903935
 O   -2.3117100378   -1.4347639828   -2.1128924510
 C   -0.4413074452   -2.7958719246   -1.5518354130
 O    0.6715287228   -2.7837721055   -0.6767444006
 C    1.5330894834   -1.7027485307   -0.8512154258
 O    1.2629822141   -0.5861226790   -0.0124356018
 H    0.8903472251    1.7212779375    0.0947452969
 H   -1.1505149120   -1.4966831037    0.7768971997
 H   -2.0596480428   -0.1371445962    0.0393633900
 H   -0.9792452439   -3.7305778853   -1.3629568224
 H   -0.1291951168   -2.8001251427   -2.6055670121
 H    2.5322688266   -2.0233813329   -0.5521847618
 H    1.5368880888   -1.3759292541   -1.9027100517