23

 C   -0.0422084027    1.4867003870   -0.3141817657
 C    1.4039735133    1.6874853014    0.2204247779
 C    1.4447294792    0.1986447316    0.6787341337
 C    1.5798013752   -0.0164086176    2.1802895110
 O    1.4766057893   -1.3814522802    2.5487883768
 C    0.1617477512   -1.8408461969    2.7967138877
 C   -0.7460564174   -1.9477034050    1.5658899756
 C   -1.0874639709   -0.5971365204    0.9138041556
 C    0.0314918093   -0.0292915409    0.0410179876
 H   -0.8028392022    2.0277372888    0.2568402485
 H   -0.1905063368    1.7183289401   -1.3716200221
 H    2.1384774963    1.9367497094   -0.5486994735
 H    1.5047213162    2.4190354020    1.0282703974
 H    2.2263356937   -0.3905706560    0.1906027822
 H    2.5747822173    0.3161145956    2.5020342171
 H    0.8429681194    0.5878628692    2.7349984561
 H    0.2830098239   -2.8311840853    3.2487553272
 H   -0.3249842577   -1.1930291694    3.5472335306
 H   -0.2788001745   -2.6149232560    0.8304661956
 H   -1.6712475749   -2.4401718109    1.8931767044
 H   -1.9879194230   -0.7029323561    0.2954949183
 H   -1.3526553677    0.1220467162    1.7015042200
 H    0.1169237336   -0.6494110564   -0.8576900220