16

 O    0.1163972643    1.1994846809   -0.4773781518
 C   -0.0681227571   -0.1360524327   -0.0755420034
 C   -1.5544414438   -0.4882952264    0.1449000343
 C   -2.3838193287   -0.4260637462   -1.1865560194
 C   -2.3902400580   -1.9627115668   -1.1892906840
 O   -2.6999140433   -2.7880829322   -1.9931832867
 C   -1.8010557067   -2.0358074836    0.2321411134
 C   -2.0857768897    0.3052772139    1.2439972059
 N   -2.4719539602    0.9640175307    2.1130116097
 H   -0.1161186521    1.7738288928    0.2614763017
 H    0.3156324147   -0.7595942114   -0.8904025723
 H    0.5010456416   -0.3829150414    0.8325611600
 H   -3.3899049859   -0.0147754691   -1.0646167319
 H   -1.8938133967    0.0790825541   -2.0216799030
 H   -0.9136572458   -2.6605389752    0.3657446623
 H   -2.5504675927   -2.3229961174    0.9746845051