16

 C   -0.0403063441   -1.1944048106   -0.2910838631
 C   -0.0519189236   -0.0054948829   -0.1196340243
 C   -0.0428190593    1.4380576285    0.1050743587
 C    1.3494235842    2.0004209091    0.2131814921
 C    2.4169309111    1.7212995119    1.2864844661
 C    2.9855278864    3.1616662128    1.0249651027
 C    1.8903023052    3.3492400287   -0.0334814194
 O    2.0543946363    2.2962007433   -0.9970665713
 H   -0.0358178171   -2.2438270457   -0.4525588475
 H   -0.5604878765    1.9507267083   -0.7141115074
 H   -0.5954805457    1.6673094457    1.0257772806
 H    2.0028302626    1.6106437556    2.2916160646
 H    3.0750657662    0.8786073757    1.0668979792
 H    2.8714205453    3.8214931891    1.8882528780
 H    4.0074887180    3.2281278452    0.6451969902
 H    1.4102547111    4.2587569252   -0.3777225493