15

 C   -0.1137279720    1.3670938179   -0.0095973637
 O   -0.0561485189   -0.0473295627    0.0542776338
 C    0.6477262241   -0.5942408751    1.0594403270
 C    1.3051756532    0.0924760327    2.0143771014
 O    2.0058717877   -0.5452868384    3.0137440645
 C    1.9982414749   -1.8910051117    2.9846931309
 N    1.4180070089   -2.6420192138    2.1399662986
 C    0.6777609975   -2.0684393490    1.0828665989
 N    0.0698285736   -2.7569364676    0.1991406648
 H    0.8873762926    1.8017181048   -0.1310263270
 H   -0.7221676330    1.6073044588   -0.8816165941
 H   -0.5816871364    1.7880343470    0.8902228244
 H    1.3634209962    1.1645318075    2.1125505020
 H    2.5762690519   -2.2948810584    3.8107366675
 H    0.2211983997   -3.7474423622    0.4035819811