19

 C    0.0122511571    1.5787234090    0.1063274470
 C    0.0527928734    0.0682283166    0.1637226938
 C    1.2633658396   -0.7455516449   -0.1997624408
 O    2.4709168802   -0.0626846304    0.1497613942
 C    2.1058936255   -0.1126583887    1.5557302203
 C    0.7594780231   -0.7553775721    1.2294247648
 C    0.0890156942   -1.8222893094    2.0614861351
 C   -0.5354662283   -1.2846073578    3.2696147681
 C   -1.0317428028   -0.8191739438    4.2603205653
 H    1.0142071530    1.9999133668    0.2174579329
 H   -0.3790794715    1.9139781016   -0.8598337101
 H   -0.6295558274    1.9913344127    0.8913983925
 H   -0.8688766641   -0.4241451160   -0.1455388099
 H    1.3201645098   -1.5041198763   -0.9733823510
 H    2.7803552858   -0.7847882322    2.0998219740
 H    2.1091568419    0.8752486937    2.0289980887
 H   -0.6689170583   -2.3349702543    1.4554170749
 H    0.8219959668   -2.5904071417    2.3444855687
 H   -1.4763245879   -0.4161406028    5.1362435014