21

 C   -0.0856462041    1.4149588297    0.2367360546
 C    1.2911028861    0.8674308968   -0.0077519424
 C    1.7812494104    0.1274292660    1.2587875859
 C    0.5793770501   -0.8023023114    1.0905072029
 C    0.2046479928   -2.0260230429    1.4423211706
 C   -0.9268206092   -2.7057264850    0.6992505803
 C   -1.6716894900   -1.7764232893   -0.2868658420
 C   -0.7230214438   -0.8572604952   -1.0931514653
 C    0.0498752015   -0.0559159490   -0.0803446268
 H   -0.3765779124    1.7567315800    1.2283909679
 H   -0.4971195511    2.0082409067   -0.5756416702
 H    1.9247832250    1.2233082651   -0.8110360105
 H    2.7348600779   -0.3935770695    1.1338988481
 H    1.8343259293    0.7384753612    2.1669669116
 H    0.7275462801   -2.5929291489    2.2088649359
 H   -0.5196785143   -3.5718362828    0.1550859953
 H   -1.6513438488   -3.1286104444    1.4079145909
 H   -2.2823398655   -2.3808568320   -0.9658406703
 H   -2.3638398329   -1.1398720004    0.2777064415
 H   -0.0408855826   -1.4723276045   -1.6949169405
 H   -1.2924635583   -0.2287808001   -1.7855272276