17

 N    0.0527512966    1.3239814650    0.1127638639
 C   -0.0248375946   -0.0433014971    0.0173586054
 N   -1.0864046135   -0.7860328728    0.0554034631
 C   -0.5848843224   -2.0942477245    0.0038163078
 C    0.7639326098   -2.0441001607   -0.0770189338
 O    1.1452585681   -0.7107023344   -0.0604093050
 C   -1.4923560083   -3.2553370384    0.0407928417
 C   -0.9700368184   -4.6510896188    0.2692069598
 C   -1.7716407901   -3.9730155763    1.3480927228
 H    0.8438579765    1.7362338155   -0.3598608650
 H   -0.8232818351    1.7796652113   -0.0953117466
 H    1.5589837696   -2.7619830136   -0.1640455757
 H   -2.3463199807   -3.1587448694   -0.6230951996
 H   -1.4288736660   -5.4594259681   -0.2887335705
 H    0.0934541837   -4.7792750831    0.4376766707
 H   -1.2418412439   -3.6241618762    2.2270991183
 H   -2.7849598813   -4.3109497283    1.5340021228