21

 C   -0.1214783995    1.4859121940   -0.0343446562
 C    0.1662085122    0.0118502923    0.0700229479
 C   -0.9933173104   -1.0161283805   -0.0357226550
 C   -0.4583283421   -1.7381385571    1.2404683055
 C    0.7342288368   -0.7471878361    1.3128318053
 C    1.9480922250   -1.0302743836    0.4054928293
 C    2.3866043318   -2.4367502543    0.0408585641
 O    3.2815877462   -2.3938224838   -1.0567353940
 O    1.3101997332   -0.3865500897   -0.7349952750
 H    0.7647804548    2.0763795330    0.2162323537
 H   -0.4200550315    1.7392158151   -1.0582040507
 H   -0.9366342103    1.7729026175    0.6376968106
 H   -1.9925874375   -0.5873799050    0.0786623546
 H   -0.9604119701   -1.5938757466   -0.9617727847
 H   -1.1277075488   -1.6255045646    2.0964537056
 H   -0.2188947483   -2.7989424935    1.1432108908
 H    0.9446448909   -0.2760222816    2.2726833335
 H    2.8353585419   -0.4533585535    0.7011820724
 H    2.9237278043   -2.8982091843    0.8773648598
 H    1.5124889324   -3.0639016100   -0.1881248836
 H    2.8379404889   -1.8728302877   -1.7374054438