18

 C   -0.0254307069    1.5064603074   -0.0366017853
 C    0.0001753017    0.0048600100    0.0595793752
 N   -1.2419004843   -0.6822902811   -0.2185872481
 C   -1.2544609421   -1.7123976881    0.5421146267
 N   -2.1773579735   -2.7221202245    0.5529654515
 O   -0.2204850573   -1.8904123353    1.4146403589
 C    0.6711555822   -0.8160131808    1.1489390832
 C    1.2713275777   -0.7941839528   -0.2450502078
 N    1.2796033984   -1.9417463230   -1.1055184480
 H    0.9457319866    1.9340509569    0.2293821561
 H   -0.2662534357    1.8180802266   -1.0581460416
 H   -0.7837075040    1.9273657439    0.6316227379
 H   -3.0469205730   -2.4783682696    0.1038949492
 H   -2.2803355468   -3.1971968209    1.4372656920
 H    1.1852895579   -0.4671176397    2.0356464355
 H    2.1617403861   -0.1685992165   -0.3048090088
 H    1.3276156290   -2.8029725699   -0.5711122331
 H    0.4244138340   -1.9803742926   -1.6507534235