18

 O    0.0769417489    1.4790217153   -0.0476450125
 C    0.0136392935    0.0793459682    0.0335261115
 C    0.1226081701   -0.6547381757    1.4079632674
 C   -0.9946971551    0.0643518025    2.1725927558
 N   -2.1419038972   -0.3522201630    1.2942290094
 C   -2.0864412154   -1.8520579709    1.5164840838
 C   -0.7630851995   -1.8042281834    0.7629181437
 O   -0.0440465579   -2.8755710526    0.2526569236
 C   -1.3538548381   -0.5788059842   -0.0271253434
 H    1.0027285152    1.7426640841   -0.0425915756
 H    0.6595754484   -0.4070376697   -0.7090045466
 H    1.0811284712   -0.8707452525    1.8778230473
 H   -1.1564255084   -0.2827878195    3.1950367558
 H   -0.8783742547    1.1493716663    2.1673173724
 H   -2.1345729698   -2.1726747854    2.5619996654
 H   -2.8787096015   -2.3430239683    0.9409885307
 H   -0.6388070671   -3.4168990425   -0.2776903553
 H   -1.9932339027   -0.6194188688   -0.9071104733