16

 O    0.0101423460   -0.0051106527    0.1954016026
 C   -0.0073242640    1.1717081760    0.0722866426
 C   -1.0874381550    2.3335210310   -0.0569387632
 C   -0.7038376520    3.0522002388    1.2246396149
 C    0.6437084617    3.0731041610    1.2115816001
 C    1.0290868910    2.3692304342   -0.0749668829
 C   -0.0463677587    2.9118682091   -1.0490482933
 C   -0.0943635793    2.8980231763   -2.5217072815
 N   -0.0239239846    4.1691420157   -1.7509576588
 H   -2.1311410343    2.1609145235   -0.3093113709
 H   -1.3858988795    3.3585729870    2.0042039219
 H    1.3298022200    3.4096134329    1.9748265092
 H    2.0724683368    2.2359364106   -0.3465389870
 H    0.7953032430    2.6738851246   -3.1035601085
 H   -1.0324175513    2.6293493396   -3.0014869595
 H   -0.9329408696    4.6235729726   -1.7185476858