21

 C    0.1166318626    1.3228036935   -0.6050740882
 C    1.3919687015    1.6368432277    0.2221561996
 C    1.3218448757    0.2071759204    0.8478505367
 C   -0.1554303780    0.1182379699    0.3337807334
 C    2.2582897755   -0.7712558954    0.1327681068
 O    2.1552992568   -2.0754202339    0.6776712074
 C    2.6165220723   -2.1367807956    2.0135007669
 C    2.1359492256   -0.9897981292    2.8591317397
 C    1.5341580560    0.0714593782    2.3252154542
 H   -0.6488892695    2.1003019453   -0.6515180581
 H    0.3491861747    1.0141823021   -1.6277451242
 H    2.3057582801    1.8880752909   -0.3254316114
 H    1.2188227851    2.4129714156    0.9738607695
 H   -0.8708325920    0.3653249238    1.1232226721
 H   -0.4487047959   -0.8354527931   -0.1125662032
 H    2.0079597222   -0.8640840873   -0.9287242401
 H    3.2959525927   -0.4027862504    0.2065519259
 H    2.2546029694   -3.0898327610    2.4178319690
 H    3.7220504298   -2.1821385091    2.0389005350
 H    2.3042271683   -1.0685784225    3.9301744912
 H    1.1674924270    0.8768775300    2.9588023677