25

 C   -0.0955666690    1.5793368286    0.0787037615
 C    0.0143387096    0.0521382886    0.0018864651
 C    0.7400483449   -0.4803009846   -1.2432644062
 C    2.2266574043   -0.0978135265   -1.2661040082
 O    2.8952868232   -0.6038285390   -2.4079105118
 C    2.8585881741   -2.0170507430   -2.4736812538
 C    1.4255397278   -2.5591878469   -2.5469051215
 C    1.4096426602   -4.0883810882   -2.6044527213
 C    0.6224272317   -2.0095564688   -1.3576605007
 H    0.8842705794    2.0599356701    0.1611641689
 H   -0.5887781709    1.9846621481   -0.8118397392
 H   -0.6820181250    1.8852845610    0.9506982123
 H    0.5192329342   -0.3266125692    0.9015821432
 H   -0.9946828750   -0.3793940593    0.0219431655
 H    0.2777016394   -0.0328757622   -2.1352986721
 H    2.3626744361    0.9864858841   -1.2992809685
 H    2.7127802683   -0.4707062377   -0.3451458941
 H    3.4303722271   -2.2964033181   -3.3645595005
 H    3.3708130163   -2.4520984841   -1.5952858916
 H    0.9806512738   -2.1654317271   -3.4713838946
 H    1.8621000152   -4.5228759118   -1.7051566566
 H    0.3852566436   -4.4685098944   -2.6749860856
 H    1.9650991357   -4.4629954698   -3.4711317439
 H    0.9991485769   -2.4676883174   -0.4299303318
 H   -0.4313282920   -2.3038534823   -1.4410986444