15

 C   -0.2724571321    1.5470430475   -0.1194765352
 C    0.0670845852    0.0732887620   -0.0697575751
 O    1.0905415561   -0.2364126230   -1.0286423615
 C    1.8922571872   -1.2186401743   -0.5494558635
 O    2.7296696517   -1.7855290876   -1.1718372310
 O    1.5965336999   -1.4736472991    0.7573488984
 C    0.6805608709   -0.4776608780    1.2480085733
 C    1.3810528062    0.5011820585    2.0717006542
 C    1.9505356298    1.3027821160    2.7612033935
 H    0.6062466239    2.1549680004    0.1041988305
 H   -0.6446291776    1.8075720004   -1.1131780589
 H   -1.0525586855    1.7774584880    0.6122787203
 H   -0.8131965171   -0.5322430150   -0.3185068358
 H   -0.0754576025   -0.9943343340    1.8451946311
 H    2.4609487937    2.0063185182    3.3727740896