16

 C   -0.0836662928    1.5467182753   -0.0175642777
 C    0.0052570317    0.0428918185    0.0668837260
 N    1.2474185846   -0.7342221488   -0.2117770776
 C    2.4428554419    0.0392257886   -0.0797333854
 N    2.7853474275    0.4785821926    1.0613832321
 C    1.7463116836    0.0764711956    2.0195797944
 C    0.6978715005   -0.6784097373    1.1810836434
 C    0.1223354259   -1.8812439504    1.7243585344
 N   -0.3546451996   -2.8201356283    2.2016621844
 H    0.8017424064    2.0521254782    0.3718241611
 H   -0.2243794399    1.8562624274   -1.0579578755
 H   -0.9544415345    1.8882617460    0.5511231991
 H   -0.8601342323   -0.4726667722   -0.3423160900
 H    3.0330805440    0.1945007713   -0.9777461309
 H    2.1750252980   -0.5759205171    2.7861320476
 H    1.3446085150    0.9595925006    2.5276836747