10

 C    0.0240187259    1.5117997864    0.0318868439
 C   -0.0554278372    0.0279227629    0.0448828567
 C   -1.0455197498   -0.8603060726   -0.2477457968
 N   -0.5313611992   -2.1190781907   -0.0511470672
 N    0.6629695945   -2.0597057753    0.3281311276
 O    1.0235417057   -0.6653565519    0.4069156045
 H    0.8052671075    1.8520994296   -0.6548954101
 H   -0.9293797505    1.9394444805   -0.2834088309
 H    0.2685372996    1.8960871465    1.0271153781
 H   -2.0579691866   -0.6978157854   -0.5748424658