18

 O   -0.1017052140    1.4513950250    0.0181243638
 C    0.0265909328    0.0411085005   -0.0098785273
 C   -1.3412516310   -0.6160054290    0.1483079386
 O   -2.1969973672   -0.1287578930   -0.9041273937
 C   -2.7667413607   -1.2258152868   -1.6143356871
 C   -2.7243952434   -2.3968559379   -0.6307790227
 C   -1.3778245285   -2.1518279504    0.0696089253
 O   -0.2821629392   -2.5958360896   -0.7230109383
 H   -0.7717863916    1.6635091105   -0.6427013759
 H    0.4932165697   -0.3084024902   -0.9390352291
 H    0.6793674868   -0.2395736753    0.8232621200
 H   -1.7762699221   -0.2881034098    1.1026419375
 H   -3.7781376071   -0.9471894950   -1.9245244129
 H   -2.1747122496   -1.4539895377   -2.5118513032
 H   -3.5438590295   -2.3230570299    0.0922293475
 H   -2.7750219996   -3.3778990857   -1.1120359319
 H   -1.3344607446   -2.5970667715    1.0721687295
 H   -0.3305305814   -3.5545987941   -0.7863435599