17

 C    0.1318518659    1.3604697517   -0.1033369037
 O   -0.0196637761   -0.0150467053    0.2004826014
 C   -1.3012255851   -0.5166539441    0.0625451241
 C   -1.3855439718   -2.0509910486   -0.0615203124
 O   -2.1898826736   -1.9521833684   -1.2673631904
 C   -2.1668221470   -0.5209232358   -1.2354154453
 C   -3.3187168447    0.1565111046   -0.4272883723
 O   -3.6224352043   -0.6871892070    0.6851321478
 C   -2.4951228118    0.1803383853    0.8004700274
 H    1.1919548030    1.5926781842    0.0145741008
 H   -0.1680426984    1.5807512364   -1.1373004654
 H   -0.4479925036    2.0022448665    0.5734986823
 H   -0.4095868217   -2.5029998498   -0.2680510522
 H   -1.9058653751   -2.5850569228    0.7366691627
 H   -1.8908248755   -0.0497718224   -2.1818314513
 H   -4.1059369399    0.8158743329   -0.7764386875
 H   -2.4741282303    0.8642029826    1.6421326739