17

 O    0.2877055718    1.4150629592   -0.2201952473
 C    0.0816926923    0.0639481454    0.0042184235
 C    0.1848251501   -0.6028628761    1.4074413474
 C   -0.4545968886    0.2317020616    2.5278267329
 C   -1.8779392606    0.6199538714    2.1538653934
 O   -2.0510318565    1.5873042825    1.1001168314
 C   -2.3517084384    0.1979351519    0.8274745952
 C   -1.3247561468   -0.6081014529    0.0353899223
 O   -0.7714499512   -1.6014660851    0.9465828043
 H   -0.4360824727    1.8829572208    0.2242276776
 H    0.7160858447   -0.4918277975   -0.6903269458
 H    1.1327162754   -1.0514165563    1.7150533889
 H   -0.4908461983   -0.3694973153    3.4425111777
 H    0.1492874726    1.1211301878    2.7437254404
 H   -2.5899664812    0.7465852056    2.9659656240
 H   -3.4066694852    0.0049147688    0.6498605075
 H   -1.7334673473   -1.0582014819   -0.8715421434