19

 C    0.0521335663    1.5732781668   -0.1230915035
 C   -0.0201736049    0.0510328622   -0.0522974501
 O   -1.4079118587   -0.2661411387   -0.0120854740
 C    0.8357981745   -0.5850386418   -1.1623081053
 C    1.5639857386   -1.5906551908   -0.6399182825
 C    2.9781565267   -1.2648025998   -0.1584588610
 C    2.2133439177   -1.0425465209    1.2063960526
 C    1.0990175487   -1.9536203513    0.7833854057
 C    0.7035525796   -0.5726977336    1.1726519355
 H    1.0896202461    1.9170392112   -0.1292854022
 H   -0.4527278105    1.9389163885   -1.0216018841
 H   -0.4510315396    2.0011616971    0.7495794032
 H   -1.4812767194   -1.2254722061   -0.0568926186
 H    1.2046031937    0.0387027823   -1.9724285668
 H    3.6647752639   -2.1082489734   -0.0256499863
 H    3.4887539166   -0.4303063939   -0.6471326854
 H    2.7172408802   -1.0557214463    2.1703258659
 H    0.7910497065   -2.9141413468    1.1738147187
 H    0.3039579539   -0.3663107046    2.1643356981