19

 C    0.0754308586    1.5118282946   -0.0312930864
 C   -0.0906489736    0.0365482494    0.1289698989
 C   -1.3958078542   -0.7943184505    0.0591277903
 C   -0.7243204859   -1.8008160855    1.0218680145
 C   -1.3738294249   -2.4896868819    2.1944512260
 C   -0.8423581686   -3.2850767933    1.0186315086
 O   -1.7424204149   -3.8191564251    0.0921411172
 C    0.5298651154   -0.9485999131    1.0356302641
 O    0.9647555318   -0.8236622468   -0.3296699943
 H    1.0925844784    1.8122458564    0.2339301119
 H   -0.1085232646    1.8123684915   -1.0692263891
 H   -0.6308108606    2.0548491284    0.6050504159
 H   -2.2564300910   -0.2873954664    0.5042840764
 H   -1.6553973319   -1.1705307737   -0.9323825458
 H   -0.8378269923   -2.5356944400    3.1379412621
 H   -2.4525143654   -2.4050377693    2.2843982206
 H    0.0662468594   -3.8685417292    1.1712415124
 H   -2.1591251452   -4.5898656040    0.4917125252
 H    1.2794668295   -0.8392348317    1.8124148114