19

 O   -0.1778198411    1.4438162603   -0.1513702891
 C   -0.0235871755    0.0633923149   -0.0073653282
 C    1.1294631340   -0.6469713616   -0.7613337617
 C    1.5399010808   -1.4219422593    0.5264948003
 C    0.4049276210   -0.7452297094    1.3366176997
 O    0.6971045589   -0.2062847223    2.5913674180
 C   -0.9112275859   -1.4803889244    1.2620751772
 C   -2.0560767746   -0.5085510682    1.2797905795
 C   -1.3170329974   -0.7146524133   -0.0111934762
 H    0.6918106226    1.8564136134   -0.1296723083
 H    0.8318359751   -1.2519647960   -1.6218948435
 H    1.8997156975    0.0560996053   -1.0958651043
 H    1.4996721000   -2.5131757899    0.4740826663
 H    2.5333693534   -1.1401537360    0.8914915127
 H    1.5501399992    0.2378501366    2.5466382294
 H   -1.0424453231   -2.5374228825    1.4640936491
 H   -3.0417713491   -0.9597734120    1.3226902285
 H   -1.9637533652    0.4303756450    1.8148423666
 H   -1.7947273305   -1.1175972306   -0.8970561358