16

 C   -0.0034287539    1.5196578292   -0.1135869379
 C   -0.0013434336    0.0151163606    0.0483151972
 O    0.0004790018   -0.5284683738    1.1350830509
 C   -0.0007400081   -0.7933518027   -1.1912635318
 C    0.0012090646   -2.1451392114   -1.4185317255
 C    0.0033882530   -3.2742861927   -0.4394402242
 C    0.0005716265   -2.2169351079   -2.8397238017
 N   -0.0013284480   -1.0344650336   -3.4078012955
 O   -0.0023286921   -0.1259799894   -2.3709290574
 H    0.8729725321    1.8442001211   -0.6839757639
 H   -0.8825163428    1.8418665349   -0.6811828204
 H   -0.0025478456    1.9828804722    0.8731314479
 H   -0.8777809999   -3.9108526810   -0.5763241653
 H    0.8844809125   -3.9102341376   -0.5795375372
 H    0.0049847311   -2.8918095215    0.5803675131
 H    0.0016241923   -3.0986375062   -3.4659185185