18

 O   -0.5483081579    1.1971159316    0.1480209088
 C   -0.0099720272   -0.1052854365    0.0494724576
 C    0.8307680716   -0.2967576329   -1.2326939341
 C    0.0642221693   -0.0771046018   -2.4546924376
 N   -0.5442204323    0.0922649269   -3.4221869777
 C    0.8123613806   -0.5083120824    1.2737678673
 O    1.2927917023   -1.8271293431    1.1939370680
 C    1.7486870824    0.4645605453    1.9260061563
 C    0.4700845952    0.0444273034    2.6275046849
 H    0.1518400871    1.8370003947   -0.0210123547
 H   -0.8824697005   -0.7688158928   -0.0084701905
 H    1.6848609926    0.3926808866   -1.2149343274
 H    1.2463636676   -1.3085724265   -1.2328678548
 H    0.5681806317   -2.4229127498    1.4167491814
 H    2.6841035417    0.0582229685    2.2913756284
 H    1.8093980578    1.4792532809    1.5473360777
 H   -0.3337371932    0.7679278261    2.6877234554
 H    0.5654289112   -0.6308646881    3.4703767911