21

 C   -0.3991462778    1.4109369487    0.3133417924
 C    0.0233995696   -0.0112876957    0.0295523213
 C    1.1376194541   -0.2744227050   -1.0158589280
 C    1.8419560271   -1.2617795189   -0.0361858231
 C    0.8144873521   -0.9295838167    1.0667926756
 O    1.3741179874   -0.5111207452    2.2656076163
 C   -0.3957944108   -1.8878658689    1.1538887354
 O   -0.9984742397   -1.6739874077    2.4239811267
 C   -1.0889004957   -1.1071741959    0.0012104474
 H    0.4694268915    2.0442164146    0.5234969095
 H   -0.9332376170    1.8469195414   -0.5403794410
 H   -1.0645186482    1.4605236886    1.1826166201
 H    0.8085824387   -0.6867855545   -1.9742164825
 H    1.7431340910    0.6138138545   -1.2163647430
 H    1.8738887085   -2.3115101198   -0.3439486853
 H    2.8487183134   -0.9558551424    0.2543342255
 H    0.6680556001   -0.5575093596    2.9246140545
 H   -0.2001156323   -2.9576329833    0.9921770115
 H   -1.8989260867   -2.0113596072    2.4030944974
 H   -2.0807679271   -0.7422343949    0.2842328218
 H   -1.1745762884   -1.6568532520   -0.9407412125