18

 C   -0.0330773480    1.5811115873   -0.0236630959
 C   -0.0034540071    0.0593426798    0.0672547929
 O    0.7186999803   -0.2760221434    1.2368936234
 C   -1.4257547703   -0.5309798760    0.0767509706
 C   -1.4429243932   -2.0700597445   -0.0218429664
 N   -0.7726767698   -2.6842531390    1.1369550818
 C   -2.8222395181   -2.5687663870   -0.2035616228
 N   -3.8991163510   -2.9762686415   -0.3088411154
 H    0.9875143097    1.9706396636    0.0129341547
 H   -0.5022145383    1.9148898450   -0.9539821227
 H   -0.5864812115    2.0025738504    0.8216481616
 H    0.5137712242   -0.3334143493   -0.8289344852
 H    0.6054719575   -1.2306261060    1.3679882925
 H   -1.9409235127   -0.2191767990    0.9936482144
 H   -1.9963341854   -0.1306037417   -0.7679824249
 H   -0.8739052044   -2.3622219058   -0.9131664369
 H   -1.3250782633   -2.5288172140    1.9764187032
 H   -0.7003206285   -3.6897274690    1.0139449451