18

 O    0.0229874897    1.3755217108    0.0817981380
 C   -0.0617893129   -0.0310592733    0.1282147148
 C   -1.5081422275   -0.5500023753   -0.0627423900
 C   -2.0354703912   -0.0556399502   -1.3357904800
 C   -2.4087513422    0.3754230369   -2.3955369449
 C   -1.5708398688   -2.0676888439    0.0306859479
 C   -1.6388500327   -2.7328065491    1.3829517240
 C   -2.8365750360   -2.7562758147    0.4653955965
 H   -0.3504536023    1.6526482091   -0.7638366483
 H    0.5873785319   -0.5058484576   -0.6247701183
 H    0.2943358329   -0.3347846840    1.1168643798
 H   -2.1129225244   -0.1222472673    0.7487810344
 H   -2.7706979187    0.7401706577   -3.3250917084
 H   -0.9857723586   -2.5765838976   -0.7303350483
 H   -1.0819944357   -3.6506822332    1.5338987399
 H   -1.6874977930   -2.0951078061    2.2599399564
 H   -3.6865001984   -2.1340873398    0.7256549826
 H   -3.1027733223   -3.6909687824   -0.0149221762