18

 O   -0.1041646487    1.3230489290    0.1582163676
 N    0.0298189772   -0.0737744456    0.0535354759
 C   -1.1000686960   -0.6391189417   -0.0942389831
 C   -2.4646094662    0.0149460512   -0.2235719884
 C   -3.3178174596   -1.0507477379   -0.8920996343
 C   -2.7864265812   -1.6283411266   -2.1939322266
 C   -2.5470943623   -2.3621424231   -0.9135405822
 O   -3.1624829078   -3.6061543948   -0.7956432901
 C   -1.2092698148   -2.1445267700   -0.2161253970
 H    0.8134200165    1.6088713397    0.2186667016
 H   -2.8533127300    0.2715572222    0.7709885467
 H   -2.3908032803    0.9529686323   -0.7820802607
 H   -4.3913358460   -1.0501563408   -0.7439030028
 H   -3.5194149916   -2.0752667357   -2.8553646119
 H   -1.9567924138   -1.1363853959   -2.6936897331
 H   -3.3608153089   -3.7560415643    0.1359348222
 H   -0.3546266631   -2.5849470867   -0.7363835293
 H   -1.2505765833   -2.6005838313    0.7845667456