16

 C   -0.0469001872    1.4254182347    0.1826491687
 C    1.2720695836    0.7413556754   -0.0236222784
 O    1.6569757843    0.0496874524    1.2128728930
 C    0.5879521991   -0.8105706794    1.0210942495
 N    0.3772334377   -1.9677306987    1.4520085497
 C   -0.7259432964   -2.6151182080    0.7132449661
 C   -1.5483239455   -1.7072034280   -0.2315246788
 O   -0.7365864984   -0.7985296678   -1.0116960070
 C   -0.0076901616   -0.0679194691   -0.1034629337
 H   -0.3110344823    1.8258501982    1.1579251294
 H   -0.3832530552    2.0065175925   -0.6725467293
 H    2.0655794030    0.9842419576   -0.7161011166
 H   -0.2775454585   -3.4374252014    0.1422017626
 H   -1.4186435952   -3.0735513931    1.4285019691
 H   -2.0958294233   -2.3151169899   -0.9547177798
 H   -2.2728904341   -1.1178464353    0.3475067655