18

 C    0.1225722628    1.4815150196   -0.0049834842
 O    1.2317207359    0.5825141200   -0.0075718400
 C   -0.0912426468    0.0260768351    0.0233868383
 C   -0.4692332057   -0.6714082270    1.3090250196
 C    0.2513163560   -2.0161042545    1.4781426330
 N   -0.1152735696   -3.0928866775    0.5722321873
 C   -0.1470045132   -2.9893369550   -0.6820851644
 O    0.0583380261   -1.9277186889   -1.5174770266
 C   -0.5264694781   -0.6498075763   -1.2549914854
 H   -0.0179835430    2.0548954141    0.9103108968
 H   -0.0286363923    2.0417662662   -0.9272143792
 H   -0.2083993919   -0.0293994934    2.1567886498
 H   -1.5548291183   -0.8283806017    1.3362665840
 H    1.3322798093   -1.8398592248    1.3894295426
 H    0.0746154872   -2.3773205072    2.4959877584
 H   -0.3053072381   -3.8869000225   -1.2820780895
 H   -1.6208987036   -0.7535311203   -1.2506992559
 H   -0.2362114066   -0.0394565558   -2.1123430847