19

 C   -0.0237687402    1.5146954300    0.0109951133
 C    0.0260294558    0.0106952583   -0.0340250227
 C    0.7093662708   -0.7619404073   -1.1834953674
 C    0.9627041699   -2.0543452968   -0.4917702618
 O    1.1732009409   -1.9090763316    0.8905267740
 C    0.3560418949   -0.8187996150    1.2920992435
 C   -1.1299235115   -1.2614502241    1.3695354279
 C   -1.2364517210   -0.9103225635   -0.1303960944
 C   -0.4157285156   -1.8175608080   -1.0755551188
 H    0.9787788874    1.9397989899    0.1401238582
 H   -0.4439224006    1.9257482126   -0.9134272143
 H   -0.6434366061    1.8688258044    0.8426043198
 H    1.2546317522   -0.3602579452   -2.0282507134
 H    1.5850192432   -2.8251487609   -0.9293618578
 H    0.8181265250   -0.3312791047    2.1532103587
 H   -1.3038127167   -2.2909040672    1.6915639135
 H   -1.7268836709   -0.5774567302    1.9809091377
 H   -2.1726412136   -0.5432265379   -0.5547569918
 H   -0.8231642640   -2.4679603528   -1.8414953442