21

 C    0.0203778613    1.5315072010   -0.0039368221
 C   -0.0019034899    0.0029270898    0.0286654030
 O    0.5901838143   -0.4860205655    1.2347654355
 C   -1.4132697591   -0.5759757653   -0.0056401653
 C   -2.1885968759   -0.3461695417   -1.3452396804
 C   -2.3999496478   -1.8304448482   -1.7115224215
 C   -2.8889433112   -2.4725705094   -0.3953629738
 C   -1.4263665782   -2.1243947790   -0.0478329266
 O   -1.0775392605   -2.3963212358   -1.4461598067
 H    1.0510256883    1.9039004403    0.0268579035
 H   -0.4428921187    1.9221460071   -0.9151660312
 H   -0.5134035878    1.9381315081    0.8612703680
 H    0.5408471471   -0.3921340708   -0.8440944025
 H    1.4990746511   -0.1720924936    1.2678806938
 H   -1.9634305934   -0.2025327451    0.8648569119
 H   -3.1233686799    0.2067145293   -1.2215564100
 H   -1.5833290015    0.1596903766   -2.1019516163
 H   -2.8039306087   -2.0801017994   -2.6927754183
 H   -3.7011991638   -1.9997588689    0.1638092647
 H   -3.0406335126   -3.5475538155   -0.4960742147
 H   -0.8219823829   -2.6622482840    0.6790247488