18

 C   -0.3272976692    1.4420452554    0.0105237327
 C    0.0674322477   -0.0238963534   -0.0791236581
 C    1.3664807108   -0.3650448929   -0.8433215703
 O    1.9636055921   -0.9302848402    0.3469702307
 C    0.7982538898   -0.6706069094    1.1225232168
 C    0.9850096940   -0.0158780317    2.5251656806
 N    0.2961397863   -1.1855853627    3.0805987336
 C    0.1414323189   -1.8591083467    1.8932862892
 O   -0.3394867546   -2.9195148111    1.5986032589
 H    0.5143058302    2.0659068777    0.3301967592
 H   -0.6623277572    1.8088448882   -0.9655455684
 H   -1.1494381807    1.5923381052    0.7180705624
 H   -0.7819185859   -0.6330480764   -0.3987348371
 H    1.2741397912   -1.1078434000   -1.6425046950
 H    1.9380360652    0.4964779955   -1.2105546779
 H    2.0373398407    0.0702418090    2.8124115986
 H    0.4689950658    0.9350999646    2.6895054601
 H    0.0308243550   -1.4235540811    4.0242925938