14

 C   -0.0849472644    1.4409839798    0.0620070076
 C    1.3414545089    0.9648781623    0.0286722731
 C    0.2129208517   -0.0395242936    0.0149413134
 N   -0.0046723723   -0.7755929936    1.2182270323
 C   -0.3983702887   -1.9529642831    1.1888141498
 O   -0.6958412185   -2.7697576587    0.1128162871
 N   -1.0938053746   -3.9990727551    0.6381358870
 N   -1.0534177242   -3.9633485521    1.8706433956
 O   -0.6288346931   -2.7207208913    2.3098346001
 H   -0.4645656280    1.8265950940    1.0004403292
 H   -0.5071356477    1.8967842832   -0.8262880497
 H    1.9147190320    1.0882330473   -0.8830420104
 H    1.9157138173    1.0323619259    0.9447118885
 H    0.0190679117   -0.5546269049   -0.9229421736