16

 O    0.0151456436   -0.0367034251    0.0536754829
 C   -0.0098943607    1.1677549323   -0.0254209554
 N   -1.1349595226    1.9737921394   -0.0454863999
 C   -0.7736496861    3.3522863327   -0.2091224046
 C    0.1415707761    4.0491701889    0.8839232524
 C    1.0371497386    2.8974570240    1.3645887913
 C    1.1512904474    2.1713465505   -0.0268624383
 C    0.6086043836    3.3638510391   -0.8879885144
 O    0.9440451095    4.5891344073   -0.2058610411
 H   -2.0640630261    1.6141320942    0.0983354490
 H   -1.5438933702    3.9893542326   -0.6371977436
 H   -0.2106183465    4.7981568377    1.5917543199
 H    1.9979861418    3.2861493664    1.7055552393
 H    0.6004795396    2.2675180693    2.1426580200
 H    2.1160769845    1.7382478480   -0.2736148135
 H    0.7734301575    3.3692813327   -1.9643906141