22

 C   -0.4228218867    1.5017079199   -0.0560334822
 C   -0.0537462377    0.0200316557   -0.0015340540
 C    1.1583057977   -0.4117603063   -0.8917471645
 C    1.5549514267    0.3903592997   -2.1202886498
 C    2.0763869147   -0.3938628124    0.3853928818
 C    2.8737570257    0.8124256443    0.5423362467
 N    3.5021700351    1.7764817332    0.6661648311
 C    0.7649773281   -0.4308395617    1.2532170990
 C    0.6974125171    0.3487630183    2.5561726624
 H    0.4368925425    2.1579010705    0.1074520576
 H   -0.8526029681    1.7556271957   -1.0304022627
 H   -1.1711382256    1.7401758146    0.7066833668
 H   -0.9575152759   -0.5733287712   -0.1725387210
 H    1.0318083727   -1.4626658285   -1.1711593461
 H    1.7420784037    1.4405443860   -1.8821305604
 H    2.4679939272   -0.0138608962   -2.5702696873
 H    0.7653530210    0.3485460126   -2.8781061914
 H    2.7406624451   -1.2548891227    0.4995445046
 H    0.5508933579   -1.4859934838    1.4514430426
 H    0.9535594979    1.4022928102    2.4180121482
 H   -0.3095529635    0.2964175719    2.9837025985
 H    1.3926696144   -0.0660289498    3.2937963300