16

 O   -0.5066911603    0.2677682344   -1.2049982024
 C   -0.0036744107    1.1462009949   -0.5504760025
 C    1.3775835504    1.7113786770   -0.8070213124
 C    2.4367083864    0.8301775564   -0.1308241421
 C    3.8736032008    1.3864428166   -0.0369099683
 C    3.6638538371    1.2607336419    1.4872726463
 O    2.2971665969    0.8246597245    1.3031159561
 C   -0.7280813750    1.7216239558    0.6013994365
 N   -1.3106673226    2.1952442479    1.4808043224
 H    1.5446535867    1.7027857432   -1.8888153772
 H    1.4541998475    2.7340499805   -0.4266430037
 H    2.3656004514   -0.1864860053   -0.5391291221
 H    4.6526465522    0.7585203098   -0.4700611585
 H    3.9896056393    2.4085088320   -0.4025397103
 H    4.2696350903    0.4917981708    1.9800746097
 H    3.7207436996    2.1876399897    2.0676647087