20

 C    0.2171319907    1.3627485283    0.1515252179
 O   -0.2662346282    0.0698953332   -0.1468751575
 C    0.4638558325   -0.5770116541   -1.1467385439
 C    1.8249268968   -1.2783690592   -0.8389584327
 C    1.3731480087   -2.2085464155    0.3006408942
 N    0.3753096645   -3.0209968126   -0.4678829777
 C    1.3083518956   -3.6463291683   -1.4851898331
 C    1.4906157175   -2.2471802473   -2.0591570951
 C    0.0345368927   -1.9695496674   -1.5719601245
 H    1.2434048187    1.3390037939    0.5464971849
 H    0.2047738816    2.0125587516   -0.7374022683
 H   -0.4425571739    1.7891633842    0.9104695607
 H    0.5501338547    0.0572002583   -2.0437715099
 H    2.7631027905   -0.7305181698   -0.7663075330
 H    2.1552195820   -2.8532979228    0.7076052108
 H    0.8852900938   -1.6693858591    1.1141114756
 H    2.1545007882   -4.1956601948   -1.0599855275
 H    0.7446846364   -4.3011005556   -2.1560610069
 H    1.8786777271   -1.9987832302   -3.0469693547
 H   -0.8785762300   -2.2020319529   -2.1157495693