16

 O   -0.0922770781    1.4465065518   -0.1365952971
 C   -0.0130490429    0.0567670749   -0.0058873190
 C    0.2415366790   -0.5747309507    1.4384610693
 C    0.4500417488    0.3708392097    2.5236009873
 N    0.6281933907    1.1461330329    3.3629464880
 C   -1.1240510538   -1.2693911002    1.3307352882
 C   -2.2116816384   -0.2406727874    1.1312505860
 C   -1.3641194965   -0.6457560338   -0.0403553518
 O   -1.8668962800   -1.2651240739   -1.1653110814
 H    0.7851224670    1.8283497344   -0.0246246602
 H    0.6815693503   -0.3934928474   -0.7258898499
 H    1.0749111998   -1.2809815445    1.4128044872
 H   -1.3262673532   -2.2756002587    1.6720433954
 H   -3.2117462472   -0.6609035548    1.1064735946
 H   -2.1355523337    0.7475143961    1.5742583424
 H   -2.4564837218   -0.6491243882   -1.6142275992