17

 C   -0.0832990828    1.3372157592   -0.0298476214
 O    0.1004098583   -0.0699591114   -0.0517183954
 C    0.7514880176   -0.5349293607   -1.1613196863
 C    2.1973244441   -0.2773210580   -1.6463318823
 C    1.5914421276   -1.2886619279   -2.6408425577
 C    0.8072201621   -2.0601652929   -1.5082525152
 C   -0.4801746590   -1.9208764667   -2.3234617549
 O   -1.4711948344   -2.5335682782   -2.5745706799
 C    0.1830332160   -0.5870546132   -2.6551766820
 H    0.8769126737    1.8700144198   -0.0446561784
 H   -0.6897446154    1.6750971474   -0.8809719695
 H   -0.6068973072    1.5718714713    0.8984068629
 H    2.4298321067    0.7162081556   -2.0400844721
 H    3.0018731199   -0.6403755181   -1.0003601722
 H    2.0486509382   -1.7624945272   -3.5045611089
 H    1.1997587287   -2.8484743709   -0.8698077815
 H   -0.1141028741    0.2508092719   -3.2822039252