17

 O    0.4774795291    0.9343398610   -0.7113125860
 C    0.0407694958   -0.2746721250   -0.1578090274
 C    0.2330321048   -0.3894516647    1.3960146163
 O    0.6178320602    0.8342170584    2.0007775779
 C   -1.2770355441   -0.7088396151    1.5696623321
 C   -1.4901902856   -0.5070563446    0.0131195429
 C   -2.3047716092    0.7874560209    0.2739764065
 C   -2.1567417494    0.5362416307    1.7856490722
 O   -2.6455969505    1.0293372367    2.7577901396
 H    0.5897857897    1.5370064552    0.0389544082
 H    0.5165871995   -1.0966448885   -0.7027519308
 H    0.8885104140   -1.2070897977    1.7108838534
 H    1.5653203323    0.8164015278    2.1659379372
 H   -1.5313582042   -1.5982524078    2.1467004509
 H   -1.9568501203   -1.2601704895   -0.6191823461
 H   -1.8477410328    1.7065352039   -0.1034141081
 H   -3.3476255494    0.7582748781   -0.0553535286