16

 O   -0.0130756526   -0.0589389342   -0.0286003269
 C   -0.0194324535    1.1543117446    0.0048933764
 N   -1.1440428546    1.9328317668    0.0643027537
 C   -1.0222874176    3.3602622417    0.1426609972
 C    0.0965956259    4.0277121328   -0.6517799668
 C    1.1106175998    3.0393487992   -1.2006184607
 C    1.2169723314    2.0574488393   -0.0110850469
 O    1.1481502392    2.8961756609    1.1604816504
 C    0.2060646512    3.8882764224    0.8509177713
 H   -2.0394200495    1.4798671976    0.1609603028
 H   -1.9652064619    3.8816098402    0.2462437488
 H   -0.0773230961    4.9763205363   -1.1438172266
 H    0.7906087048    2.5317596186   -2.1147738976
 H    2.0681304616    3.5340357935   -1.3880767873
 H    2.1253437951    1.4607863253    0.0381911254
 H    0.1828040469    4.6954515849    1.5716041867