18

 O   -0.0199309368    1.3673100821   -0.2937347519
 C    0.0233941177   -0.0447542670   -0.0748380084
 C    0.7465095559   -0.3918904130    1.2157847808
 C    0.3407766840   -0.0160749997    2.4302011260
 C   -0.9477200129    0.7338827070    2.7521330347
 N   -2.1954644082    0.1773739269    2.2313906652
 C   -2.4165463425    0.2774552558    0.7846049766
 C   -1.4255809789   -0.5528142714   -0.0307798154
 O   -1.7260455302   -1.5979077141   -0.5592049616
 H    0.8378410654    1.7261048496   -0.0434729467
 H    0.5059447780   -0.5550756437   -0.9172657919
 H    1.6674162264   -0.9585440494    1.1108062151
 H    0.9726659908   -0.2641522405    3.2808273436
 H   -1.0482512753    0.7955674868    3.8407920813
 H   -0.8707045447    1.7646883775    2.3851181229
 H   -2.2883955964   -0.7910116576    2.5222115469
 H   -3.4211933512   -0.0890710307    0.5574311438
 H   -2.3440536712    1.3299576213    0.4966860091