23

 C    0.0126129610    1.5428024722   -0.0981553187
 C    0.0710253192    0.0161411169   -0.0502914449
 O   -1.2359838858   -0.5487456678    0.0520200810
 C    0.7058353153   -0.5759606373   -1.3065245637
 C    0.8049515051   -2.0950138019   -1.2618087874
 O    1.4644032182   -2.5327770497   -2.4357720607
 C    1.6027586764   -3.9379554400   -2.5241842965
 C    2.4594629085   -4.2146676979   -3.7499233259
 O    3.7218974773   -3.5866733692   -3.6442503050
 H    1.0160844164    1.9744188536   -0.1718309697
 H   -0.5754534031    1.8750761442   -0.9594251358
 H   -0.4543189108    1.9430988898    0.8093075390
 H    0.6747448789   -0.2878020665    0.8227103771
 H   -1.6591238503   -0.1824968376    0.8347933599
 H    0.1158558235   -0.2797007397   -2.1814411392
 H    1.7105052205   -0.1570163113   -1.4324875356
 H    1.3677885702   -2.4186584175   -0.3690886776
 H   -0.1976540872   -2.5393773575   -1.1952085653
 H    2.1004070547   -4.3298794678   -1.6221658724
 H    0.6188899054   -4.4275507581   -2.6129308059
 H    2.6359673542   -5.2911373353   -3.8454470126
 H    1.9170663622   -3.8793276209   -4.6485989752
 H    3.5328262801   -2.6798596207   -3.3745270849