15

 C    0.0055308972    1.5364448713    0.0610035303
 C    0.0630205200    0.0186795874    0.0612292861
 C   -1.1006586996   -0.6327322617   -0.4968901530
 N   -2.0310825316   -1.1452362613   -0.9544873133
 C    1.3363345095   -0.7690625903   -0.1489793370
 O    2.4603922457   -0.0261963425    0.3622565413
 C    1.9355690727   -0.1290649737    1.6606947768
 N    2.4180645114    0.2090121005    2.7617039150
 C    0.6904030882   -0.8230593464    1.2086871796
 H    0.9566910702    1.9538048015    0.3927176656
 H   -0.2000173439    1.9044494702   -0.9478541872
 H   -0.7870173806    1.8896488902    0.7254355783
 H    1.5181972801   -1.5135608308   -0.9111903521
 H    3.3408089363    0.6339052385    2.6575658884
 H    0.1428762342   -1.5968507429    1.7248938113