17

 C    0.4862827956    1.4040707226   -0.0109363179
 C   -0.0237680230   -0.0220980186   -0.0143528938
 O    0.4086123164   -0.7271863166   -1.1672363533
 C    1.3048367863   -1.7544023888   -0.7914352317
 C    2.7250764733   -1.5305699172   -1.3271811047
 O    3.3823271773   -0.4448303636   -0.6978388597
 C    1.3021012123   -1.7268560154    0.7321217616
 O    1.9345569183   -2.4137503404    1.4822832149
 O    0.4797881113   -0.7330209442    1.1260658433
 H    1.5762264549    1.3948210234   -0.0865380662
 H    0.0722909053    1.9371168226   -0.8711597072
 H    0.1778320179    1.9161725164    0.9044211973
 H   -1.1185444194   -0.0679998030    0.0370481207
 H    0.9304322772   -2.7240164200   -1.1478850138
 H    3.2882754660   -2.4670594724   -1.2190015351
 H    2.6573226792   -1.2878360480   -2.3913771347
 H    3.6945724212   -0.7498977568    0.1613645401