21

 C   -0.1938466967    1.5685851059   -0.1121930002
 C   -0.1580641044    0.0390999575   -0.1412642122
 C    0.9459177229   -0.5112052096   -1.0581988859
 C    0.9495556212   -2.0150134793   -1.1379351096
 C    1.3206438506   -2.8802128385    0.0566379903
 O    1.5281390570   -4.1931221570   -0.4500335896
 C    1.8511312830   -4.1282530747   -1.8347900341
 C    1.2768740269   -2.8183270690   -2.3212678546
 O   -0.0870564082   -2.6309950996   -1.9259435374
 H    0.7541989191    1.9821909282    0.2499837683
 H   -0.3720797434    1.9788406997   -1.1123809443
 H   -0.9889916602    1.9348329520    0.5441795801
 H   -0.0145491176   -0.3429789327    0.8773768479
 H   -1.1233139545   -0.3515938107   -0.4838440910
 H    0.8129148923   -0.1095461666   -2.0692175784
 H    1.9275641964   -0.1675727766   -0.7051295802
 H    2.2327063983   -2.4783209568    0.5292586758
 H    0.5335388492   -2.9390867073    0.8152853003
 H    2.9410482772   -4.1392208038   -2.0036523706
 H    1.4143472640   -5.0068011825   -2.3210180867
 H    1.5715382169   -2.3925959587   -3.2771020578