19

 C    0.4167083780    0.7997871967   -0.6155580596
 O   -0.0828609140   -0.4251810323   -0.1302108019
 C   -1.3936861049   -0.3532150151    0.4031531808
 C   -2.4818921685   -0.3469678565   -0.6804394582
 O   -2.7060569272   -1.7049305045   -1.0450861025
 C   -2.0934070066   -2.5826585906   -0.0862174276
 C   -1.6759742742   -1.6843717914    1.0980668338
 C   -3.0092034162   -3.6565742036    0.2834664047
 C   -3.7465254953   -4.5493147825    0.6044870121
 H    1.4418747598    0.6197513032   -0.9474125245
 H   -0.1619482346    1.1861495417   -1.4673442767
 H    0.4270137931    1.5708223659    0.1709289993
 H   -1.4813892769    0.5099519225    1.0793023452
 H   -3.4079968737    0.1014806041   -0.2903280994
 H   -2.1832618874    0.2115617825   -1.5737918662
 H   -1.1958657876   -3.0195755205   -0.5459407607
 H   -0.8017433817   -2.0634882315    1.6280772011
 H   -2.5064674392   -1.5789900521    1.8005445901
 H   -4.4016364429   -5.3389816661    0.8782136802