23

 C   -0.2030149623    1.6765629952    0.0800724134
 C   -0.0441420297    0.1524018226   -0.0116276531
 C    0.5375585129   -0.2774328807   -1.3739254578
 C    1.9584427086    0.1214898327   -1.6961709161
 C    3.0156922889    0.1636453806   -0.8847948155
 C    3.0763826191   -0.1442300271    0.5922752394
 O    1.9792839736    0.2656501741    1.3791355271
 C    0.7565903696   -0.4322311511    1.1729221006
 C    0.0011084172   -0.3822820242    2.4992864476
 H    0.7703352707    2.1707878994    0.0545032147
 H   -0.8013773231    2.0487242847   -0.7580803812
 H   -0.7069962421    1.9757180994    1.0034553448
 H   -1.0444536895   -0.2996779325    0.0426795312
 H    0.4668302470   -1.3739305899   -1.4519779220
 H   -0.1181231353    0.1086788933   -2.1633832939
 H    2.1363382661    0.3544136301   -2.7446115100
 H    3.9805403332    0.4147423573   -1.3227416348
 H    3.2503019957   -1.2289487279    0.7276993206
 H    3.9437473360    0.3650873011    1.0260486317
 H    0.9830258893   -1.4886559653    0.9445309320
 H   -0.1892597735    0.6507378324    2.8028853915
 H   -0.9574513013   -0.9044083613    2.4224321126
 H    0.5945132587   -0.8572516526    3.2849624771