14

 N    0.0147446057    1.3905294722    0.1913620295
 C    0.0126465466    0.0000247185    0.0752648627
 N   -1.0284597825   -0.7986678496    0.0834309547
 N   -0.5972267316   -2.1276837865    0.0570551202
 C    0.7053705847   -2.0434273361    0.0134640723
 N    1.8111514308   -2.8566573672   -0.0361365903
 C    2.9430452038   -2.0470759928   -0.0404609133
 C    2.5652260661   -0.7442483478    0.0056940850
 N    1.1679443575   -0.7472855214    0.0342227314
 H    0.3801964850    1.8517080922   -0.6370121381
 H   -0.9387870953    1.7031313355    0.3383239092
 H    1.7908167146   -3.8584526356   -0.0855362726
 H    3.9330505733   -2.4700019765   -0.0712022716
 H    3.1524937614    0.1556027951    0.0356830209