19

 C   -0.5289220951    1.4925239540   -0.0179308648
 C    0.1869381714    0.1521227506   -0.0465115202
 O    1.2069487362    0.1934890625   -1.0395330531
 C    2.2796679057   -0.6697915021   -0.6762730212
 C    1.9314090528   -1.2744065270    0.7056993411
 C    3.1427491340   -1.4768843575    1.5918698359
 O    3.4515189766   -2.5360738631    2.0755888833
 C    0.9136566068   -0.2525702015    1.2505112501
 O    1.6424792591    0.8148135467    1.8370045233
 H    0.1721400357    2.2944523691    0.2284728718
 H   -0.9551819985    1.7095798060   -1.0003869416
 H   -1.3463807202    1.4833361596    0.7112708493
 H   -0.5391464335   -0.6452247432   -0.2847210039
 H    2.4058246005   -1.4551459954   -1.4305952592
 H    3.2062288815   -0.0816771666   -0.6374742319
 H    1.4366909455   -2.2421890787    0.5933438755
 H    3.7485133950   -0.5632218768    1.7586809629
 H    0.2281671066   -0.7097711094    1.9765708347
 H    1.0171503001    1.4630028829    2.1743758278