22

 C   -0.2073196158    1.6495587546    0.1040477994
 C   -0.0814740695    0.1302086903    0.0788967133
 C   -1.4732025985   -0.5005245509    0.0265119035
 C    0.8888980393   -0.5606385501   -0.9275855707
 C    1.5206558959   -1.2460532454    0.2810814764
 C    2.0801913136   -0.2852184298    1.2469975717
 C    2.8556790044    0.9797869392    0.9214911817
 O    4.2538183710    0.7279081262    0.9595166473
 N    0.6166623387   -0.5116729014    1.2728165070
 H    0.7500250159    2.1687999777    0.0533166602
 H   -0.8123180492    1.9905738867   -0.7433641824
 H   -0.7140192742    1.9641274788    1.0230222862
 H   -1.9935090936   -0.2117301817   -0.8931630272
 H   -1.4065354330   -1.5915419851    0.0605631054
 H   -2.0714068657   -0.1745922900    0.8831857263
 H    0.3807478814   -1.2441833100   -1.6102793238
 H    1.5523245132    0.0817226851   -1.5143698621
 H    1.6936687256   -2.3149963338    0.3609570418
 H    2.4994432057   -0.7623307719    2.1356244663
 H    2.6579637358    1.3373915131   -0.0903988922
 H    2.5739837640    1.7848385606    1.6177616567
 H    4.4895765849    0.5008012278    1.8647876052