18

 C    0.0495286361    1.4799553193    0.0030010438
 N    0.0672456537    0.0286617522    0.0495039021
 C    0.5749229792   -0.6184369172   -1.1619552584
 C    1.1490721477   -1.9426435135   -0.6699589693
 O    1.2151157598   -2.9924930557   -1.2663421493
 C    1.4750524426   -1.7962648728    0.7739204228
 O    1.5709071714   -2.9620042534    1.5060765559
 C    2.2695935758   -0.5642737985    1.1806174301
 C    0.7560366564   -0.5344904050    1.1954225525
 H    1.0535852312    1.9287236742   -0.1093063150
 H   -0.5675409489    1.8128634308   -0.8373785877
 H   -0.3961631831    1.8698681584    0.9232062119
 H   -0.2140378164   -0.7902920313   -1.9003453881
 H    1.3748715797   -0.0432664595   -1.6641000712
 H    1.5213163211   -3.6763312898    0.8526509627
 H    2.7625736709   -0.6761876413    2.1404631386
 H    2.8255988386    0.0007615143    0.4396249276
 H    0.2345007741   -0.4751258713    2.1448875809