20

 C   -0.1149350735    1.4741323950    0.0011609091
 N    0.0141579530    0.0280420192   -0.1165143753
 C   -1.1604802650   -0.7272874908   -0.0476975862
 C   -1.2703014841   -2.1034167658   -0.0022485377
 C   -0.2397608899   -3.1792250915    0.0111944798
 N   -2.6421859755   -2.3420920027    0.0119412034
 C   -3.2902802860   -3.6329150761    0.0605461286
 C   -3.2565421096   -1.1329583431   -0.0404639181
 N   -2.3974316538   -0.1350441566   -0.0727976954
 H    0.8779393150    1.9215833924   -0.0983755084
 H   -0.7488125843    1.8489220246   -0.8051542693
 H   -0.5631943390    1.8052858010    0.9498975671
 H    0.7411016717   -0.3390826888    0.4811652264
 H   -0.1234404370   -3.6657400741    0.9899616642
 H   -0.4534064246   -3.9709302859   -0.7178637500
 H    0.7303967272   -2.7530901883   -0.2602431729
 H   -3.0181993440   -4.1801764606    0.9694696326
 H   -4.3719859784   -3.4851603686    0.0553945625
 H   -3.0206551622   -4.2461253369   -0.8060513411
 H   -4.3328550199   -1.0408259327   -0.0500951493