19

 O   -0.0018127758    1.3376963896    0.2126354909
 C    0.0260572110   -0.0442247958    0.0518026711
 C    0.3551014874   -0.8988365991    1.3262424240
 C   -0.9227049407   -1.7536486914    1.1099719039
 C   -2.1479172995   -1.2855484397    1.9304914024
 C   -2.4566368722   -0.2051308765    0.8473008060
 C   -1.3451163228   -0.7971903427   -0.0618221750
 C    0.9118296598   -0.4092914610   -1.1119890378
 O    1.4452770430    0.4276817818   -1.8017315190
 H    0.5079085818    1.7035011938   -0.5286842392
 H    1.3047577975   -1.4399624522    1.2910205900
 H    0.3418137621   -0.2823064936    2.2282338807
 H   -0.7673182825   -2.8250498946    0.9812068127
 H   -2.9281719191   -2.0486879617    1.9926900232
 H   -1.9386660190   -0.9262870300    2.9426202956
 H   -3.4597793958   -0.2630288605    0.4206921582
 H   -2.2669365696    0.8280986824    1.1431990507
 H   -1.6521628357   -1.1382352859   -1.0526037060
 H    1.0382812900   -1.4934195132   -1.3111213226