21

 C    0.0427685774    1.5483058126    0.1190811452
 C    0.0028341945    0.0288264574    0.0983292769
 O    0.8020630341   -0.4149521314   -0.9861529270
 C    0.7223999456   -1.7884827182   -1.3021949672
 C    1.2105453396   -2.6962348229   -0.1753211952
 C   -0.6413219490   -2.2507644667   -1.9388805630
 C    0.1644204244   -2.7495034813   -3.1467012253
 O   -0.0872069863   -3.4713280558   -4.0674981244
 C    1.4382557786   -2.0487317291   -2.6614368279
 H    1.0718565087    1.9014910363    0.2305638074
 H   -0.3595416491    1.9573555405   -0.8119638063
 H   -0.5489443694    1.9339626205    0.9546481625
 H    0.3781780811   -0.3729742687    1.0510912928
 H   -1.0332217177   -0.3270694875   -0.0197544548
 H    0.5529426655   -2.6506610875    0.6977231472
 H    1.2404277382   -3.7381827412   -0.5092539646
 H    2.2196734511   -2.4059116215    0.1333743259
 H   -1.2473486100   -2.9931656617   -1.4136646814
 H   -1.2699203232   -1.3966285448   -2.2116264233
 H    1.6111116542   -1.1088395430   -3.1950904363
 H    2.3587554817   -2.6372718761   -2.6574934614