15

 C    0.0369313057   -1.1716719935    0.4342921175
 C   -0.0036782070    0.0015277884    0.1800083990
 C   -0.0210113191    1.4306328695   -0.1472956219
 N   -0.8098090186    2.2317421702    0.8145989484
 C    0.1385752756    2.9342183999    1.6992795851
 C    1.4685175752    2.8584721183    0.9943589440
 C    1.3955057497    2.0293547381   -0.0502450049
 C    2.4421873990    1.6708333078   -0.9363390235
 N    3.2709918493    1.3712074414   -1.6883105381
 H    0.0661907692   -2.2089510631    0.6612555934
 H   -0.4338870147    1.5491124534   -1.1559509922
 H   -1.3389407252    2.9182601776    0.2915478105
 H   -0.1894197272    3.9625942853    1.8862150567
 H    0.2041535539    2.4429214480    2.6817641989
 H    2.3620337342    3.3710384290    1.3278595671