20

 C    0.1625641683    1.5133441875    0.0061542690
 C   -0.1295062004    0.0283288899    0.0069369723
 C   -0.9610317028   -0.5945954377    1.0836566774
 N    0.4900903265   -0.7275458675    1.1050260730
 C    1.1742693281   -1.9583739953    0.7979425047
 C    0.5708755241   -3.1309272932    0.0258747907
 C    1.5517246865   -2.1979143833   -0.6395846455
 O    1.1562964747   -1.2726883727   -1.6109297800
 C   -0.0991325595   -0.6495295985   -1.3596246444
 H    1.1200931392    1.7137744903   -0.4870537702
 H   -0.6173975385    2.0675689596   -0.5289673581
 H    0.2217871827    1.8933624776    1.0288866834
 H   -1.3776954647    0.0203487266    1.8778469468
 H   -1.5654881680   -1.4617974852    0.8235036851
 H    1.9001774538   -2.2178761952    1.5626781409
 H    0.9179757403   -4.1246223520    0.2873515258
 H   -0.4734386332   -3.0966687892   -0.2582558310
 H    2.5446976712   -2.5603230117   -0.8798234709
 H   -0.9130980316   -1.3790588642   -1.4702237134
 H   -0.2135779267    0.0921114643   -2.1538186456