17

 C   -0.0419911835    1.5606659151    0.0490901054
 C    0.0009752485    0.0226899846    0.0040556860
 C    0.7019302944   -0.4976660986   -1.2275887565
 C    0.0105743036   -0.7408861397   -2.4160921713
 C    0.7068072729   -1.1890004254   -3.5341771587
 N    2.0243098079   -1.4096252867   -3.5526809990
 C    2.6838666696   -1.1770769013   -2.4144469611
 C    2.0788537302   -0.7284731493   -1.2445963734
 H    0.9684914399    1.9808937769    0.0477675438
 H   -0.5705168353    1.9634715525   -0.8204539183
 H   -0.5548116569    1.9082033837    0.9510381089
 H    0.5105972121   -0.3520097876    0.8988333193
 H   -1.0218158578   -0.3694626194    0.0341217342
 H   -1.0631202127   -0.5881636681   -2.4712402922
 H    0.1761681673   -1.3846536523   -4.4635488981
 H    3.7555771768   -1.3629752769   -2.4362743927
 H    2.6768565531   -0.5656619675   -0.3529335963