17

 C   -0.2251290316    1.3913418162    0.3361526481
 C    0.0690937557   -0.0344387785   -0.0633003470
 O    1.0990389508   -0.4235429545   -0.5485481067
 O   -1.0038640508   -0.8249284811    0.2017788323
 C   -0.8529492785   -2.2458212899   -0.0405227820
 O   -0.4825241181   -2.9012235500    1.1412481198
 C   -1.5916057144   -3.6321998974    1.6658486449
 C   -2.6352204023   -3.5704808324    0.5882337408
 C   -2.2040262313   -2.7954214421   -0.3994781361
 H    0.5975322461    2.0340598982    0.0250042510
 H   -1.1625982388    1.7264875460   -0.1151861508
 H   -0.3484475926    1.4485870354    1.4218748167
 H   -0.0588071363   -2.3610059100   -0.7804877994
 H   -1.2589075192   -4.6551770800    1.8850160367
 H   -1.9421266965   -3.1876695733    2.6096971742
 H   -3.5863085715   -4.0828211153    0.6521907318
 H   -2.7185193907   -2.5305758113   -1.3126874544