19

 O   -0.0091794476    0.1737839126   -0.5877657908
 C   -0.0192939770    1.3120474444   -0.2169956029
 C   -1.1292421252    2.2971005951    0.1918604852
 C   -0.0272031765    3.0943520652    0.9564085228
 C    1.0747198176    2.3262866420    0.1623845516
 C    1.6064859132    3.0818958372   -1.0605373753
 C    0.5937336859    3.6872708651   -1.9978105575
 C   -0.7423955369    3.6695774732   -1.9799402986
 C   -1.7133396644    3.0379320774   -1.0161360269
 H   -1.9370772171    1.8661590579    0.7896043882
 H   -0.0433347976    4.1778090297    0.8229959946
 H   -0.0098434151    2.8604399173    2.0228354167
 H    1.9093775089    1.9170978808    0.7381595907
 H    2.2747078247    3.8835751138   -0.7133721840
 H    2.2475396214    2.4012896953   -1.6382813891
 H    1.0568094811    4.2274443020   -2.8225221128
 H   -1.2414972876    4.1970094623   -2.7917829939
 H   -2.3513674394    2.3403867522   -1.5767730199
 H   -2.3930315684    3.8217602967   -0.6509428380