20

 C    0.0339686749    1.5694206382    0.0128617307
 C   -0.0384443409    0.0350085871    0.0069343688
 O   -1.3987764074   -0.3813822054   -0.1482733078
 C    0.7098134224   -0.5269375098   -1.2084133623
 C    0.5044613828   -2.0184691342   -1.4206985534
 O    1.1574167997   -2.8819111941   -0.4799835620
 C    0.8374352449   -2.8492586326    0.8397094982
 N    0.5337457208   -1.9148311672    1.6281325255
 C    0.5455421042   -0.4967922105    1.3324381548
 H    1.0692933074    1.9251347537    0.0394653020
 H   -0.4480580445    1.9668227288   -0.8843527549
 H   -0.4850215076    1.9802162157    0.8861505164
 H   -1.8602742497   -0.2099102930    0.6792524547
 H    0.3415709097   -0.0216088055   -2.1095101812
 H    1.7780956005   -0.2994620024   -1.1211482563
 H   -0.5666885300   -2.2400005803   -1.4137360202
 H    0.9205719112   -2.3195271284   -2.3850439235
 H    0.9255710175   -3.8596568470    1.2434840277
 H    1.5847462801   -0.1443531000    1.4110106994
 H    0.0063908440    0.0017542071    2.1502260634