17

 O   -0.1746827457    0.3820369767   -0.7430219538
 C    0.1759113500    1.1032127135    0.1617158487
 C    1.4041375051    1.9289332245    0.1511763697
 C    1.8398651729    2.7154981976    1.3841637487
 O    2.4622607931    3.9047429726    0.8869617762
 C    2.7903814670    3.6491222007   -0.4670839709
 C    3.7311157562    2.4040981762   -0.6260952937
 C    2.4756042144    1.5679024378   -0.8867754364
 C    1.6428816839    2.8049725466   -1.0734067189
 H   -0.4385149161    1.1992311158    1.0854322506
 H    0.9844064239    3.0009370757    2.0081448870
 H    2.5446460019    2.1520688171    2.0102395622
 H    3.0897954763    4.5845493616   -0.9366962186
 H    4.3457411059    2.4787566712   -1.5268776577
 H    4.3671700484    2.1605962824    0.2301328606
 H    2.3943959575    0.6250864034   -1.4126918095
 H    0.8723595753    3.0564585568   -1.7889245241