16

 O   -0.1057720918    0.0311230412    0.1938049189
 C   -0.0268864059    1.2182627612    0.0396017068
 N   -0.9855218882    2.2170555028   -0.0480261788
 C   -0.0349079583    3.3219423999   -0.0815886637
 C    0.4319859192    3.8348869111    1.3350247683
 C    1.5964071802    2.7789167370    1.3031750435
 C    1.1089691326    2.2591319243   -0.0794227538
 C    0.8478656074    5.2204062758    1.3824495832
 C    1.2007678052    6.3703112010    1.3835040565
 H   -1.9553932462    2.1985471598    0.2390511234
 H   -0.1932071577    4.0678103437   -0.8593223221
 H   -0.3199785235    3.6369958045    2.1046342293
 H    2.5738072587    3.2586801297    1.2502818892
 H    1.6026823744    2.0459327676    2.1116832045
 H    1.8333565078    2.1330570601   -0.8806815826
 H    1.5074410763    7.3868609602    1.4008252175