12

 C    0.0124243057    1.4993421387    0.0374202750
 C    0.0277784975    0.0065666317   -0.0288981041
 C   -0.1409468436   -0.8036621126   -1.1226441398
 N   -0.0387001948   -2.0954273674   -0.6485884606
 C    0.1841786010   -2.0112150830    0.6920029293
 N    0.2302272436   -0.7648823277    1.0990242066
 H    0.9626545896    1.8865050452    0.4207498428
 H   -0.1605571392    1.9359461193   -0.9500893396
 H   -0.7740553877    1.8557245343    0.7113701151
 H   -0.3188525548   -0.5915778791   -2.1638940933
 H   -0.1149362584   -2.9376299530   -1.1929350096
 H    0.3034559010   -2.8872016464    1.3123989982