19

 C    0.4655491131    1.3883740131   -0.0154116746
 O    0.6036370588   -0.0092753727   -0.0889902028
 C   -0.1169432034   -0.5690732372   -1.1690688799
 C    0.1025640518   -2.0566407026   -1.1517467885
 C   -0.1707526294   -2.9353710270   -2.3553331225
 O   -0.2890647954   -2.2801355456   -3.6016750042
 C    1.0421681820   -2.1211196562   -4.0619647154
 O    1.8549927183   -1.9479217716   -2.9152700843
 C    1.2414268182   -2.7191172951   -1.9049778585
 H    0.8432959589    1.8861486421   -0.9228655178
 H   -0.5850182946    1.6906108188    0.1263297108
 H    1.0490028234    1.7306952665    0.8428365664
 H   -1.1928711840   -0.3458860227   -1.0672799521
 H    0.2172781137   -0.1404006473   -2.1233267815
 H   -0.1291939276   -2.5236150542   -0.1971944050
 H   -0.7181445669   -3.8682809427   -2.2741942104
 H    1.3607557130   -3.0127155733   -4.6289217464
 H    1.1027295016   -1.2246630721   -4.6848643667
 H    1.8759007984   -3.4705970305   -1.4485027465