13

 O   -0.0813725726    1.4494095257    0.0236457181
 C    0.0105677369    0.0355788079    0.0208586891
 C    0.6735698627   -0.5073850828   -1.2757560087
 C   -0.0436957531   -0.1156721863   -2.4800884589
 C   -0.6490958739    0.1990047044   -3.4688670673
 C    0.7206758616   -0.4717446995    1.1993884525
 C    1.3467210955   -0.8645074923    2.1474743161
 H    0.8056049307    1.8026769507    0.1565292559
 H   -1.0273982169   -0.3144152995    0.0418444588
 H    1.7091947972   -0.1455571801   -1.3113399668
 H    0.7314744476   -1.6001096819   -1.2049586904
 H   -1.1797636602    0.4810963500   -4.3441956578
 H    1.8776939244   -1.2149522964    2.9982878794