16

 O    0.1809488168    1.3519305041    0.2879467399
 C    0.0312817244   -0.0214070545    0.0412201370
 C   -0.6729089560   -0.8671412200    1.0804789758
 C   -1.3840648213   -0.4781819589   -0.1919870729
 C    1.1284859783   -0.6080959901   -0.7533465404
 C    2.1823993921    0.0186295721   -1.3329962889
 O    2.9451922215   -0.9302737031   -1.9660625578
 C    2.2962942432   -2.0877278802   -1.7298628226
 N    1.2214190533   -1.9733139815   -1.0217377139
 H    0.8593065520    1.4531642370    0.9656212212
 H   -0.3477609235   -1.8946793020    1.1921420695
 H   -0.9637495674   -0.3575609486    1.9924162304
 H   -2.1430087241    0.2930977318   -0.1325791882
 H   -1.5439391007   -1.2427030679   -0.9429056433
 H    2.5113246949    1.0387466782   -1.4096457393
 H    2.7299351067   -2.9837533665   -2.1459353263