17

 C   -0.3227052121    1.5097637593   -0.0751581364
 C    0.1028586934    0.0610346581   -0.0292561408
 O    1.3824013718   -0.1538937442   -0.7412772477
 C    1.9460821806   -0.7585849282    0.3400664896
 O    3.0272048041   -1.2483648571    0.4371096721
 C    0.7232469286   -0.5747658130    1.2543708140
 C    0.9680267557    0.3409279210    2.4536053378
 N    0.1438524860   -1.8727168987    1.5895033231
 H    0.4534273129    2.1743566051    0.3120498320
 H   -0.5378722116    1.8042291916   -1.1064584810
 H   -1.2339979185    1.6554643336    0.5143095347
 H   -0.6505030910   -0.6008424050   -0.4621488773
 H    1.4319040622    1.2914351038    2.1757414225
 H    0.0236820158    0.5604337998    2.9649622426
 H    1.6334752986   -0.1602981559    3.1627463535
 H    0.8702564130   -2.4707619985    1.9746807847
 H   -0.5587987394   -1.7666628816    2.3166282167