20

 O   -0.0071343882    1.3632573680   -0.2669592900
 C    0.0187612538   -0.0277512759    0.0214513490
 C   -1.4103719738   -0.5236443894    0.0667736353
 C   -2.2071782956   -0.5627443838   -1.2719613186
 C   -2.6687224146   -1.9794079111   -0.9034639440
 C   -4.0958344199   -2.4341637319   -0.8001176788
 C   -3.1584230763   -3.0725457558   -1.8025505622
 C   -1.6280836588   -2.0588965453    0.2229488516
 H    0.9001515829    1.6750034729   -0.3319725168
 H    0.5747269520   -0.5846726965   -0.7519169692
 H    0.5133558932   -0.2278815166    0.9869966156
 H   -1.9570889412    0.0363374086    0.8309528224
 H   -2.9828436348    0.1950729981   -1.4068519927
 H   -1.5450231193   -0.5404893945   -2.1447454696
 H   -4.3877097806   -3.0171758114    0.0681757570
 H   -4.8724794526   -1.7744839529   -1.1750520752
 H   -3.3027062682   -2.8445295972   -2.8542795309
 H   -2.8192831281   -4.0860823935   -1.6106853320
 H   -0.7393859205   -2.6355071417   -0.0606013791
 H   -1.9737902792   -2.4127548202    1.1982138483