23

 C   -0.1993551684    1.5271941445   -0.1557422714
 C   -0.0268571695    0.0179777807   -0.0313854868
 C    1.1746366320   -0.5441639662   -0.8795197518
 C    1.9717279327   -0.5469027221    0.4068613939
 C    3.2028570820   -0.2601372586    0.8078713418
 C    3.4868290277    0.0025119089    2.2702137311
 C    2.2534183224   -0.1914411296    3.1810524213
 C    0.9430199006    0.3159979638    2.5415319100
 C    0.7255709870   -0.4833019169    1.2603142547
 H    0.7540327933    2.0496663210   -0.0203720899
 H   -0.5822436070    1.7905383115   -1.1476638883
 H   -0.9037595833    1.9150612977    0.5878325424
 H   -0.9833277355   -0.4817591919   -0.2107585790
 H    0.9679785840   -1.5499602294   -1.2623321479
 H    1.5387874354    0.0752725549   -1.7049867693
 H    4.0219087119   -0.1408280302    0.1013345161
 H    4.3060866925   -0.6369874576    2.6253925980
 H    3.8639386326    1.0316509675    2.3700574767
 H    2.1366808380   -1.2599295989    3.4032919259
 H    2.4290988138    0.3064342757    4.1406760318
 H    0.1098916388    0.2084866961    3.2452035410
 H    1.0360171757    1.3843569096    2.3126398406
 H    0.3595128233   -1.4888801505    1.5092001191