15

 C    0.0642408670    1.4411723484   -0.1309030937
 O    0.0290395693    0.0095919449   -0.0491633358
 C    0.5921307295   -0.6715546616   -1.0339082181
 C    0.6975224465   -2.0327680864   -1.2021020647
 C    1.3914929621   -2.1940054909   -2.4247263172
 C    1.6638602402   -0.9423170789   -2.9209600115
 O    1.1587707689    0.0031282035   -2.0423075608
 C    2.3378167069   -0.5036141587   -4.1154807586
 O    2.5214774445    0.6482119097   -4.4536975693
 H    1.0956142096    1.8037550622   -0.1483963865
 H   -0.4558196702    1.7917365888   -1.0265394791
 H   -0.4454621157    1.7945252424    0.7647427538
 H    0.3229311927   -2.7869196818   -0.5313912142
 H    1.6665225546   -3.1247585087   -2.8980423838
 H    2.6927921441   -1.3614583530   -4.7299280806