19

 O    0.0774807345    1.4277378280    0.3053671258
 C    0.0402754968    0.0400456584    0.0334871557
 C   -1.3850249450   -0.4511017527   -0.1058427770
 C   -2.4218361434    0.4299366504   -0.0867568120
 C   -3.8269696524    0.0948569843   -0.0753465212
 C   -4.3881657860   -0.9811985247   -0.6564388703
 C   -3.5925856546   -1.9101083056   -1.5395790506
 C   -2.5441184985   -2.5794753329   -0.6894224897
 C   -1.5385360955   -1.8942321786   -0.1167694179
 H    0.9884117036    1.7228434196    0.2268793261
 H    0.5892986596   -0.1940541891   -0.8947181037
 H    0.5330310553   -0.5355902494    0.8365896872
 H   -2.1655865894    1.4747906082    0.0556838056
 H   -4.4723769290    0.7858667611    0.4638948453
 H   -5.4434001814   -1.1891967674   -0.5023478495
 H   -4.2396713847   -2.6491109832   -2.0176956393
 H   -3.1049073774   -1.3298939821   -2.3359984050
 H   -2.6109050992   -3.6534173923   -0.5361806861
 H   -0.7688099534   -2.4578570920    0.4094171465