17

 C   -0.1783365749    1.4318653395   -0.0192814640
 N   -0.0749158216   -0.0302811946    0.0020544303
 C    0.0553539841   -0.6692547164   -1.2393017825
 N    0.1963320950    0.0190589484   -2.2942206103
 O    0.0410060310   -2.0263968396   -1.2493942048
 C   -0.4885846527   -2.7012549062   -0.1035707659
 C    0.1870321838   -2.1794082478    1.1488764469
 C    0.0390231812   -0.6724546623    1.2320918622
 O    0.0172216109   -0.0703523118    2.2833949110
 H    0.7391088347    1.8710619548   -0.4170924596
 H   -1.0053202991    1.7291978106   -0.6652270127
 H   -0.3433907449    1.7592441991    1.0046025191
 H    0.2333287419   -0.5989837587   -3.1026377570
 H   -1.5753181530   -2.5512745367   -0.0588708105
 H   -0.2926046000   -3.7613504929   -0.2732746316
 H   -0.2372877751   -2.6092271750    2.0583980989
 H    1.2555996188   -2.4243083207    1.1282111106