15

 O    0.1084565722   -0.0377532829   -0.0780380286
 C    0.6531780493    0.8878619520   -0.6140328817
 C    0.9355848580    2.2047895105    0.0902094440
 O    1.1592093807    3.2359954126   -0.8790136070
 C    2.4082923692    3.7509096732   -0.9555140113
 O    3.3364424261    3.3992127985   -0.2738900245
 C    2.4875629239    4.8264283725   -2.0151786734
 C    3.7597406302    4.7026773670   -2.8485868793
 O    3.8027875714    4.9528835690   -4.0220927563
 H    1.0071176140    0.8495397885   -1.6685341465
 H    0.0789369669    2.4917188076    0.7043814638
 H    1.8215728906    2.0933904383    0.7242313576
 H    1.6079029918    4.8473825840   -2.6582812040
 H    2.5513070489    5.7880560702   -1.4861004780
 H    4.6499849968    4.3742515191   -2.2748605247