19

 C   -0.0698416446    1.3978395072    0.0071982845
 O   -0.0220441780   -0.0182916721   -0.0166097126
 C    0.5829999911   -0.5360409762   -1.1419920430
 C    0.0336605608   -0.4668947249   -2.5803186259
 C    1.0749102774   -1.5903371979   -2.7852011892
 O    2.3225442060   -0.8856217141   -2.6539944873
 C    2.1869694665   -0.5403629257   -1.2693728351
 C    2.1965778448   -1.9190649435   -0.5718518861
 C    0.8468678868   -2.0701254186   -1.2878565264
 H    0.9354927219    1.8400737602   -0.0307252392
 H   -0.6576432436    1.7956991775   -0.8315644609
 H   -0.5496088644    1.6847663014    0.9451823278
 H   -0.9958307820   -0.8342963952   -2.6095003697
 H    0.1551153520    0.4321805688   -3.1887394082
 H    1.0823896598   -2.2567571059   -3.6444075112
 H    2.8378672283    0.2896195376   -0.9995291795
 H    3.0249561661   -2.5875548692   -0.8165607125
 H    2.0531814896   -1.8423721584    0.5082838464
 H    0.0979988415   -2.8335546410   -1.0868658620