13

 N   -0.0914593482    1.3103313743   -0.1721553675
 C   -0.0446908913    0.0376390208   -0.0535969827
 N    1.1714181826   -0.6862037058   -0.1208074664
 N    1.5535498426   -1.8884924240    0.4490483722
 N    0.8213912361   -2.8908293595    0.4595190976
 C   -0.4768613938   -2.9924497388   -0.1619889721
 O   -0.6949770349   -3.9687139453   -0.8334526791
 C   -1.5153451001   -1.9887720570    0.1405555811
 C   -1.3081867585   -0.6690347923    0.1625720127
 H    0.8289220906    1.7286289660   -0.3198552866
 H    1.9816522272   -0.0803158440   -0.1081520382
 H   -2.5200744224   -2.3879111807    0.2367780475
 H   -2.1397730399    0.0142615362    0.2919275215