17

 O    0.6153607969    1.1445572202    1.3235489100
 C    0.6391539062    1.8406491207    0.3456744716
 C    1.2469021818    1.3902918825   -0.9816320239
 N    1.4295250090    2.4995297254   -1.8964716878
 C    2.3818507206    3.4289751367   -1.6009159240
 N    2.9856953885    3.5477624240   -0.4831604393
 C    3.8333493724    4.7369269700   -0.6089080068
 C    3.6748707663    5.1783817111   -2.0910843013
 O    2.6452835697    4.3037120132   -2.6078594303
 H    0.1805296006    2.8526066534    0.3172032853
 H    2.1788047177    0.8534719569   -0.7645347561
 H    0.5453455849    0.6826738313   -1.4369974219
 H    1.2684159569    2.3439350985   -2.8780502824
 H    3.5052770716    5.5177313531    0.0880588899
 H    4.8734202299    4.5002217434   -0.3611129736
 H    3.3377732571    6.2104030165   -2.2140004488
 H    4.5808735899    5.0266930031   -2.6856937907