21

 C   -0.0114850606    1.5407677729   -0.0136241503
 C   -0.0158419445    0.0038774548    0.0235060014
 C    0.7578652088   -0.5268756232    1.2414003113
 C   -1.4315316233   -0.5215285178    0.0254916944
 C   -2.5830343947   -0.2711906159   -1.0219022105
 C   -3.2693358173   -1.1988535789    0.0351576667
 C   -1.9345284132   -2.0156917111    0.0284551340
 C   -2.5528432991   -0.3132214925    1.0635951742
 O   -2.7461673585    0.2411953408    2.1032929294
 H    1.0134204070    1.9244736091   -0.0253018187
 H   -0.5217931777    1.9219117002   -0.9037852622
 H   -0.5167952444    1.9499740359    0.8673953103
 H    0.4806216439   -0.3635340578   -0.8861797867
 H    0.7943901306   -1.6208159378    1.2477705820
 H    1.7881229951   -0.1575951015    1.2359537598
 H    0.2848270126   -0.1986227042    2.1727756922
 H   -2.9644782155    0.7460136461   -1.1277503848
 H   -2.4133841631   -0.7458141508   -1.9919864574
 H   -4.2865880688   -1.5818675947    0.0271283516
 H   -1.7416441016   -2.5521907253   -0.9043526363
 H   -1.7103548360   -2.6280326683    0.9037931395