17

 C   -1.7946472762    1.5129939591    0.0672703346
 C   -1.0195839001    2.4232025834   -0.0584331368
 C   -0.0508552095    3.5075821314   -0.2005104849
 C    1.3887285022    3.0038448504   -0.1750841325
 C    2.4865590756    3.8290810434    0.4062957185
 N    2.0713718004    2.5838791774    1.0471133466
 C    1.4030258505    2.5769481714    2.3460147611
 C    0.8923209128    3.8660872045    2.8461765842
 N    0.5287945573    4.9001930850    3.2148283281
 H   -2.4932908336    0.7199659909    0.1714980744
 H   -0.2127748029    4.0200682846   -1.1576568172
 H   -0.2185113645    4.2594519396    0.5771197735
 H    1.6228784743    2.3537993276   -1.0162318707
 H    3.4819582674    3.8227469261   -0.0290578239
 H    2.1989454009    4.7676149678    0.8770625067
 H    0.5736090279    1.8633342963    2.3085845432
 H    2.1186948173    2.2050407311    3.0882781252