17

 C    0.0553853623    1.4205965492    0.0598362599
 C    0.0331399233   -0.0330944945    0.0288295878
 C    0.0257950887   -1.2386323265    0.0034904265
 C   -0.0231704696   -2.6550075158   -0.0274919195
 N    1.0937292818   -3.4008258404    0.0005923245
 N    0.6614653201   -4.6706803111   -0.0493044722
 C    1.6230999130   -5.7509530451   -0.0020066659
 C   -0.6919988172   -4.7615167039   -0.1043200367
 C   -1.1788383957   -3.4750866719   -0.0934997222
 H    1.0801047324    1.7965410077    0.1535307567
 H   -0.3718146789    1.8470090176   -0.8550527518
 H   -0.5199131959    1.8113526634    0.9069501516
 H    2.1011366959   -5.7997989042    0.9809007220
 H    1.1084880492   -6.6926920432   -0.1997910520
 H    2.3930240459   -5.5914508055   -0.7601081391
 H   -1.1893050668   -5.7177313062   -0.1474091118
 H   -2.2071545986   -3.1573216296   -0.1327629879