19

 C   -0.0093956982    1.2954649597   -0.1490435734
 O   -0.0355005802   -0.0627465817    0.2280519098
 C   -1.3109991026   -0.6542830065    0.1430469617
 C   -1.7406156565   -1.0448883639   -1.3238652658
 C   -1.8007519610   -2.5792750374   -1.1784425358
 C   -2.5441482691   -2.7173800355    0.1936549937
 C   -1.2608419472   -2.0469650828    0.7910437079
 C   -0.5471896704   -2.8487316728   -0.3192883356
 O    0.4224427391   -3.5387154044   -0.4010794688
 H    1.0154625909    1.6481293667   -0.0136937177
 H   -0.2958975418    1.4420084169   -1.2011427419
 H   -0.6811882388    1.9019668484    0.4784564200
 H   -2.0571226465   -0.0077927013    0.6286803965
 H   -2.7094728912   -0.6256210415   -1.6088081194
 H   -0.9901601247   -0.7158692734   -2.0471831351
 H   -2.0478227552   -3.1799702008   -2.0510117868
 H   -3.4764161004   -2.1558235449    0.2937559212
 H   -2.6774638496   -3.7492674463    0.5208625264
 H   -0.9824918465   -2.1054895683    1.8401890732