14

 N    0.0927216635    1.4371055487    0.1486983352
 C   -0.0078319667    0.0487872737    0.0405552263
 C   -1.1558308274   -0.6724935980    0.0184294601
 O   -2.3771867684   -0.0932103656    0.0247954178
 C   -1.1327784868   -2.1299330612   -0.0200517933
 O   -2.2063761087   -2.7283782618   -0.0435247141
 N    0.1079318909   -2.7647857265   -0.0515095059
 C    1.1679187519   -2.0273659187   -0.0239126758
 N    1.1776492476   -0.6681581979    0.0208744313
 H    0.6176021198    1.8657022322   -0.6071145974
 H   -0.8296343668    1.8536648960    0.1940104618
 H   -2.9782991468   -0.8658428599    0.0026600909
 H    2.1523967035   -2.4898435380   -0.0371501508
 H    2.0456290343   -0.1703260730    0.1481807039