19

 C    0.1773785311    1.6002911571   -0.1174757258
 C    0.1459638946    0.0865363397   -0.0022217833
 O    0.7436796684   -0.4734919985   -1.1694978728
 C    0.8879787641   -1.8630028232   -1.0819358860
 O    1.7789066508   -2.2388791445   -0.0699110429
 C    1.3054471787   -1.8907450155    1.2293456732
 C    2.3981305223   -2.1867839270    2.2413378596
 C    0.8240921950   -0.4314632349    1.2765481285
 O    0.8973785786    0.2364295181    2.2798532925
 H    1.2089020713    1.9489331302   -0.2135095330
 H   -0.3833427617    1.9182775216   -0.9993926753
 H   -0.2591031409    2.0516248840    0.7747713281
 H   -0.9039167601   -0.2617734103    0.0639202306
 H   -0.0987241696   -2.3393511271   -0.9177629924
 H    1.3166541659   -2.2004291195   -2.0272584830
 H    0.4087148526   -2.5002202137    1.4581577919
 H    3.2966275939   -1.6112892849    2.0040122908
 H    2.0642741478   -1.9104661270    3.2425928627
 H    2.6474258646   -3.2501223801    2.2197879338