18

 C   -0.2780239164    1.3075856168   -0.0534216158
 C    0.1305566192   -0.1562696217    0.0889300277
 C    0.9369206625   -0.7045679733   -1.1003952304
 O    1.7957820384   -1.7294775099   -0.5939361066
 C    1.7111322499   -1.7901186163    0.8122999045
 C    1.0770784157   -0.4574389509    1.2654556252
 C    0.8526326214   -2.9583890807    1.2849988014
 O    0.0892258880   -3.5750772339    0.5915163607
 H    0.6018268888    1.9530573245   -0.1554231477
 H   -0.9070371024    1.4581135336   -0.9370508418
 H   -0.8463870493    1.6485186259    0.8176095721
 H   -0.7685961068   -0.7722626329    0.2062891009
 H    0.2975635756   -1.1302927033   -1.8807079607
 H    1.5551794642    0.0843129766   -1.5543368913
 H    2.7188240988   -1.9280069950    1.2289641510
 H    1.8525789437    0.3115649205    1.3476316876
 H    0.5645504726   -0.5241123288    2.2295116210
 H    0.9696448460   -3.1848991014    2.3728929325