19

 O    0.0928954189    1.3334491576    0.4930607392
 C   -0.0102901186   -0.0489612970    0.2311392164
 C   -1.4102707006   -0.5506558418   -0.0753847984
 C   -2.4604476620    0.2690696070   -0.0295729513
 C   -3.9140654008   -0.0557295334   -0.2646721548
 O   -4.2044530151   -1.0107600292   -1.2701074005
 C   -3.7292263384   -2.3020163097   -1.0323356362
 O   -2.3752339663   -2.4726589021   -1.3455870258
 C   -1.4640557756   -2.0396207518   -0.3552621344
 H   -0.1375725304    1.7996612216   -0.3177409835
 H    0.6596433882   -0.3510431670   -0.5925440518
 H    0.3729354154   -0.5519014248    1.1298863811
 H   -2.2728203084    1.2970322472    0.2733387353
 H   -4.3710917510   -0.3734107119    0.6913645735
 H   -4.4412544879    0.8517340149   -0.5744995240
 H   -3.9175108010   -2.5959316177    0.0181955858
 H   -4.2803811341   -2.9577938582   -1.7105157048
 H   -0.4821636467   -2.3850186375   -0.6977198497
 H   -1.6687464153   -2.5663933263    0.5950956840