21

 C   -0.2416449069    1.5071870672   -0.0629434024
 C    0.0271795038    0.0120816972    0.0012629169
 C    1.2588753295   -0.6425260602   -0.7025038377
 C    2.1632180641   -0.0744022465    0.4290341984
 C    0.8990115102   -0.6535199958    1.1455864787
 C    1.0226020682   -1.8833665063    0.2069060647
 C    0.5705512047   -0.6833586278    2.6109497543
 C    0.8342002593    0.5887617125    3.3964676910
 O    0.1087478988   -1.6772095175    3.1277187855
 H    0.6425423159    2.1220052866    0.1221587030
 H   -0.6250727472    1.7740858075   -1.0542370331
 H   -1.0079719421    1.7949167292    0.6654298198
 H   -0.9057421693   -0.5370763062   -0.1691588984
 H    1.4741659157   -0.6454733054   -1.7720821209
 H    3.0974958128   -0.6106455902    0.6166490074
 H    2.3228107697    1.0037835790    0.4619906778
 H    0.1104990069   -2.4588867757    0.0353311748
 H    1.8832988147   -2.5329048471    0.3820994657
 H    0.3447865045    1.4462074931    2.9215207339
 H    0.4753037886    0.4737041518    4.4200438375
 H    1.9087021781    0.8054179045    3.4066037230