25

 C   -1.7245549494    1.6059167098   -1.3319465429
 C   -1.8848139319    0.0850637722   -1.3395497118
 O   -1.1693986572   -0.4977103971   -2.4313000887
 C   -1.4858863702   -0.5435455610    0.0030060616
 C   -1.5573746179   -2.0816554044    0.0592395498
 C   -0.9805213766   -2.5951639285    1.3874186258
 C   -2.9665990148   -2.6093007179   -0.1531664751
 C   -3.5058801903   -2.8634771659   -1.5400157063
 C   -3.1775676614   -4.0236775630   -0.6343969416
 H   -2.0038063597    2.0221893638   -2.3036738020
 H   -2.3514979143    2.0672251999   -0.5617966429
 H   -0.6839827615    1.8875190026   -1.1252568249
 H   -2.9311021580   -0.1588883655   -1.5497082367
 H   -0.2341052389   -0.3006805840   -2.3056445523
 H   -0.4587775359   -0.2277737127    0.2428667426
 H   -2.1213833302   -0.1172960261    0.7918809608
 H   -0.9356562307   -2.4661294093   -0.7595697198
 H   -0.9895260889   -3.6887133422    1.4228018291
 H    0.0518602965   -2.2584361641    1.5320814150
 H   -1.5690183290   -2.2313454776    2.2384289527
 H   -3.6876578644   -2.2511294917    0.5803793153
 H   -4.5505377924   -2.6471309527   -1.7375119639
 H   -2.8419814029   -2.6629941287   -2.3736134682
 H   -2.2965763287   -4.6134888380   -0.8684046464
 H   -3.9950066812   -4.5993946581   -0.2142382795