15

 C   -0.0239367056    1.5159845237   -0.0667745510
 C    1.5334411131    1.3346402218    0.0014454511
 C    1.1374699179    0.1573520029    0.9606914564
 N   -0.1064287420   -0.0312014503    0.0490173785
 C    0.6276096177   -0.3243951022   -1.1684316171
 C    1.7019383764    0.5125079858   -1.2761350186
 N    2.3838049839    0.2412920111   -2.4057862581
 N    1.7649301473   -0.7498684297   -3.0167830476
 N    0.6754921780   -1.1027567851   -2.2521594649
 H   -0.4707377655    1.9697498019    0.8218431416
 H   -0.4628918849    1.9205249981   -0.9802142283
 H    2.2253928223    2.1291916110    0.2699436906
 H    1.7903748637   -0.7153822798    1.0131972538
 H    0.8122047140    0.4689504214    1.9568261801
 H    0.0802798837   -1.8510192605   -2.5689067564