18

 O   -0.1426266289    1.3394236683   -0.4853395956
 C   -0.0138305309    0.0661237415    0.1278634877
 C   -1.3715839990   -0.5890797444    0.0505803291
 C   -1.8092781603   -1.3634297604   -1.1548212296
 C   -1.5549476903   -2.1022681206    0.1514344931
 C   -0.3812711450   -3.0773640878    0.2582100705
 O   -0.6930018011   -4.3502003872   -0.2660490138
 C   -2.7073665718   -2.5639953551    0.8863204411
 N   -3.6027199828   -2.9853648985    1.4871639828
 H    0.6820245923    1.8186590795   -0.3600568809
 H    0.7442553143   -0.5444936731   -0.3847171454
 H    0.2940908271    0.1594535422    1.1809852390
 H   -2.1440580690   -0.0074457885    0.5443381891
 H   -2.8316412096   -1.2635902750   -1.4979128810
 H   -1.0805528401   -1.5411120298   -1.9386820638
 H    0.4576587331   -2.7060438733   -0.3345597955
 H   -0.0512231377   -3.1404121218    1.3058216077
 H   -1.3885110903   -4.7371574560    0.2780614257