20

 C    0.0268368939    1.4917841520   -0.0295263293
 C   -0.0282955553   -0.0061741008   -0.0987540521
 C    0.5592725329   -0.9476583738   -1.1611673817
 C    0.0274746348   -1.8541457819   -0.0517501521
 N    0.5536096541   -0.8969967833    1.0478629013
 C   -0.8209028053   -0.9332175630    1.7099468325
 C   -1.2247181831   -0.9695946576    0.2400102646
 C   -2.5873594041   -1.0340397912   -0.3912976969
 O   -3.2047500739   -2.2437271850    0.0301094911
 H    1.0668455646    1.8333007834   -0.0463210923
 H   -0.4929042040    1.9397346775   -0.8834610751
 H   -0.4389430414    1.8684391277    0.8869936167
 H    0.0539096390   -0.9877552082   -2.1297656783
 H    1.6467622576   -0.9163641958   -1.2753868509
 H    0.1127241082   -2.9337145369    0.0768424709
 H   -0.9907467250   -1.8343877370    2.3065526590
 H   -1.0535798354   -0.0378543891    2.2968457141
 H   -3.1770959503   -0.1549673606   -0.0824700934
 H   -2.4907631873   -0.9922933527   -1.4892652883
 H   -4.0955926403   -2.2681716937   -0.3314306996