21

 C   -0.1861128874    1.5741798460   -0.0495748681
 C    0.0471811370    0.0731269744    0.0196505015
 O    0.8206003182   -0.3289338226   -1.1181540445
 C    1.6044086017   -1.4743025823   -0.8060439147
 C    3.1096239436   -1.1436404451   -0.5924249500
 C    2.8938572758   -1.1693771996    0.9400275918
 C    2.2334665127    0.1121741551    1.5206150114
 C    0.8070689771   -0.4637518788    1.2337087581
 C    1.4604473447   -1.7703832564    0.7161806501
 H    0.7576843770    2.1240750734   -0.0003291925
 H   -0.6813985568    1.8353105058   -0.9888894674
 H   -0.8258131666    1.9001416287    0.7768856310
 H   -0.9319536560   -0.4371659198   -0.0149905204
 H    1.3797604411   -2.2765725150   -1.5153396522
 H    3.7501304854   -1.9676947731   -0.9212994163
 H    3.4592447308   -0.2129728314   -1.0477393510
 H    3.6628163301   -1.6430926499    1.5504189709
 H    2.4150773913    0.2272241124    2.5918734514
 H    2.4976712253    1.0519241529    1.0275331115
 H    0.1677523002   -0.5430115356    2.1150259117
 H    1.1192912348   -2.7489891392    1.0497887276