17

 C    0.5598316173    0.4080238833    1.0455279879
 C   -0.1408959224    0.3596424846   -0.2948761063
 O    0.2885704399    0.9097828878   -1.2854318261
 C   -1.4361133823   -0.3898191670   -0.3736924721
 O   -2.1217447192   -0.6506155885    0.8826184822
 C   -1.6516424826   -1.7692074483    0.1491594569
 C   -2.6943902548   -2.4423237187   -0.7355319049
 C   -3.0769815209   -1.3492181625   -1.7127103186
 C   -2.3614581922   -0.2369116072   -1.5364314139
 H    1.5112715292    0.9286274903    0.9337916391
 H   -0.0714273169    0.9256071720    1.7745431965
 H    0.7290189297   -0.5984526327    1.4417093090
 H   -0.8680639254   -2.3505727073    0.6287205732
 H   -2.2731581601   -3.3188182852   -1.2435164648
 H   -3.5478522322   -2.7947064825   -0.1435970814
 H   -3.8666472729   -1.4781706143   -2.4438772850
 H   -2.4197442043    0.6746077859   -2.1145818919