14

 O   -0.1116956690    0.0429534055   -0.6569469082
 C   -0.1056546244    1.1889123538   -0.2801197937
 C   -1.3437415072    1.9217677365    0.2111931871
 N   -1.6192199443    3.1897407576   -0.4463851791
 C   -0.7962969526    4.1398237150   -0.3072881211
 N    0.4477331123    4.1188327201    0.3316801592
 C    1.4468380775    3.1502451036    0.2595694535
 O    2.5883839318    3.4105018235    0.5661844923
 N    1.0982471416    1.8981076617   -0.2352502931
 H   -2.1830886389    1.2442529766    0.0558684248
 H   -1.2214173763    2.0795163261    1.2949995996
 H   -1.0558764717    5.1233935870   -0.7003621790
 H    0.8566511971    5.0168543075    0.5528210984
 H    1.9107868740    1.3178611754   -0.4053337807