17

 O    0.1824059302   -0.3996756750    0.4386513371
 C   -0.0478278712    0.7738256030    0.2505558086
 N    0.8874264297    1.7155446972   -0.0735169591
 C    2.2839941205    1.4129024678   -0.2183224591
 C    2.9636930462    1.7401918238   -1.5894376573
 N    3.9453603971    2.5345494483   -0.8492068333
 C    3.3007270309    2.3874584525    0.4532873388
 C    5.0270683373    3.2619278453   -1.2038374231
 O    5.6907359814    3.9216216214   -0.4306053991
 H   -1.0610010995    1.2141419693    0.3247018277
 H    0.5767177802    2.6658409870   -0.2069838071
 H    2.4093467086    0.3737864278    0.0806163286
 H    3.3748102676    0.8833938071   -2.1325616488
 H    2.3311135758    2.3262311471   -2.2680507114
 H    2.8589222775    3.3178128096    0.8312951466
 H    3.9411483767    1.9617707191    1.2308065138
 H    5.2445018910    3.1814273289   -2.2889412629