17

 C    0.0360860859    1.5312381408    0.0478859060
 C   -0.0327859330    0.0336941431    0.0760854294
 C   -1.3177049048   -0.8090128464   -0.0283177593
 C   -0.7138409462   -1.8432761237    0.9748776930
 C    0.5589148686   -0.9974794852    1.0561397946
 N    1.1359348775   -0.7426394576   -0.2687983121
 C    1.3870139111   -0.7617678679    2.2490604593
 O    1.1256210344   -1.1979560663    3.3460947587
 H    1.0423533797    1.8794049446    0.2909443344
 H   -0.2142147558    1.9006397962   -0.9541865299
 H   -0.6742820851    1.9734954411    0.7533000435
 H   -2.1965352860   -0.3006084786    0.3745832965
 H   -1.5534588179   -1.1664836569   -1.0364436621
 H   -1.2476915164   -1.8762966719    1.9255093800
 H   -0.5725628944   -2.8667865581    0.6136776778
 H    0.9481352268   -1.5086864677   -0.9141928339
 H    2.2797453557   -0.1263952756    2.0621940039