16

 N   -0.1117248943    1.4096875218    0.3946970473
 C   -0.0913168080    0.1546757036    0.3022024721
 O   -1.2233781251   -0.5006207075   -0.0589608963
 C   -1.1694420473   -1.9082780182   -0.1122434066
 C   -1.0072773948   -2.5490412408    1.2683812108
 O   -0.7380117290   -1.9348487106    2.2649012409
 C   -2.4562808735   -2.3818150645   -0.7628766947
 C   -2.5051682457   -2.7519853507   -2.1793411991
 O   -2.4575644566   -3.7517845873   -1.1546920653
 H    0.8091688718    1.7554398275    0.6556122396
 H    0.7686270382   -0.5059624938    0.4617535964
 H   -0.3252516890   -2.2650304474   -0.7265847793
 H   -1.1473975049   -3.6507933338    1.2639787072
 H   -3.3653156135   -2.0324893897   -0.2741573610
 H   -3.4477813177   -2.6844319064   -2.7178715721
 H   -1.6069335206   -2.6616662722   -2.7877695999