16

 O   -0.2650834531    0.1013236309   -0.3937210507
 C   -0.0245674199    1.1807075400    0.0843723615
 C    1.2619109630    1.9477079174   -0.0593937058
 N    2.4591313427    1.3020847358   -0.7653094880
 C    1.7139597427    1.6030743915   -2.0824115764
 C    1.4893923887    2.9164620909   -1.2831809022
 C    2.9815081635    2.7435543108   -0.8997342482
 C    0.7618860315    4.1043619965   -1.6367640836
 C    0.1516024460    5.0982535303   -1.9312779106
 H   -0.7795431989    1.7172997138    0.7040666284
 H    1.5200515096    2.3839564340    0.9133927437
 H    2.3786505824    1.6670144050   -2.9464581657
 H    0.8658591681    0.9481216522   -2.2671608543
 H    3.3231490088    3.1844724214    0.0398879681
 H    3.7177950961    2.8628369125   -1.6973521281
 H   -0.3867875212    5.9755418669   -2.1939431482