20

 C   -0.3228360714    1.7425295987    0.1180823661
 C   -0.3822634439    0.2145125285    0.1841212077
 C    0.6349383736   -0.4921179168    1.0814817494
 C    2.0175033022    0.0749934917    1.2814220505
 C    1.0278204234    0.0900302246    2.4213172490
 C    0.4370125175   -1.9797845751    1.0416404289
 O    0.7983086365   -2.6674475377   -0.1650739822
 C    1.5035251386   -2.9888117114    1.0324401424
 H    0.6256210776    2.0993246676   -0.2945474984
 H   -1.1194192244    2.1173701292   -0.5316768910
 H   -0.4607751059    2.2059868867    1.1001716798
 H   -1.3868381163   -0.0861943774    0.5135180717
 H   -0.2648067333   -0.1929032977   -0.8276600270
 H    2.8635253744   -0.5986953799    1.3452671609
 H    2.2513031288    1.0192432753    0.8037007401
 H    0.6037320078    1.0411998903    2.7224980299
 H    1.1902217528   -0.6011271302    3.2420146755
 H   -0.5323102984   -2.2997780087    1.4336631889
 H    2.5490752940   -2.6892687037    1.0511260961
 H    1.3043683161   -3.9780726438    1.4447135317