17

 C   -1.2906166879    0.1721377665   -0.0812787342
 O    0.1273158476    0.0437549734   -0.0419683683
 C    0.6905910813   -0.6874189080   -1.0752689370
 C    1.7093165082   -1.7405118871   -0.6460897704
 C    0.3933014077   -2.1812346185   -1.1901130560
 C    1.0541965223    0.0130937016   -2.3426076965
 O    1.5787589514   -0.5562886429   -3.2799087735
 C    0.8183351090    1.5199961856   -2.5506648806
 O   -0.0817661252    2.1704470173   -2.0930068093
 H   -1.6151447147    0.7377897913   -0.9592436311
 H   -1.7813618852   -0.8096994094   -0.0685520618
 H   -1.5707740047    0.7215377124    0.8197295919
 H    2.5872234621   -1.8486576482   -1.2717165498
 H    1.8657938158   -1.7960162683    0.4243692850
 H   -0.3422607088   -2.5681829645   -0.4949470134
 H    0.3633182566   -2.5891808302   -2.1934391362
 H    1.5455283547    1.9284403888   -3.2845140188