14

 N   -0.0369192371    1.5023420553    0.1669929273
 C   -0.0017373716    0.0586971315    0.0078603153
 C   -1.3600872098   -0.4893380137    0.1313578439
 N   -2.4229928016   -0.9411547567    0.1574424950
 C    0.6000246329   -0.4800335118   -1.3556790185
 N   -0.1173499628   -0.1098458404   -2.5635721066
 C    1.9891458012   -0.0061650165   -1.4362935531
 N    3.0663184955    0.4112647933   -1.4424962736
 H    0.9048018325    1.8804342254    0.1271748963
 H   -0.5905291273    1.9406482206   -0.5621176919
 H    0.6053314222   -0.3560294014    0.8219679401
 H    0.6194201331   -1.5752288735   -1.2967468756
 H   -1.0648020249   -0.4741235408   -2.5317292765
 H   -0.1638902823    0.8983811285   -2.6708592120