19

 C   -0.0217173573    1.4479528029   -0.2061220067
 N   -0.0104566560    0.0347019197    0.1669909527
 C   -1.2790837268   -0.6131218777    0.0375639379
 C   -1.8377317347   -1.0946279906   -1.3570342780
 O   -0.8316108693   -1.3455648273   -2.3139351624
 C   -2.3943892113   -2.3537234687   -0.6430571396
 C   -1.4107528776   -2.0956708857    0.5508674119
 C   -0.1726194385   -2.8460417713    0.4128862294
 N    0.8130985555   -3.4275713630    0.2371485367
 H    0.9858205042    1.8564760386   -0.0903267193
 H   -0.3541257334    1.6410184055   -1.2382352893
 H   -0.6835974637    1.9973970704    0.4726743625
 H    0.6800425954   -0.4564033543   -0.3922753492
 H   -2.0403482387   -0.0127735081    0.5474147877
 H   -2.5634970875   -0.4432956731   -1.8485241988
 H   -0.2776270370   -2.0778520278   -2.0186914840
 H   -3.4318230280   -2.2316214991   -0.3247275386
 H   -2.2897060117   -3.3010634414   -1.1743762232
 H   -1.8044409235   -2.2217859092    1.5611372103