19

 C   -0.2787516428    1.5406462161   -0.0045556675
 C    0.0697557414    0.0603693792    0.0701916691
 C    1.3265504069   -0.6989834276   -0.3324642563
 C    2.6789845781   -0.1090427043    0.1213024753
 C    2.8839309083    1.4116934842    0.2886413438
 O    2.2873235691    1.3843123893    1.6157006903
 C    2.1601810988   -0.0616948377    1.5644261794
 C    0.8127253794   -0.6941782165    1.1275396061
 O    0.2544705461   -1.7461934563    1.8362427601
 H    0.3897165315    2.1583446162    0.5897303349
 H   -0.2747078112    1.8920295759   -1.0423653278
 H   -1.2938210923    1.6897257958    0.3806402835
 H   -0.7731629480   -0.5597439632   -0.2410059876
 H    1.2512962865   -1.4883414888   -1.0714663838
 H    3.5445913405   -0.7082183923   -0.1567276676
 H    3.9372749127    1.7104246031    0.3473700805
 H    2.3558530706    2.0809708579   -0.3972581466
 H    2.6375066648   -0.5703884495    2.4059851020
 H   -0.4941113306   -1.4100624915    2.3412355321