23

 C    0.0501332103    1.5678774682    0.0106827286
 C    0.0821030403    0.0365601205   -0.0407311158
 C    0.6788397824   -0.5949077841    1.2204325975
 C   -0.1799078027   -0.4445339801    2.5331748690
 C   -0.2766480479   -1.9236818422    2.9495898135
 C    1.1755362563   -2.4270656930    2.6909718182
 C    0.8008305770   -2.1346758100    1.2059818996
 C   -0.6469668625   -2.5916935390    1.5868346503
 O   -0.9138471844   -3.9737797825    1.5821602135
 H    1.0586968701    1.9794741716    0.1307892700
 H   -0.3734390258    1.9874118358   -0.9070323938
 H   -0.5544633946    1.9285401442    0.8497129807
 H   -0.9333951155   -0.3424955328   -0.2096667015
 H    0.6734390792   -0.2828555246   -0.9089695031
 H    1.6734827201   -0.1575263684    1.3740180064
 H    0.3075506719    0.1752534126    3.2907747887
 H   -1.1658634002   -0.0114414200    2.3325074420
 H   -0.8231245491   -2.1613608167    3.8632564316
 H    2.0015743967   -1.8586329901    3.1288630129
 H    1.3241996200   -3.4868443758    2.9154123472
 H    1.3359219032   -2.5881438668    0.3696691568
 H   -1.4764767659   -2.1431191633    1.0344134330
 H   -0.1978814888   -4.4362664034    2.0286558848