18

 C   -0.0670551520    1.6119074215   -0.2263793280
 C    0.0554333781    0.0916270498   -0.0257029621
 C    0.7502583451   -0.5944376041   -1.1504898287
 N    1.8787585488   -1.2292180973   -1.1435151477
 C    2.0568196708   -1.6497301180   -2.4582214910
 C    1.0047879943   -1.2405669395   -3.2066199456
 C    0.6228031732   -1.3959838965   -4.6423656702
 O    1.3450796414   -2.4426659056   -5.2618251370
 O    0.1509497378   -0.5616573547   -2.3769213263
 H    0.9204039809    2.0758595005   -0.3055399287
 H   -0.6247630830    1.8421146690   -1.1383026869
 H   -0.5917372731    2.0668262095    0.6184504473
 H    0.6224716996   -0.1342355790    0.8803926042
 H   -0.9447223168   -0.3419838147    0.0972285649
 H    2.9257677151   -2.2065563891   -2.7686564633
 H   -0.4678827724   -1.5337788065   -4.7152888748
 H    0.8637884368   -0.4910440167   -5.2134688462
 H    1.1642470755   -3.2502784686   -4.7684636402