19

 O    0.3245775434    1.3850042496    0.0518070368
 C    0.1387714966   -0.0066873199    0.0870190588
 C    0.1525879756   -0.6415469895    1.5378968158
 C   -1.3537547522   -0.6554925726    1.4304603700
 C   -2.4867511440   -0.2509327185    1.9945208095
 C   -3.4973184775    0.0833327857    0.9024716466
 C   -2.6211841863    0.3210412929   -0.3636392353
 O   -2.3657013629    1.7282351438   -0.4208083773
 C   -1.3549970281   -0.5254095852   -0.0685210387
 H   -0.4669326151    1.7892559678    0.4349653446
 H    0.8610264914   -0.4369541549   -0.6116021342
 H    0.6096037076   -1.6368765012    1.5352156726
 H    0.6090690406   -0.0357360778    2.3244811039
 H   -2.6784763444   -0.0850536978    3.0481254128
 H   -4.2193587087   -0.7262975017    0.7316348049
 H   -4.0751703596    0.9870829374    1.1224263849
 H   -3.1361815922    0.0070926544   -1.2809564706
 H   -1.7760209236    1.8865935418   -1.1669021398
 H   -1.3709269606   -1.4762392745   -0.6142741254