15

 N   -0.1645580147    1.3418665436   -0.0507779354
 C    0.1290523846    0.0149543098   -0.0381448861
 O    1.2470957774   -0.4492920165    0.0276078158
 O   -1.0252843450   -0.6962438159   -0.1377057959
 C   -1.0330407206   -2.0698312490   -0.1888476765
 C   -2.1487223987   -2.8627830918   -0.2809240376
 C   -1.6732958358   -4.2068732641   -0.3056808933
 C   -0.3023530023   -4.1710069210   -0.2283977728
 N    0.0849446113   -2.8520041720   -0.1571095155
 H    0.5807272201    1.9764242349    0.1751922141
 H   -1.1165223589    1.6450894558    0.0579389415
 H   -3.1685025409   -2.5172142950   -0.3260467909
 H   -2.2800402960   -5.0963255036   -0.3738393583
 H    0.4324215522   -4.9589111588   -0.2170012168
 H    1.0113333775   -2.4632770264   -0.0861007623