19

 O    0.0036312053    0.2772052641   -0.5947150067
 C    0.1740935202    1.4586570560   -0.5621038712
 O    0.9731500821    2.0564954023    0.3395701317
 C    1.0812364806    3.4861025279    0.3219078711
 C    2.5498608183    3.9080769166    0.3192771270
 C    3.2659805798    3.4954950076   -0.9970094372
 C    3.2847919314    4.7712446444   -1.8040665035
 C    2.9494550723    5.8324823015   -1.0732700663
 C    2.6420665624    5.4616127759    0.3583824192
 H   -0.2963795629    2.1783171881   -1.2613804403
 H    0.5649180580    3.8914891074   -0.5591542323
 H    0.5770660453    3.8626952325    1.2185244873
 H    3.0265436665    3.4544427837    1.1917578756
 H    4.2865603788    3.1395486884   -0.8036957209
 H    2.7559690707    2.6685672857   -1.5041725303
 H    3.5726922213    4.7954055321   -2.8492497373
 H    2.9235090348    6.8571883300   -1.4267790739
 H    1.7179733045    5.9236613675    0.7299773134
 H    3.4391887106    5.8006996483    1.0330940746