15

 N    0.0285452215   -1.1616838682   -0.4316092642
 C    0.0200675148   -0.0260620479   -0.2193089027
 C   -0.0013741421    1.4305690393    0.0366425339
 C   -0.8390671612    1.7861927406    1.2784738718
 N   -0.3946618020    1.3248071445    2.5753830925
 C    0.7950151839    1.3781048854    2.9872834756
 O    1.9496318631    1.7469725662    2.3620451398
 C    2.1704729881    1.3877058379    1.0061294891
 O    1.3045480784    1.9812254542    0.0850315797
 H   -0.4775742226    1.9028639626   -0.8293577723
 H   -0.8974795724    2.8826426127    1.3038000490
 H   -1.8554254710    1.4137748847    1.1114113563
 H    1.0059302956    1.1490450125    4.0313495687
 H    3.1669455539    1.7617633862    0.7735046288
 H    2.1334190621    0.2931608791    0.9234118841