16

 O   -0.1869208118   -0.0021911908   -0.1401369005
 C   -0.0766582267    1.1671288224    0.1280876084
 C    1.2263728706    1.9362145525    0.0217098464
 C    2.5022805442    1.1613527909   -0.4145586014
 C    2.5128526826    2.0462435334   -1.6566538121
 C    1.2444082099    1.9618986199   -2.3945092439
 N    1.2920113343    2.8482378911   -1.2054465828
 C    1.4586359287    2.7839712443    1.2543858726
 O    0.9061165420    2.5945994966    2.3071310695
 H   -0.9491479535    1.7811794826    0.4301312285
 H    3.3495456212    1.3261489634    0.2540547810
 H    2.3622791435    0.0899354470   -0.5694392855
 H    3.3864950048    2.5498985827   -2.0554906076
 H    1.1600053094    2.5362635229   -3.3112636020
 H    0.6526973829    1.0513123099   -2.3668646888
 H    2.1994700979    3.5998630912    1.1091753481