19

 C   -0.0063910719    1.5085954282   -0.0299708775
 C   -0.0188870379   -0.0055199442    0.0514259301
 O    0.9526202213   -0.5996922330   -0.8662934000
 C    1.7291519933   -1.1305763092    0.2325911116
 C    0.7079241599   -0.6307606691    1.2681466110
 C    0.4163730071   -2.0953786262    1.6644206317
 C    0.0131872699   -2.9461549208    0.4736862881
 C    1.4553814080   -2.5971618629    0.6573559865
 O    2.4527405196   -3.5346360443    0.8515692597
 H    0.9854525825    1.9060706237    0.2078661829
 H   -0.2730940905    1.8382702321   -1.0387853446
 H   -0.7303833377    1.9341240680    0.6741587632
 H   -1.0270569006   -0.3909401606   -0.1461010616
 H    2.7835412563   -0.8441314042    0.2094150826
 H    0.9848104257    0.0336080728    2.0858077698
 H    0.2190868186   -2.4321434959    2.6744808137
 H   -0.2218377803   -3.9709854705    0.7443804647
 H   -0.5598648763   -2.5499238846   -0.3573662097
 H    2.5060417831   -4.0885519394    0.0645845378