16

 C   -0.2529851299    1.4459008777   -0.0891269192
 C   -0.1705185867   -0.0638363591   -0.0116372468
 O   -0.3186233294   -0.6855666610    1.0185326906
 C    0.1018761687   -0.7412949157   -1.2676720464
 C    0.3219487491   -1.3127922786   -2.3080050431
 C    0.6170368230   -2.0337515430   -3.5387270262
 N    0.5002606263   -3.4773032228   -3.3843264917
 C   -0.2261297128   -4.2303680684   -4.2560673638
 O   -0.7709607613   -3.8039409262   -5.2511498250
 H    0.6840640182    1.8548727636   -0.4822553744
 H   -1.0469844690    1.7431746978   -0.7827521930
 H   -0.4519238461    1.8519466590    0.9036028374
 H   -0.0800804978   -1.7554381568   -4.3367656757
 H    1.6218772430   -1.7558913948   -3.8868621716
 H    0.8697885254   -3.9051285445   -2.5503035872
 H   -0.2565463609   -5.2942031872   -3.9530857238