19

 O    0.0521847466    1.4989395139    0.0204427271
 C    0.0605846866    0.0862403570    0.1358509617
 C   -1.3513850437   -0.5277105075    0.0450954036
 C   -2.0195506338   -0.2410312165   -1.2817637560
 C   -2.1696286457   -1.3343173888   -2.0299615485
 C   -1.6606874331   -2.5741040380   -1.3383053048
 C   -1.3470133230   -2.0654587946    0.0734834458
 C   -0.6553498102   -2.8730959860    1.0846702861
 O   -2.0711825073   -2.6879076083    1.1412620053
 H   -0.1919150187    1.7179078823   -0.8842201727
 H    0.7126018342   -0.3745905594   -0.6228989366
 H    0.4962549159   -0.1270245543    1.1169471986
 H   -1.9377656764   -0.1485805489    0.8901702596
 H   -2.3279247038    0.7575503793   -1.5717699903
 H   -2.6051735094   -1.3586015331   -3.0225808840
 H   -2.3999076319   -3.3815928853   -1.2899415356
 H   -0.7728180149   -2.9837760171   -1.8389252552
 H   -0.3227607993   -3.8801802501    0.8324107890
 H   -0.0893553119   -2.3932083044    1.8822075369