19

 C   -0.0087051653    1.5521429790   -0.0243972639
 C    1.2894872215    0.7584331478   -0.0135433286
 C   -0.0302430559    0.0638842388   -0.0006071766
 C   -0.5257910352   -0.9525974692    1.0282055046
 C   -2.0354399323   -0.8088769657    1.2881107342
 C   -2.7573235682   -0.7309222632   -0.0434179693
 C   -2.0467064077   -0.8036948205   -1.1692241697
 C   -0.5500880291   -0.9799992299   -0.9964745459
 O   -0.3335671548   -2.0005546023    0.0321826926
 H   -0.2853576064    2.0883706301    0.8782722324
 H   -0.2928166274    2.0566763456   -0.9425054106
 H    1.8766623099    0.7320272039   -0.9261994141
 H    1.8824609159    0.7597957376    0.8961472234
 H    0.0602979427   -1.1238014577    1.9362056078
 H   -2.3986097255   -1.6639075131    1.8733792706
 H   -2.2339261166    0.0880102626    1.8910290819
 H   -3.8382659649   -0.6255116823   -0.0444222924
 H   -2.4891875035   -0.7432439808   -2.1576707966
 H    0.0047241028   -1.1860453507   -1.9145299498