19

 N    0.3716614247    0.9904896972   -0.7961107990
 C    0.1443971397    0.1604687591    0.2694340250
 O    0.9806796897   -0.0399444883    1.1265123405
 C   -1.2282689450   -0.4658611559    0.2630454796
 N   -1.3755893500   -1.7514957805    0.9619226267
 C   -2.0662520825   -0.5808388107    1.5037717006
 C   -1.6340224578   -0.0863467982    2.8634021022
 C   -2.2236961818   -0.9420929205    3.9800548043
 O   -1.8595773484   -0.3496388459    5.2173957033
 H    1.2235971007    1.5274474754   -0.7940859179
 H   -0.3572947061    1.2567274906   -1.4343628838
 H   -1.7831149895   -0.3361513942   -0.6652947021
 H   -2.0129051462   -2.3506014278    0.4445522511
 H   -3.1397023771   -0.5148924526    1.3174376373
 H   -0.5449494507   -0.0993149176    2.9290232296
 H   -1.9693372767    0.9492390550    2.9996290788
 H   -3.3218364253   -0.9963907821    3.8762526867
 H   -1.8342970159   -1.9672534005    3.8914160723
 H   -2.1325115918   -0.9408566226    5.9246196248