20

 C   -0.0291867900    1.5282379967   -0.0359084523
 C    1.4393480791    2.0283818090    0.0122652751
 C    2.2247978233    0.8587759564   -0.6080055975
 C    3.6817909746    0.5814938181   -0.2718424875
 N    3.9788373574    0.4529062790    1.1709936662
 C    3.7448187885   -0.7750711720    0.3494226088
 C    2.3326818532   -1.2507547802    0.4863381904
 C    1.4969697197   -0.3360337518   -0.0093562144
 C    0.0328336944   -0.0254228570    0.1477118343
 H   -0.6571451421    2.0103543054    0.7178308396
 H   -0.4671962024    1.7664636363   -1.0112113017
 H    1.5722210010    2.9788921070   -0.5124141086
 H    1.7693410674    2.1598960858    1.0476447390
 H    2.1022072498    0.8819327113   -1.7017644756
 H    4.4666650007    0.9370377556   -0.9307306320
 H    4.9831794859    0.5748399447    1.2929268745
 H    4.5756974412   -1.4556942821    0.1940799317
 H    2.0571532943   -2.1418972564    1.0384108310
 H   -0.3417012743   -0.3413088039    1.1261335299
 H   -0.5843915817   -0.5328838119   -0.6029257208