19

 C   -0.0330914356    1.4575309688    0.0579202015
 C   -0.0023246486   -0.0447006766    0.0204472541
 C    0.6208110318   -0.9665827127   -1.0706201331
 C    0.0305960540   -1.9593579407   -0.0192083363
 C    0.6398596106   -1.0114847118    1.0675745515
 C    0.0588952454   -3.3910556242   -0.0454381805
 C    0.0682788548   -4.5943646575   -0.0600048741
 C   -1.2302426466   -1.0150953827   -0.0225971925
 O   -2.1778267229   -1.0470390828    0.9989251137
 H    0.9757667819    1.8779346321    0.1296359659
 H   -0.5031979371    1.8620972786   -0.8449821102
 H   -0.6086703073    1.8121384085    0.9199707512
 H    0.1474789124   -0.9635714858   -2.0565576967
 H    1.7101844732   -0.9584863915   -1.1451144397
 H    1.7309320023   -1.0042982055    1.1328520587
 H    0.2096784399   -1.0494334039    2.0738327784
 H    0.0750909630   -5.6559347989   -0.0760049631
 H   -1.7967833926   -1.0146969467   -0.9579383607
 H   -1.7347419786   -1.1114950467    1.8511884719