15

 N   -0.0591688069    1.2840819959   -0.0247241038
 C    0.0656926320   -0.0645613632    0.1179441220
 O    1.1082826268   -0.6164943336    0.4060013007
 C   -1.2481128177   -0.8218568687   -0.0261784512
 C   -2.0601642474   -0.9054264031   -1.2820626221
 N   -1.3648330744   -2.1243325834   -0.6542634805
 C   -0.3728975084   -2.1445499262   -1.7984047184
 C   -1.1454592598   -0.9969379485   -2.4751965503
 O   -1.1707016736   -0.5264360683   -3.5744829664
 H    0.7742611370    1.8469064737    0.0426398775
 H   -0.8865084776    1.6965197224   -0.4202855819
 H   -1.8512734776   -0.7548633179    0.8787428736
 H   -3.1360375139   -0.7673720906   -1.2934430774
 H    0.6644650251   -1.9984987280   -1.4985817592
 H   -0.4804218435   -3.0701701007   -2.3696494824