16

 O    0.1966471740   -0.0922476349    0.9102302047
 C   -0.0057912250    0.9684229595    0.3628554925
 C    1.0524331025    1.6813143013   -0.3384701293
 C    1.9159425026    2.2919131235   -0.9142074493
 C   -1.3514424851    1.6660897653    0.3986237266
 C   -1.9767808715    2.2688646390   -0.9175265512
 C   -3.1905933385    1.3607965074   -0.6848774152
 N   -2.6603270349   -0.0210481893   -0.7070287098
 C   -2.5859387981    0.7722339779    0.5420330008
 H    2.6914077001    2.8139932194   -1.4201989487
 H   -1.3026858754    2.4374889688    1.1755459456
 H   -2.1919522946    3.3344063224   -0.8234487862
 H   -1.4290714128    2.0806938099   -1.8431972517
 H   -4.2265971256    1.5688270201   -0.9198492243
 H   -3.4501710067   -0.6579089191   -0.6078350732
 H   -3.0430508310    0.4193295988    1.4567177788