18

 O    0.1043646284    1.4025910270    0.1473148559
 C    0.0246021436    0.0001799918    0.0413571160
 C   -1.3790981887   -0.5487866058   -0.2874709694
 C   -1.6036133078    0.0131655527   -1.7011545972
 C   -1.3446753005   -1.2988373228   -2.3265932840
 C   -1.1026091572   -1.9714310763   -0.9637445002
 C    0.4300493644   -2.1221948881   -0.9566490289
 C    0.6816160921   -0.6269630693   -1.2094882570
 N   -0.2765148331   -0.2668843371   -2.3347352461
 H   -0.1361707219    1.7753568906   -0.7088467194
 H    0.4474542111   -0.3973535974    0.9683742541
 H   -2.1629910257   -0.4634449468    0.4611357828
 H   -2.1861236916    0.8657596270   -2.0320313838
 H   -1.6745758058   -1.7346040487   -3.2630271354
 H   -1.7243427869   -2.8125637367   -0.6652012407
 H    0.8561759155   -2.4676732271   -0.0101610216
 H    0.7841142919   -2.7690533375   -1.7646750951
 H    1.6941410221   -0.3026259755   -1.4442932301