18

 C    0.0760811944    1.5343074308    0.0774844986
 C   -0.0156339665    0.0278144476    0.0246791676
 C   -1.1972411155   -0.6511918931   -0.0059195244
 C   -2.5517563652   -0.0131844379    0.0082700726
 C   -1.1849585116   -2.1144581170   -0.0566764834
 N   -2.2763690649   -2.7956604898   -0.0868292630
 N    0.0982717143   -2.6653112113   -0.0682726192
 N    1.2753447667   -2.0210621938   -0.0387729639
 C    1.2106559423   -0.7264072786    0.0058604711
 H    1.1190931158    1.8603121349    0.0942047187
 H   -0.4029534913    1.9986541301   -0.7906324506
 H   -0.4120432927    1.9374986474    0.9707463715
 H   -3.1191353861   -0.3182826505   -0.8774430864
 H   -3.1296867467   -0.3794738144    0.8634296601
 H   -2.5003833607    1.0753189873    0.0467769753
 H   -2.0946956212   -3.8000191046   -0.1206537242
 H    0.1845828275   -3.6705085121   -0.1026133728
 H    2.1667137816   -0.2135717750    0.0293720727