14

 O    0.5447217081   -0.2645541674   -0.2221759514
 C    0.2399745337    0.8829226442   -0.0196776663
 C    1.1914853075    2.0413443321    0.0576094541
 C    0.8610468102    3.2902202716   -0.8217182510
 C    1.2416864513    4.2006466098    0.3744867318
 C    1.0751858211    2.9728249847    1.3069046266
 H   -0.8293043739    1.1736698134    0.1316558575
 H    2.2108517402    1.6819242470   -0.0985668770
 H    1.4175363080    3.3954918384   -1.7549252547
 H   -0.2095773317    3.3420633485   -1.0464243398
 H    2.2831777616    4.5285603369    0.3185969159
 H    0.6133769151    5.0728494980    0.5677545316
 H    0.0708629438    2.9264337869    1.7411925333
 H    1.8057096750    2.8201738061    2.1035687795