13

 N    0.0268495970    1.3698685227    0.1483306967
 C   -0.0368032815   -0.0074050745    0.0507840975
 C   -1.1728327204   -0.7504713259    0.0250517026
 O   -1.2070787531   -2.0958453311   -0.0180776125
 N   -0.0448681946   -2.8267404925   -0.0263703164
 C    1.0748384126   -2.1713254304   -0.0066712429
 O    2.2078735393   -2.8853476080   -0.0233063061
 C    1.2369475095   -0.7072248894    0.0196349017
 O    2.3194241878   -0.1368441437    0.0059246359
 H    0.9537956264    1.7090416352   -0.0787961834
 H   -0.7171623665    1.8959113508   -0.2833271712
 H   -2.1785879901   -0.3471260553    0.0365512800
 H    1.9613987736   -3.8215949879   -0.0495524518