20

 C   -0.4721884595    0.9387487790   -0.4568774970
 C    0.4973628751    0.0079020797    0.2554589789
 O    1.3524674214   -0.6816945287   -0.6818467229
 C    0.8644725934   -1.8197569439   -1.2161246188
 O   -0.2059994264   -2.2989333662   -0.9459611235
 C    1.8493781421   -2.3760786594   -2.2343982428
 N    1.6466071745   -3.7945148198   -2.4398984530
 C    0.5820825971   -4.1690613723   -3.3617532988
 C    2.0100534712   -4.3146487738   -3.7560505882
 H    0.0649020105    1.6501343882   -1.0909757363
 H   -1.1695803453    0.3682437501   -1.0750485323
 H   -1.0514678447    1.5045075239    0.2798097426
 H    1.1858940839    0.5634348301    0.8965028136
 H   -0.0370753008   -0.7334570417    0.8536508991
 H    1.7228134355   -1.7752952063   -3.1566469044
 H    2.8684205948   -2.1951606827   -1.8799917945
 H   -0.0066165999   -5.0327804313   -3.0699618775
 H    0.0122407043   -3.3706800393   -3.8329929342
 H    2.3987790586   -3.6142897381   -4.4941756883
 H    2.4901819241   -5.2886639476   -3.7579053416