19

 C   -0.1244773525    1.4926226523   -0.0368555856
 C    0.0164554044   -0.0246801776    0.1009343639
 C    0.7280431257   -0.4293582606    1.3983637843
 N   -1.3030086390   -0.6463380974    0.0002798055
 C   -1.4999192312   -1.8426794066   -0.5915095877
 O   -0.6738109808   -2.5147269657   -1.1629009181
 O   -2.8355361240   -2.1895235900   -0.4528211371
 C   -3.2316225069   -3.3748763297   -1.0060125439
 N   -4.4399407464   -3.7090424367   -0.8907434353
 H    0.8581273304    1.9709089135   -0.0003712767
 H   -0.6048894577    1.7594383897   -0.9820858872
 H   -0.7237983914    1.9078348439    0.7825738619
 H    0.5865293206   -0.4157118177   -0.7464825997
 H    0.1727764091   -0.0792884088    2.2758263792
 H    0.8219058420   -1.5166699957    1.4598259539
 H    1.7320669610    0.0047407228    1.4375659022
 H   -2.0846272569   -0.2399958212    0.4905740480
 H   -2.4135685828   -3.9021299605   -1.4978911893
 H   -4.5895156633   -4.6075585638   -1.3470740085