10

 C    0.0364174082    1.4520853982    0.0087618580
 C    0.0098806563    0.0026367731    0.0108676616
 C   -0.0193232835   -1.2044997236    0.0116021039
 C   -0.0487728227   -2.6357838919    0.0125289150
 O   -1.0472338669   -3.3172203639    0.0642754413
 C    1.2862118541   -3.2635455395   -0.0572879853
 N    2.3281447211   -3.7619429479   -0.1117866192
 H    1.0602451700    1.8305768258    0.0861322096
 H   -0.4044664620    1.8397812482   -0.9160501081
 H   -0.5452012047    1.8494281815    0.8472818731