17

 C    0.1971156657    1.3663601790   -0.4878241144
 C   -0.0223844221    0.0469328911    0.2744396611
 C   -1.4350280388   -0.4393729974    0.2127268509
 N   -2.3503064126   -0.2802301033    1.1343916449
 C   -3.5040385509   -0.8518356111    0.6301523207
 C   -4.7846280140   -0.9051043971    1.3337349062
 O   -5.0108492965   -0.4632471087    2.4352912041
 C   -3.2666052065   -1.3653750149   -0.6276313635
 N   -1.9520610686   -1.0981446522   -0.8844434541
 H    1.2372615736    1.6928013191   -0.3988667892
 H   -0.0308540211    1.2583972582   -1.5535299184
 H   -0.4463722323    2.1531562335   -0.0850267338
 H    0.6539441634   -0.7242352612   -0.1151832126
 H    0.2202560746    0.1835704622    1.3309654059
 H   -5.5820737305   -1.4133840849    0.7412954001
 H   -3.8995735710   -1.8841781698   -1.3292501797
 H   -1.4497313824   -1.3473395224   -1.7210577782