21

 C    0.1120948698    1.5258564223   -0.0159005257
 C   -0.0129845983    0.0202539211    0.0333379990
 C   -0.9541913308   -0.6355381285    1.0113289743
 C    0.5429802582   -0.7599813718    1.2091977236
 C    1.3177562309   -2.0192757728    0.9150888139
 C    0.6859558228   -3.3914530324    0.8012815851
 C    1.0960873014   -2.6460127928   -0.4365849254
 O    0.0679822699   -2.0927039207   -1.2087281689
 C    0.1521111290   -0.6743966993   -1.3110642842
 H    1.0846333051    1.8336942025   -0.4191018624
 H   -0.6649968273    1.9724578328   -0.6487400813
 H    0.0143586424    1.9618383820    0.9832808058
 H   -1.4935649152    0.0000530272    1.7058534703
 H   -1.5074711898   -1.5037646121    0.6727667933
 H    0.9509343784   -0.1710306245    2.0253129870
 H    2.3420437463   -1.9966553805    1.2740729508
 H    1.2763795602   -4.2499820923    1.1020334652
 H   -0.3780435036   -3.4826275414    0.9866219351
 H    1.9462736085   -2.9993981775   -1.0190166479
 H   -0.6478661336   -0.3819024210   -2.0001828874
 H    1.1124951659   -0.3785515003   -1.7661168600