15

 O    0.0381925262    0.0733117739    0.1715168051
 C   -0.0329674432    1.2646276117    0.0521164659
 C   -1.2760794059    2.0687905346   -0.2119155716
 O   -1.3279966164    3.2446876687    0.6159715858
 C   -0.8504821669    3.3897929776   -0.7144237478
 C    0.6640743820    3.4787352897   -0.7916233867
 C    1.1784620836    2.2528030234    0.0234650564
 C    1.6236744737    2.5702369046    1.3711696147
 C    1.9986565095    2.8270417115    2.4834368359
 H   -2.2187047028    1.5830294345   -0.4412493332
 H   -1.4804674938    3.9689243162   -1.3847068339
 H    0.9841679557    3.4009077558   -1.8357314090
 H    1.0347395762    4.4248405642   -0.3916194182
 H    1.9858646590    1.7397884433   -0.5084090704
 H    2.3224821934    3.0520468603    3.4693277669