17

 O    0.2744363973    1.5188228957    0.1196057010
 C   -0.0112784601    0.1618780511   -0.0367764631
 C   -1.5140939060   -0.1220533173   -0.2507454293
 C   -1.5756395043   -1.3509435391   -1.1815360519
 C   -0.4019645084   -1.1572433163   -2.1539687094
 C    0.6540662932   -0.4064580110   -1.3506566795
 O    1.8011971000   -0.2209979347   -1.6450920818
 C    0.5445720345   -0.6184818769    1.1406786807
 O    1.2522573363   -0.0925409219    1.9641950192
 H    0.9435722863    1.5714441113    0.8207793120
 H   -2.0601242748   -0.2659287008    0.6853665085
 H   -1.9332464312    0.7616755640   -0.7422133867
 H   -1.4398050640   -2.2736473868   -0.6059214351
 H   -2.5397159779   -1.4330190057   -1.6878550430
 H    0.0073538465   -2.0737341033   -2.5851853533
 H   -0.6875242232   -0.5077506949   -2.9920050905
 H    0.2738293158   -1.6913090836    1.2046652121