19

 C    0.0664548845    1.4871182269    0.0521723718
 C    0.0238177452   -0.0065770540    0.0000872818
 C   -0.1049652286   -0.7979321603   -1.0744037127
 C   -0.0564993740   -2.2486659737   -0.7311007074
 C    1.2486440872   -2.7308815200   -0.1237287514
 C    0.1190013178   -2.2893253489    0.7742463372
 C    0.1190176171   -0.8527474141    1.2346837581
 C    0.6911495627   -0.4093121781    2.5154948618
 O   -0.7241438596   -0.5041736251    2.3515154021
 H    1.0589213461    1.8557888251    0.3411698564
 H   -0.1821619820    1.9251677337   -0.9177902283
 H   -0.6441905904    1.8638844384    0.7962980853
 H   -0.1951305405   -0.4412331428   -2.0947773258
 H   -0.6809025638   -2.9570902865   -1.2636192137
 H    1.4575398608   -3.7956321749   -0.1550825757
 H    2.1202479432   -2.0924300483   -0.2262990804
 H   -0.3831631425   -3.0184209783    1.3979677123
 H    1.1400203859   -1.1487801466    3.1782904296
 H    1.0830229310    0.6016871473    2.6223348789