21

 C   -0.0145281612    1.5579679130   -0.1237271483
 C   -0.0094958787    0.0371967835    0.0058185594
 C    0.2303197677   -0.5943776663   -1.3444307941
 C    0.2784099726   -1.9148505912   -1.4902785670
 C    0.0876074200   -2.7710213617   -0.2738382142
 C   -0.1369904808   -1.9118517679    0.9627856881
 C    0.7514145379   -0.6445773794    1.2101628711
 C   -0.3713992426   -0.1565700398    2.1635123351
 C   -1.1004067110   -0.6773942856    0.8966166644
 H    0.9424694902    1.9044479863   -0.5315440346
 H   -0.7954932477    1.8736446393   -0.8256179106
 H   -0.1827882315    2.0862108602    0.8153701512
 H    0.3622417799    0.0716838822   -2.1932145160
 H    0.4499189383   -2.3858662776   -2.4538739494
 H   -0.7631172751   -3.4544616207   -0.4129634677
 H    0.9597144437   -3.4239591155   -0.1212621464
 H   -0.2770953158   -2.5305198841    1.8550167178
 H    1.8303051585   -0.6249807068    1.3833313361
 H   -0.5143761183   -0.7511361400    3.0701719270
 H   -0.4287238055    0.9072007477    2.3907333276
 H   -2.1761839806   -0.6959686255    0.7049521107