19

 O   -0.0033948666    1.4381338257   -0.3078105089
 C   -0.0246512055    0.0565467832   -0.0890224400
 C    0.2527832610   -0.5374868774    1.3261070521
 C   -0.8298058785    0.1431008990    2.1864586441
 C   -2.0554294359    0.0001105135    1.2153063691
 C   -1.3662842503   -0.7314394164    0.0459800414
 C   -0.5365836252   -1.8031392402    0.8098548302
 C    0.2642599721   -2.7917657889    0.0105711788
 O    0.3820495227   -2.8054698177   -1.1903424389
 H   -0.5919537319    1.8701338673    0.3187275827
 H    0.6147944599   -0.3816488120   -0.8526774552
 H    1.2581537126   -0.6149822125    1.7406920020
 H   -0.9851870722   -0.3673334406    3.1401918227
 H   -0.5774407588    1.1841090747    2.4138266047
 H   -2.8691024950   -0.5852857624    1.6508288399
 H   -2.4795787574    0.9630432696    0.9122086148
 H   -1.9637383633   -0.9953304191   -0.8250578795
 H   -1.0540511167   -2.3496906842    1.6073518803
 H    0.7699812789   -3.5646882117    0.6353452595