22

 C    0.6755812857    2.1577986787   -0.4003834030
 C    0.1262192093    0.7305968898   -0.3371327321
 C    1.0213727704   -0.2730555036   -1.0583498340
 N    2.3428177420   -0.5442592394   -0.4168965215
 C    2.1587449561   -2.0349552034   -0.4537593868
 C    2.9653944185   -2.7455379287   -1.5462337974
 C    2.3238412909   -2.7068289825    0.9065108447
 C    0.7024402731   -1.7662002862   -0.8901168324
 O   -0.2787689521   -2.4404704825   -1.0014808567
 H    1.6739656011    2.2047401831    0.0457575361
 H    0.7501887025    2.5103237598   -1.4355670269
 H    0.0304062683    2.8542032888    0.1435897686
 H    0.0233188259    0.4186355227    0.7084113747
 H   -0.8732063302    0.6810148398   -0.7859560923
 H    1.0907744107   -0.0088409308   -2.1258506540
 H    3.1341093031   -0.2277886056   -0.9668058799
 H    4.0348867852   -2.7068843213   -1.3087247698
 H    2.6741844856   -3.7974832614   -1.6221138491
 H    2.8150628960   -2.2811910377   -2.5264629658
 H    1.7735782857   -2.1615545239    1.6769801458
 H    1.9521330127   -3.7357978521    0.8717315628
 H    3.3800399994   -2.7300984237    1.1961942192