21

 C    0.0201673625    1.5764712356    0.0334882088
 C    0.1253058226    0.0538193583    0.0123510177
 C    0.8927939940   -0.5423978892   -1.1968186386
 C    1.5420191651   -1.7763891816   -0.6210591989
 C    1.4640263449   -1.8199509095    0.7106556239
 C    2.0165027960   -2.8631910484    1.6255609838
 O    2.7280264246   -3.8338278771    0.8774304450
 C    0.8136474018   -0.5683525909    1.2636092622
 O    1.7819146249    0.2735918686    1.9013102047
 H    1.0082501461    2.0419332327    0.0964353668
 H   -0.4708446846    1.9438248596   -0.8737302820
 H   -0.5581145023    1.9241220665    0.8953065223
 H   -0.8870173888   -0.3681932046   -0.0132134736
 H    0.2245550323   -0.7685952598   -2.0360013530
 H    1.6455234393    0.1552397102   -1.5935443166
 H    2.0306148314   -2.5307863228   -1.2258840490
 H    2.6609015246   -2.3708287458    2.3732175827
 H    1.1862433435   -3.3232405024    2.1914592023
 H    3.0638244060   -4.4943490385    1.4896640097
 H    0.0838304935   -0.7676853783    2.0565916656
 H    2.5357525026    0.3425777771    1.3043448562