17

 C    0.0428119009   -1.2162261094   -0.1390007974
 C   -0.0194665565   -0.0168802354   -0.0876971927
 C   -0.0522970853    1.4396333273   -0.0265485476
 C    1.3556653819    2.0344715267    0.0797047755
 C    2.2223102526    1.9606138373   -1.1930910746
 O    2.2053427642    3.3974817204   -1.3503587858
 C    1.4876997471    3.5805322820   -0.1064533214
 C    0.2774381266    4.3740764646   -0.2399937866
 C   -0.7247200079    5.0316293546   -0.3349457846
 H    0.0800639717   -2.2764003521   -0.1844072706
 H   -0.5523556678    1.8407760693   -0.9163169701
 H   -0.6541109317    1.7661319168    0.8304500147
 H    1.8461011979    1.6681506600    0.9829274717
 H    3.2396168814    1.5784339777   -1.0496532647
 H    1.7642852598    1.4494942983   -2.0476861042
 H    2.1393902772    4.0402124913    0.6493388615
 H   -1.6056337122    5.6186673207   -0.4242627031