20

 C   -0.0204646856    1.5164126616    0.0430340746
 C   -0.0290226111    0.0160688421    0.0400609713
 C    1.1452800794   -0.8295040800   -0.3425200029
 C    0.5889708266   -0.9839239157    1.0673882099
 C    1.4137602133   -0.7833390662    2.3058794346
 C   -0.6705921390   -1.7704847585    0.9798398275
 C   -1.3038317757   -0.8502677650   -0.0567876225
 N   -1.0749731064   -2.7232581853    1.7116767325
 O   -2.3898811344   -3.1025331004    1.3578120787
 H    0.9591637414    1.9086920528    0.3348983923
 H   -0.2478520944    1.9131250323   -0.9540754980
 H   -0.7661053376    1.9199754732    0.7371948320
 H    1.0488412774   -1.6312291259   -1.0709269370
 H    2.1005251118   -0.3126314487   -0.3786220010
 H    2.1228825670    0.0407990726    2.1781370569
 H    0.7794278701   -0.5618035313    3.1700886083
 H    1.9908904199   -1.6839710080    2.5425285674
 H   -2.2011069764   -0.3687893578    0.3447253791
 H   -1.5413263977   -1.2748134055   -1.0374416203
 H   -2.5702275787   -3.8064833362    1.9893890766