19

 C   -0.1756310249    1.6836554070    0.0455623652
 C    0.0166137581    0.1839031145    0.2598225460
 N   -1.2149544162   -0.5428977992   -0.0290778262
 C   -1.7020906016   -0.7396483338   -1.4240600797
 C   -1.9481773305   -2.2197871617   -1.1079382673
 C   -0.6412089684   -2.9010801306   -0.7371753988
 C    0.5953980830   -2.6282100708   -1.4137566864
 N    1.5867986908   -2.4153634183   -1.9727978491
 C   -1.3421360247   -1.9525441753    0.2501203357
 H    0.7401401712    2.2280124199    0.2941164341
 H   -0.4168208196    1.9043269039   -0.9999727605
 H   -0.9911711820    2.0629028586    0.6681261971
 H    0.8675907176   -0.1732506916   -0.3393532636
 H    0.2607723424   -0.0141532056    1.3107185160
 H   -2.6124200900   -0.1693599314   -1.6299125968
 H   -0.9645137900   -0.5461506333   -2.2129887985
 H   -2.8242312575   -2.7940664015   -1.3759772711
 H   -0.7638099215   -3.9459033144   -0.4646589207
 H   -1.6070715962   -2.3170882164    1.2376676244