21

 C   -0.0794058477    1.5060021036   -0.0424463326
 N    0.0562388750    0.0624554957   -0.0457544454
 C    0.8088496211   -0.4832981075   -1.1899247253
 C    1.3998591207   -1.7712953964   -0.6401275667
 N    2.4048435740   -1.7138207037    0.4761488263
 C    2.2417792362   -0.3763874068    1.1391716599
 C    0.6910181279   -0.5194786229    1.1336019970
 C    0.9438681481   -1.9957034036    0.7432153320
 C    0.4149194569   -3.2445692909    1.3708951467
 H    0.8858538733    2.0464420301   -0.0233538336
 H   -0.6207200091    1.8258994011   -0.9388711649
 H   -0.6617544561    1.8205637123    0.8297369668
 H    0.1450760789   -0.6783471707   -2.0414592809
 H    1.5957974726    0.2051401113   -1.5442225047
 H    1.5796431254   -2.6052018501   -1.3095134091
 H    2.6842045385   -0.4318478738    2.1370870171
 H    2.6825915482    0.4708255847    0.6016645203
 H    0.1450678287   -0.2803175642    2.0477311929
 H   -0.6670335319   -3.3279051349    1.2179527117
 H    0.8917166014   -4.1246359594    0.9291072270
 H    0.6060967878   -3.2648333738    2.4495677153