23

 C   -0.0106473439    1.4945717669    0.1162409561
 C    1.3933057796    2.0867153971   -0.1724218378
 C    2.4906296607    1.0150149110   -0.2791527116
 C    2.4009432635    0.0078113782    0.8791848302
 C    0.9837632207   -0.6136458252    1.0536163270
 C   -0.0327206359   -0.0437565241    0.0439612814
 C    0.2142703248   -0.5699802025   -1.3908639168
 C    1.6915912452   -0.7415402275   -1.7546717045
 O    2.4859274893    0.4144286380   -1.5793433129
 H   -0.3387214766    1.7929589821    1.1190563266
 H   -0.7504332891    1.9057458402   -0.5787038364
 H    1.3983255631    2.6523435763   -1.1084844595
 H    1.6742245273    2.7905599696    0.6197057895
 H    3.4648656040    1.5147482142   -0.2289327665
 H    3.1588372453   -0.7693556004    0.7396625914
 H    2.6850907368    0.5477036687    1.7889948011
 H    1.0320673163   -1.7037958421    0.9570183304
 H    0.6162946606   -0.4146596774    2.0661837027
 H   -1.0342615661   -0.3724957788    0.3455201226
 H   -0.2614945637   -1.5525628958   -1.5068449302
 H   -0.2686276913    0.0994141917   -2.1129807839
 H    2.1107241241   -1.5875083820   -1.1871054581
 H    1.7872553852   -0.9991608384   -2.8146755708