16

 O    0.0564768563    0.1043760254    0.1044823043
 C   -0.0214369140    1.2981170407    0.0514960669
 C   -1.2280927795    2.2378638000    0.1638814434
 N   -0.5633574666    3.5551071718   -0.0212367545
 C    0.6651179758    3.3795099419    0.9152463776
 C    1.1035735848    2.3265283517   -0.1933279684
 O    2.0882036246    1.8430905525   -1.1464389081
 C    1.1213966368    2.2738172786   -2.2029489893
 C    0.5224062499    3.2729951975   -1.1492965514
 H   -1.9660221367    2.0505089545   -0.6216709308
 H   -1.7294403468    2.1903974704    1.1342601761
 H    1.2689594170    4.2851481446    0.9313223182
 H    0.4090876115    3.0452327431    1.9240835135
 H    1.6374742570    2.7247053537   -3.0524504338
 H    0.4995989663    1.4300716141   -2.5139249084
 H    1.0680552434    4.2126751995   -1.2282787453