14

 C    0.0411340287    1.4999539060    0.0071995291
 N    0.0194340354    0.0423547648    0.0104715053
 C   -0.0414609138   -0.6375752836    1.2220824158
 N   -0.0976119344   -0.0206707988    2.3331686803
 C    0.0755386376   -0.7192675659   -1.1646186424
 N    0.1067997156    0.0195648170   -2.3259548693
 O    0.1340378024   -1.9339249932   -1.1630288511
 H    0.8834214292    1.8719909999   -0.5827616998
 H   -0.8933965860    1.9176150397   -0.3880438889
 H    0.1485920287    1.8234866050    1.0418817684
 H   -0.0320781448   -1.7162254020    1.0680107194
 H   -0.1313748954   -0.6890607288    3.0995549357
 H   -0.2800108469    0.9477931868   -2.3552092508
 H   -0.0195982661   -0.5385460570   -3.1551760717