21

 C   -0.1780981679    1.5335106442   -0.0837371839
 N   -0.1556266612    0.1226189583    0.2975293350
 C   -1.3959909747   -0.5946393691    0.0258905339
 C   -1.7276968609   -0.6337886409   -1.4253587633
 N   -1.9293305762   -0.6456592145   -2.5642600479
 C   -1.3811712896   -2.0109929168    0.6004484900
 C   -0.3177166921   -2.9355377498    0.0402625615
 C   -1.7666818912   -2.1421012005    2.0507750944
 C   -2.7230409082   -2.5946559398    0.9733443698
 H    0.7984356442    1.9744239896    0.1325224307
 H   -0.4143004214    1.7116947828   -1.1447812477
 H   -0.9236016815    2.0600762349    0.5224432778
 H    0.6132065329   -0.3442616667   -0.1714004299
 H   -2.2037327208   -0.0363947746    0.5154851144
 H    0.6916400850   -2.5877416621    0.2881473588
 H   -0.4239370590   -3.9395847104    0.4604675650
 H   -0.3964407602   -3.0196151881   -1.0492205351
 H   -1.2596354851   -2.8990898408    2.6392265808
 H   -2.0008838361   -1.2381926684    2.6024728506
 H   -3.6132070029   -2.0005654970    0.7943542241
 H   -2.8672288430   -3.6589583904    0.8237453810