17

 O   -0.3330901666    0.4495558169    1.0196263242
 C   -0.1454618471    1.2406672666    0.1259146590
 C    1.1619342254    1.9334050735   -0.0962070727
 C    1.4327662441    2.4908221257   -1.4774171082
 C    1.8185646696    1.3699184156   -2.4675212165
 C    2.1172723106    1.8827476484   -3.8014682747
 N    2.3462728897    2.3097892771   -4.8504906369
 C    1.7178581022    2.5944585736    1.1364024751
 N    2.3137173811    1.3689296008    0.6266405420
 H   -0.9537223371    1.5053530377   -0.5896793762
 H    0.5494430115    3.0260141854   -1.8443671726
 H    2.2479608676    3.2168444898   -1.4285274529
 H    2.6947223969    0.8400191882   -2.0794635803
 H    1.0114206883    0.6324092628   -2.5528694159
 H    2.3112573279    3.4957384998    1.0090816323
 H    1.1197884710    2.5462099386    2.0419072745
 H    1.9693556550    0.5819690495    1.1788146099