17

 O   -0.0103221034    1.4020063000   -0.4783647582
 C   -0.0172829036    0.0439191358   -0.0867674085
 C    0.0595192475   -0.2563808545    1.4568120289
 C   -1.1508871815   -1.2245566970    1.3185367804
 C   -1.4328120254   -0.5732839074   -0.0337205168
 C   -2.6492093050    0.0678863282   -0.5275051211
 O   -2.1208536138   -1.1317571802   -1.1231227538
 C    0.9254408386   -0.7480492879   -0.8668342914
 C    1.7300768065   -1.3715742916   -1.5067661684
 H    0.8572951656    1.6066438558   -0.8419598001
 H    0.9972853670   -0.6695947184    1.8278096655
 H   -0.1940177335    0.6529015384    2.0053691281
 H   -0.8387963098   -2.2659227800    1.2045742784
 H   -1.9344788609   -1.1647195183    2.0754796126
 H   -3.5815732086   -0.0571422415    0.0215989765
 H   -2.5671848737    0.9639051915   -1.1377552320
 H    2.4257228739   -1.9324130332   -2.0811846299