18

 C    0.0310522130    1.5268315692    0.2948191552
 C    1.3164690709    0.8064248418    0.0011883327
 C    2.1995079050    0.3626692183    1.1681532288
 C    1.3703300153   -0.6449276918    1.9941939138
 C    0.5017553784   -0.1420917900    3.1656252280
 O   -0.7170867721   -0.3382876430    2.4200887348
 C    0.0105179579   -0.8485484290    1.2690598742
 C    0.0021324028    0.0403436848    0.0378283505
 H   -0.1799546096    1.8615708034    1.3043076232
 H   -0.3687709909    2.1716520659   -0.4800720441
 H    1.8020164667    1.0103364520   -0.9471999281
 H    3.1004948939   -0.1222834851    0.7784636149
 H    2.5375848380    1.2076427238    1.7801548686
 H    1.9341186402   -1.5505433760    2.2222023874
 H    0.5274634417   -0.7663166783    4.0675974018
 H    0.6474862889    0.9067721464    3.4577068115
 H   -0.2990629355   -1.8734683277    1.0395304185
 H   -0.4644389447   -0.3281055949   -0.8683392418