16

 C   -0.0513991100    1.3622587309   -0.2111142228
 N   -0.0054351342   -0.0375298890    0.1493375830
 C   -1.1504298630   -0.9016212351    0.1558060207
 C   -1.1613864985   -2.0762315160   -0.8421043404
 O    0.1393443464   -2.2628149617   -1.3781448225
 C    0.6928843107   -2.2263032824   -0.0096578481
 C   -0.7281234371   -2.2796145049    0.5850284453
 C    1.1652996184   -0.7689500699    0.1201997373
 O    2.2942636428   -0.3339698547    0.0757015743
 H    0.9725513387    1.7388701234   -0.1766301637
 H   -0.4510174373    1.5064117111   -1.2230212976
 H   -0.6674741209    1.9298485465    0.4946481355
 H   -2.0885906080   -0.4816459092    0.4974026295
 H   -2.0115635728   -2.4042153098   -1.4284866194
 H    1.4354680102   -3.0009339522    0.1621578764
 H   -1.1037531055   -2.8561026869    1.4187986125