17

 C    0.0244243366    1.5580331828    0.1475403789
 C   -0.0512734323    0.0409598230   -0.0364652915
 N   -1.4109323926   -0.4578269921   -0.0529580307
 N   -2.1256140460   -0.5677406238    1.1273726776
 C   -3.2623164094   -1.0632884333    0.6910440615
 O   -4.2699886875   -1.3449836402    1.5304356721
 N   -3.3670571605   -1.2679666381   -0.6511022642
 C   -2.1772451263   -0.8678200758   -1.0814721569
 N   -1.7403865665   -0.9354808733   -2.3933227835
 H    1.0682277799    1.8821746561    0.1987733165
 H   -0.4589717134    2.0843187974   -0.6818350147
 H   -0.4775079990    1.8462290554    1.0741841869
 H    0.4229799596   -0.2737152475   -0.9713373942
 H    0.4698410735   -0.4660172353    0.7809612882
 H   -4.9872257892   -1.6905658724    0.9862695670
 H   -2.5042271990   -1.1735574733   -3.0114726086
 H   -1.2501048578   -0.1148260796   -2.7220396548