22

 C   -0.3767273157    1.4568886460   -0.2482057488
 C   -0.0585437267   -0.0090832100   -0.0551607548
 C    1.3325461921   -0.5495524566   -0.3205697609
 O    2.3423884857    0.3747875032   -0.6092471181
 C    3.2544682037    0.5240309991    0.4723160453
 C    2.5356324035    1.0733059559    1.6955837258
 N    1.4725348182    0.1708899513    2.1081846545
 C    0.6163693980    0.7015027263    3.1501733863
 C    0.7967899139   -0.5752788578    1.0853038870
 H    0.5033900011    2.0841811143   -0.0999395207
 H   -0.7337987333    1.6373587545   -1.2684727119
 H   -1.1597459911    1.7907507832    0.4402308345
 H   -0.8594683433   -0.6801073438   -0.3588758300
 H    1.4492300413   -1.4880255346   -0.8607920693
 H    3.7303958210   -0.4390922890    0.7103956405
 H    4.0250099063    1.2220571761    0.1345801444
 H    3.2482155001    1.1848466205    2.5250552734
 H    2.1641745539    2.0875979223    1.4571693025
 H    0.0150523589    1.5718929957    2.8326114011
 H   -0.0727810456   -0.0767896813    3.4935984879
 H    1.2279707809    1.0112734325    4.0056982463
 H    0.4648140067   -1.5475495279    1.4470689952