18

 C   -0.2895145755    1.5056705393    0.0964635381
 C    0.1439686950    0.0364555353   -0.0446061460
 C    0.7745660568   -0.5093385250    1.1958975149
 N    2.0663429093   -0.8264735448    1.2902728385
 N    2.2065467146   -1.2506602823    2.5377468279
 N    1.1049142715   -1.2461897871    3.2962272078
 C    0.1890929787   -0.7764710564    2.4572757831
 O   -1.1028547556   -0.5872020911    2.7648852669
 C   -1.4792328367   -0.9338501349    4.0955311716
 H    0.5714149183    2.1482488321    0.3044165790
 H   -0.7652838352    1.8591097486   -0.8234332177
 H   -1.0047758698    1.6216319833    0.9159566960
 H   -0.7319182516   -0.5721827199   -0.3005737801
 H    0.8591267024   -0.0709311921   -0.8654807698
 H    3.0902465885   -1.5690326840    2.8960333418
 H   -0.9237169455   -0.3374009785    4.8268775990
 H   -2.5466680136   -0.7233932275    4.1709092946
 H   -1.2881189116   -1.9941032551    4.2917456642