20

 C    0.2134064099    1.4388852128   -0.5301014224
 N   -0.0008717996    0.0220928170   -0.3116501239
 C   -1.0727004471   -0.4627219712    0.3807671106
 O   -1.9329145852    0.2586125275    0.8599201277
 C   -1.1211815230   -1.9789516978    0.5307437381
 C   -1.0000303796   -2.4222766654    2.0200506291
 C   -1.9518972128   -3.5906103110    2.1124995017
 C   -2.7452250431   -3.6751905646    1.0475052722
 C   -2.4715299894   -2.5794530164    0.0458892662
 H    0.2239265465    1.6824266719   -1.5985346833
 H   -0.6130166801    1.9660333729   -0.0520623141
 H    1.1575550436    1.7741859026   -0.0860170060
 H    0.6702305573   -0.6319230154   -0.6774612179
 H   -0.3077357055   -2.4453125864   -0.0361536436
 H    0.0306817600   -2.6773927900    2.2907649638
 H   -1.3165171805   -1.6106313484    2.6879473299
 H   -1.9949334450   -4.2362981385    2.9826423316
 H   -3.5378496730   -4.4023899460    0.9100958356
 H   -3.2580065359   -1.8148672875    0.0800477005
 H   -2.4153408875   -2.9390217460   -0.9877168958