20

 C    1.6289622929    0.9539677398   -0.9841504785
 N    0.8397378196   -0.1089106891   -0.3792739104
 C    1.5029254667   -1.2549098917    0.2207779575
 C    0.7283866450   -0.2942182390    1.0604462519
 C    1.3857642101    0.5710356304    2.1658866561
 C    1.0348252880   -0.0682660396    3.5291406741
 N    2.8394243431    0.7629555267    2.1338900526
 C    0.7684383565    1.9153641748    2.1074726670
 N    0.2668002804    2.9543034430    2.0428650385
 H    2.6697359289    1.0187830846   -0.6313223095
 H    1.6649532255    0.7809471732   -2.0643331747
 H    1.1404627663    1.9164115408   -0.8102427730
 H    1.0983002013   -2.2360355900   -0.0168049093
 H    2.5896742685   -1.2227914784    0.2992866126
 H   -0.2809632950   -0.5830603735    1.3523004098
 H    1.4581352201   -1.0768823872    3.5710754963
 H    1.4626902074    0.5289262660    4.3357274711
 H   -0.0457718156   -0.1414777281    3.6676719065
 H    3.3049201856   -0.1383785654    2.1560630211
 H    3.1373007150    1.2502996325    1.2976110805