16

 C   -0.0956429220    1.5867682847    0.0267339893
 C   -0.0129597352    0.0456678460   -0.0382798444
 C    0.7972975109   -0.4932529799   -1.2022000799
 C    1.8270070432   -1.2450115954   -0.8156301567
 C    1.9277693110   -1.3906101936    0.6765329637
 C    0.7980582305   -0.4980266649    1.1963674860
 O    0.5727794057   -0.2032494084    2.3341139035
 C   -1.3616317899   -0.5302714749   -0.0230833413
 N   -2.4225648219   -0.9901716702   -0.0249810950
 H    0.9103706781    2.0121622144   -0.0198824802
 H   -0.6809757484    1.9770056724   -0.8093457943
 H   -0.5656159857    1.8912801880    0.9644339604
 H    0.5286542786   -0.2648846219   -2.2263586354
 H    2.5310451734   -1.7139802591   -1.4927347654
 H    1.7729333684   -2.4211278856    1.0231668072
 H    2.8869530433   -1.0675214715    1.0982328825