11

 O    0.0781893069    1.3017961204    0.1849928937
 C    0.0686794902   -0.0235093311    0.0294555792
 N    0.0800700026   -0.6810800946   -1.1083031758
 C    0.0628071206   -2.0030400509   -0.7487249958
 C    0.0406887175   -2.1409492935    0.6207164746
 N    0.0450212177   -0.8306563497    1.1117051641
 C    0.0178202654   -3.2722062373    1.4560863703
 N   -0.0011053409   -4.1983290995    2.1541357436
 H    0.0950601988    1.6865594237   -0.7013346048
 H    0.0669044245   -2.7930092842   -1.4830399880
 H    0.0329416465   -0.5462144033    2.0772489588