18

 C    0.3556586564    0.9816259547   -0.9203676633
 O   -0.6322336580   -0.0121232602   -0.7024135681
 C   -0.4581567418   -1.1740482223   -1.4809086976
 C    0.5669557020   -2.1065271387   -0.8618303568
 O    0.9552334888   -3.2602739188   -1.6183140529
 C    1.9551758225   -2.2760010585   -1.3352604605
 C    2.5285806402   -1.4879702691   -2.4900415012
 N    2.0578689051   -1.8579922208   -3.7084204518
 O    3.3389503538   -0.6016621860   -2.2952695396
 H    1.3716690328    0.6240520906   -0.7108169026
 H    0.3294765190    1.3468571978   -1.9579244834
 H    0.1214238621    1.8098039219   -0.2478134345
 H   -1.4263567672   -1.6878893814   -1.4928434247
 H   -0.1877918105   -0.9366860916   -2.5193955607
 H    0.3854737935   -2.3090192944    0.1946105651
 H    2.7103493301   -2.5666182957   -0.6067990332
 H    1.4509010244   -2.6570222638   -3.7871067421
 H    2.4336805169   -1.4187163938   -4.5323178123