14

 N    0.1313647084    1.3929179679    0.3888550342
 C   -0.0222429726    0.0442994439    0.0266515315
 C   -1.1743152749   -0.6032893736   -0.1680494800
 O   -1.2201037986   -1.9614405495   -0.4085244543
 C   -0.0763812749   -2.6967040125   -0.5886037134
 N   -0.1083945306   -3.9238101307   -0.8844318695
 C    1.2634552231   -2.0079553169   -0.3819126263
 O    2.3197242426   -2.5877550484   -0.4537455729
 N    1.1731996870   -0.6667816749   -0.0776075705
 H    0.6053058051    1.9369350204   -0.3269048444
 H   -0.7569217827    1.8303314901    0.5979359237
 H   -2.1533477588   -0.1511444343   -0.1498078828
 H   -1.0761486328   -4.2411825921   -0.9703199196
 H    2.0358129297   -0.2131285293    0.1890734144