19

 C   -0.0263601913    1.5501203100    0.1234751708
 C    0.0247644622    0.0522570385    0.0302453232
 C   -0.8993098990   -0.8701899466    0.7825340370
 C    0.5884549355   -0.9612086415    1.0198583024
 C    1.3240143468   -1.6711973859   -0.1485588518
 N    0.3155262774   -2.1141093118   -1.1532085099
 C    0.7872607162   -0.7039598231   -1.1253807583
 C    1.3945473860   -0.0476170827   -2.3255497728
 H    0.9564417777    2.0063413631   -0.0447523925
 H   -0.7201540657    1.9792034843   -0.6103343357
 H   -0.3658983985    1.8612848855    1.1167489861
 H   -1.4489633092   -0.3866255608    1.5853646742
 H   -1.4248191779   -1.6722041451    0.2808439593
 H    1.0451876465   -0.7741709220    1.9836486071
 H    2.2966347987   -2.1444375134   -0.0920874949
 H    0.8313895740   -2.5797965808   -1.9002952772
 H    0.6299688665    0.2273294681   -3.0624729091
 H    1.9356418217    0.8644915572   -2.0533079545
 H    2.1059182221   -0.7210316930   -2.8165553633