15

 O    0.0951998214    1.3182111316   -0.0443757886
 C   -0.0318926811   -0.0699997309   -0.0252799135
 C    0.3659582021   -0.6869225539    1.3409296796
 O   -0.5345700238    0.0560189695    2.2197378066
 C   -1.5539683617   -0.7725775616    1.6297593674
 C   -0.5622478383   -1.9606981691    1.3940420208
 C   -1.1942863689   -2.1217268993    0.0161438530
 O   -1.4672501182   -3.0464921411   -0.6914331112
 C   -1.4992442923   -0.6221949702    0.0407475990
 H   -0.2220779863    1.6202809953    0.8195602134
 H    0.5250418054   -0.4685854161   -0.8764064261
 H    1.4045364137   -0.6751794137    1.6663044189
 H   -2.5025954557   -0.8122882635    2.1577126953
 H   -0.3519547521   -2.7554938617    2.1042595879
 H   -2.2579785342   -0.1425331853   -0.5695244425