20

 C    0.0617820150    1.4431113334   -0.1096784940
 N    0.0022446136    0.0068279957    0.0940041762
 C   -1.3662173170   -0.5349286157    0.3440555126
 C   -1.1335720864   -1.3763957868    1.6236878242
 C   -2.2670078066   -2.2015913860    2.1750815625
 C   -0.2786017554   -0.3529470113    2.4638816628
 C    0.7337048050   -0.4927349665    1.2743787948
 C    0.2561484697   -1.9598794518    1.2825443400
 O    0.7465188818   -3.0480315073    1.2578051178
 H    1.0976253551    1.7446991123   -0.2950958917
 H   -0.5248154385    1.7033814993   -0.9966585265
 H   -0.3236062159    2.0421360429    0.7358733576
 H   -2.0988331487    0.2639223402    0.5251916299
 H   -1.7192504193   -1.1399789201   -0.4990570145
 H   -2.6357103298   -2.9055852629    1.4215641103
 H   -1.9417372735   -2.7847356129    3.0417009834
 H   -3.1077221863   -1.5709829611    2.4841435921
 H   -0.7235876042    0.6328180004    2.6169847700
 H    0.0862895565   -0.7657544085    3.4068324380
 H    1.7785760549   -0.1950101132    1.3214055844