15

 C    0.0916241893    1.3448349146    0.1710376482
 N    0.0288507213   -0.0992204907    0.0793378545
 N    0.1024165941   -0.7168008056   -1.1209707035
 C    0.0180909414   -2.0143743222   -0.8456631805
 C   -0.1224945765   -2.2616594511    0.5358316921
 C   -0.1087225863   -0.9969346330    1.0849773107
 O   -0.2361597192   -0.5529651074    2.3700179234
 C    0.5668169665   -1.1286229282    3.3226970086
 O    0.4592228456   -0.8559175259    4.4736313050
 H    1.0786059101    1.7025166070   -0.1346742575
 H   -0.6642811624    1.7856787255   -0.4822820825
 H   -0.1001512993    1.6379869961    1.2031636572
 H    0.0511972854   -2.7336029736   -1.6507049299
 H   -0.2478323207   -3.1993459427    1.0505661119
 H    1.2838920207   -1.8399843827    2.8796310523