17

 C    0.0189422994    1.4690182423    0.1042888274
 C    0.0711259330   -0.0202343044   -0.0274300069
 N    0.8976914817   -0.7526926546   -1.0534011901
 C    0.2044338476   -1.8500831992   -0.3125200023
 C    0.4129704746   -3.3041058628   -0.5233324179
 O   -0.3801016481   -4.1439158673   -0.1670589773
 C    0.3783195170   -1.0845462515    1.0685852050
 N   -1.0476631258   -1.1844533889    1.4821208183
 C   -1.1119398603   -1.0575454609   -0.0113542759
 H    1.0240047025    1.8793396452    0.2410738692
 H   -0.4194830217    1.9287760311   -0.7879604908
 H   -0.5952338941    1.7398497271    0.9680015855
 H    0.4821806700   -0.6390864945   -1.9828751999
 H    1.3805328273   -3.5737269899   -1.0020277046
 H    1.2289110916   -1.1377650150    1.7484790509
 H   -1.2685324324   -2.1437638029    1.7578831369
 H   -2.0445934222   -1.0562154638   -0.5789479677