17

 O    0.0418096861    0.2698195451   -1.1359615562
 C   -0.0032651691    1.2146599845   -0.3785263813
 N   -1.1553236939    1.8810816924   -0.0673281886
 C   -1.2491645757    3.0232085460    0.8327667758
 C   -0.6444696021    4.3109036611    0.2423743247
 C    0.6748058615    4.0139233692   -0.4949809547
 N    1.5244440320    3.0636052719    0.2110249782
 C    1.2763404489    1.7253303801    0.3361967647
 O    2.0016626207    0.9614532158    0.9352485912
 H   -1.9844151542    1.5343852476   -0.5274838657
 H   -2.3027670240    3.1726289549    1.0783914142
 H   -0.7425406588    2.7812580345    1.7727399544
 H   -1.3390129054    4.7784797592   -0.4647662654
 H   -0.4821243483    5.0235561417    1.0589744595
 H    0.4533661939    3.6235163169   -1.4936322423
 H    1.2467489695    4.9327034431   -0.6414745669
 H    2.3650731189    3.3846584261    0.6688476583