16

 C   -0.0176515659    1.4457476919    0.0002937505
 N   -0.0051862898   -0.0126825711    0.0055189088
 N   -0.0346971954   -0.6253655165   -1.1914675661
 C   -0.0228965339   -1.9258405691   -1.1689099909
 N    0.0158560135   -2.7262023974   -0.0609926008
 C    0.0445842637   -2.1359703989    1.0977025330
 C    0.0881783899   -2.9277397753    2.3634062059
 C    0.0362976065   -0.6672568043    1.2311126340
 O    0.0622743872   -0.0544701013    2.2874989262
 H    0.8797113129    1.8270460062    0.4940769079
 H   -0.0548715879    1.7680564589   -1.0382739816
 H   -0.8864937784    1.8117293852    0.5530223386
 H   -0.0470843967   -2.4186041528   -2.1335173973
 H    0.0870778811   -3.9946393904    2.1404147881
 H    0.9792508178   -2.6631832317    2.9431755791
 H   -0.7674954647   -2.6721639134    2.9978248946