19

 C   -0.1365949368    1.2944165233    0.2588473516
 C   -0.5238474825   -0.0749580864   -0.2375235813
 O   -0.8084738638   -0.3335749502   -1.3873451918
 O   -0.5027007548   -0.9716774152    0.7573088109
 C   -0.7066320689   -2.3690492536    0.4337999191
 C   -2.1345607945   -2.7246057169    0.0086041731
 O   -2.3251789379   -2.6485723911   -1.3915059734
 C   -2.4705509170   -4.1721680122    0.3823422503
 O   -3.7353758882   -4.5384193417   -0.1165858331
 H    0.9185710031    1.2937005504    0.5487279211
 H   -0.2997030362    2.0280425865   -0.5293110470
 H   -0.7178609852    1.5526383339    1.1474315793
 H   -0.0066630756   -2.6638920756   -0.3539343759
 H   -0.4426841765   -2.8789877147    1.3634166631
 H   -2.8317917616   -2.0552833744    0.5398073294
 H   -1.9180217263   -1.8216281197   -1.6934500942
 H   -1.6748477191   -4.8320546138   -0.0055555535
 H   -2.5009465429   -4.2840273387    1.4716460996
 H   -3.7549884354   -4.2149928300   -1.0265659174