16

 C    0.3374692333    1.3851566966    0.3015418754
 C   -0.2432898722    0.0069579710   -0.0458425815
 O   -1.6661003595    0.0449767234   -0.1348973966
 C    0.3643827849   -0.5437629558   -1.2627734988
 C    0.8462847890   -0.9671903986   -2.2812422168
 C    1.4315186030   -1.4943824526   -3.5159907547
 C    2.1152243738   -2.7771016375   -3.3395910658
 C    2.6805092245   -3.8277315799   -3.2074905462
 H    1.4175012951    1.3235306722    0.4636467498
 H    0.1558988826    2.0936185065   -0.5133409659
 H   -0.1406366518    1.7626198180    1.2091555534
 H   -0.0422408105   -0.6783150954    0.7865651068
 H   -1.8908789469    0.5223305346   -0.9412845649
 H    0.6426938066   -1.6061265676   -4.2728947694
 H    2.1372687060   -0.7621635610   -3.9321670182
 H    3.1775904823   -4.7579589636   -3.0849292264