21

 C   -0.1344002531    1.4848960163    0.0686382283
 C    0.0321790976   -0.0300343023    0.1171273180
 C    1.2359478658   -0.4648088313   -0.8028845281
 C    2.1174165748   -0.4512109087    0.5114080248
 C    0.7931415670   -0.6739397643    1.2737999826
 C   -0.1700295577   -0.3927906398    2.4637387206
 C   -1.0865500031   -1.3019002040    1.5451479340
 C    0.1783429692   -2.1162629477    1.2569061720
 O   -1.2784629389   -0.6182925435    0.2775661374
 H    0.8276911138    2.0065475694    0.0844895841
 H   -0.6404024092    1.7497800789   -0.8663503464
 H   -0.7503472551    1.8550658131    0.8908656885
 H    1.1402910270   -1.4640802430   -1.2260691993
 H    1.5131701375    0.2354909694   -1.5938652849
 H    2.8800310885   -1.2251432167    0.6164683985
 H    2.5775296684    0.5255675367    0.6787792310
 H    0.0652759476   -0.9032595554    3.3996439641
 H   -0.4687508866    0.6384601387    2.6556160869
 H   -2.0337746804   -1.7187633502    1.8832897938
 H    0.1803735502   -2.6992566363    0.3350271613
 H    0.5399978070   -2.7118453592    2.0983370928