17

 N    0.5787442466    0.1339368148   -0.9735210301
 C   -0.0745432380    0.1949476307    0.2158662127
 O    0.3461888096    0.7729434516    1.2028172467
 C   -1.3829292905   -0.5548759918    0.2403027539
 C   -2.3912001215   -0.1955679133    1.3281225033
 C   -3.1006729857   -1.5001325867    1.6081983896
 C   -2.5674344514   -2.5186380663    0.9258343199
 C   -1.4788466729   -2.0459229437    0.0220108542
 N   -1.8661075593   -1.0944537756   -1.0395580789
 H    1.4238742175    0.6681827845   -1.0835180193
 H    0.0870198632   -0.2242937897   -1.7771251407
 H   -1.8470249748    0.1817892227    2.2012271962
 H   -3.0773078900    0.6029223353    1.0171822932
 H   -3.9503294643   -1.5686223871    2.2779093617
 H   -2.8746070466   -3.5561237024    0.9806524585
 H   -0.6203605883   -2.6669591361   -0.2108499638
 H   -2.8808253835   -1.0309511968   -1.0979303573