15

 N    0.0197123986    1.3910420478    0.1527579278
 C   -0.0284280717    0.0315685425    0.0723511610
 C   -1.1791440439   -0.7098001439    0.0716607512
 O   -2.3756977776   -0.0416229949    0.1097408087
 C   -1.0999617879   -2.1288404212    0.0360431697
 N    0.0162725413   -2.7979422193   -0.0047267718
 N    1.1382686285   -2.0451067576   -0.0162182539
 C    1.2518043717   -0.6629905397    0.0048824634
 N    2.3445266908    0.0221511554   -0.0348794756
 H    0.9221488598    1.7833104114   -0.0784830916
 H   -0.8061114309    1.9067535776   -0.1009560422
 H   -3.0983776800   -0.6754162969    0.0708264948
 H   -2.0071155605   -2.7284179288    0.0448199573
 H    1.9868334722   -2.5886191285   -0.0594984193
 H    3.1730170195   -0.5681041140   -0.0935097394