20

 C   -0.0255972053    1.6017566291   -0.0268607169
 C    0.0688233055    0.0870348850    0.0271701179
 C    1.0261398411   -0.6592453714   -0.9433754648
 C    1.3744286570   -1.6424028042    0.2079314290
 C    2.8177875619   -2.0197652257    0.4668100657
 O    3.6268686269   -0.8802844061    0.8033280974
 C    3.0329719001    0.0720291821    1.5632607824
 N    1.8098119330    0.2514456958    1.8311785847
 C    0.8101120500   -0.6084951597    1.2257647142
 H    0.9571652779    2.0615932926    0.1069337834
 H   -0.4305290871    1.9271426055   -0.9917629784
 H   -0.6805664759    1.9886910513    0.7607752479
 H   -0.9320748847   -0.3535196646   -0.0472530220
 H    0.5943555460   -1.0867562534   -1.8513577615
 H    1.8861076606   -0.0423078306   -1.2229668873
 H    0.7642898802   -2.5493357246    0.1620828359
 H    2.8774344452   -2.7310011150    1.3017811183
 H    3.2976838884   -2.4730281211   -0.4053157438
 H    3.7901501401    0.7495160788    1.9559756367
 H    0.1590538391   -0.9883117139    2.0186030011