19

 C    0.0942192852    1.5169717664    0.0953243259
 C   -0.1284566450    0.0118055997   -0.1080886594
 C    0.6808710114   -0.5387028732   -1.2374492312
 O    0.3220035919   -0.0845764960   -2.5853355093
 C    0.4218891068   -1.3894224629   -3.0582334573
 O    0.1239552447   -1.7837909859   -4.1384052095
 C    0.9238788576   -1.9442434514   -1.7570487956
 C    2.0803232578   -1.0457698178   -1.2584287948
 C    3.1924262546   -0.5194460175   -2.1364705285
 H    1.1390135312    1.7322625352    0.3404680045
 H   -0.1605067643    2.0705899134   -0.8126534789
 H   -0.5302833010    1.8926443109    0.9105780625
 H    0.1361127228   -0.5381571417    0.8025591380
 H   -1.1883778229   -0.1869249438   -0.3052225943
 H    0.7076013117   -2.9188864063   -1.3433278480
 H    2.4053315214   -1.3840089209   -0.2745898068
 H    2.8024856177   -0.1134131941   -3.0719849712
 H    3.7351162835    0.2813958474   -1.6233062492
 H    3.9080613151   -1.3121653614   -2.3745766770