19

 O   -0.0884244202    1.3450471246   -0.1281158417
 C   -0.0508760630   -0.0398347507    0.0539352971
 C   -0.6112939037   -0.6457424737    1.3232607017
 C   -1.3708816641   -0.7288274628    0.0290419260
 C   -2.7112805405   -0.1046260585   -0.3387306331
 O   -3.0544766891   -1.2718566613   -1.1307390440
 C   -1.8293727566   -1.9184940530   -0.7774782038
 C   -1.0993171919   -2.8075828977   -1.7268339163
 C   -1.7664081368   -3.3799861767   -0.4799664853
 H    0.5937733387    1.7390381048    0.4256811359
 H    0.7929636254   -0.5473505340   -0.4160434768
 H   -0.1483373464   -1.5463602778    1.7157132140
 H   -0.9915848439    0.0396673788    2.0748806712
 H   -3.4141571441    0.0423612814    0.4899321959
 H   -2.6564072941    0.8045303989   -0.9458384564
 H   -1.5764337202   -2.9998525201   -2.6818389475
 H   -0.0154610911   -2.7587812754   -1.7632337786
 H   -1.1380016541   -3.7191157938    0.3378996738
 H   -2.6796226443   -3.9488707331   -0.6178970322