18

 C    0.0473326335    1.5707907063    0.1108000266
 O    1.4678102641    1.5608622092   -0.1459966835
 C    1.4125335756    0.1507857218   -0.5075897417
 C    2.4629648198   -0.7132870382    0.1071606170
 C    2.1499006675   -1.7207280122    0.9228591510
 C    0.7386018333   -1.9863765629    1.3881944691
 C   -0.0793630575   -0.6845399548    1.4065823579
 C   -0.0236291593    0.0300305235    0.0537031306
 H   -0.1943439742    2.0411662901    1.0713747184
 H   -0.5069029477    2.0821619127   -0.6885556999
 H    1.4483738740    0.0553743066   -1.6044413966
 H    3.4936735229   -0.5228890662   -0.1810646855
 H    2.9323220999   -2.3774784723    1.2956179763
 H    0.2567125441   -2.7352237582    0.7424318315
 H    0.7577027461   -2.4298290002    2.3901823106
 H   -1.1177932389   -0.8798277351    1.6948668350
 H    0.3495694520   -0.0305744349    2.1748413431
 H   -0.7539963451   -0.3878198451   -0.6435946298