18

 O    0.0062900855    1.4392963213   -0.0284964140
 C    0.0938344253    0.0455023252    0.1005748431
 C    0.2139938207   -0.3761309538    1.5950907072
 C   -1.3054047918   -0.5939941932    1.5859088688
 O   -2.1639023625   -0.6353936306    2.4170381596
 C   -1.3366730419   -0.6008190075    0.0359039714
 N   -2.3266531090    0.2081174240   -0.6324218709
 C   -3.0998366257   -0.3735503999   -1.7309491978
 C   -3.7382537050   -0.1168323629   -0.4130875896
 H   -0.8612869282    1.6082627190   -0.4341970976
 H    0.8429948765   -0.3737965824   -0.5800660210
 H    0.7572147329   -1.3147683532    1.7492250207
 H    0.5955102380    0.3866703349    2.2756434964
 H   -1.2948046730   -1.6427739422   -0.3180315215
 H   -3.2865370168    0.2882916707   -2.5710944054
 H   -2.8902466752   -1.4067535217   -2.0004440729
 H   -3.9609588817   -0.9687990685    0.2217949976
 H   -4.3949749082    0.7368736009   -0.2772681242