17

 C   -0.1166121378    1.4825335570   -0.0240695192
 C    0.1008580238    0.0015594061    0.0459091744
 C    1.0426970679   -0.8168695383   -0.8734333279
 C    0.7016698434   -1.9214870691    0.1880190423
 O    1.3617364231   -3.1167209599    0.3228704762
 C    0.7003718643   -0.7669923552    1.2509657459
 C   -0.7968968269   -2.0076117150   -0.0516179843
 O   -1.4867281426   -2.9834495330   -0.1394497169
 O   -1.1908808146   -0.7143938772   -0.1456749863
 H    0.8326493672    2.0066893673    0.1170744895
 H   -0.5294506494    1.7670877604   -0.9961134874
 H   -0.8124524877    1.8082592378    0.7543828803
 H    0.7298482601   -0.9711806170   -1.9086244003
 H    2.0838088753   -0.4937095368   -0.8154708880
 H    0.6950936627   -3.8138241766    0.2312314538
 H    1.7094151951   -0.4392060314    1.5080178804
 H    0.0770354361   -0.8760403890    2.1413989475