21

 C   -0.1401670769    1.6302135990   -0.0267737364
 C    0.0661578781    0.1139384965   -0.0139842863
 C    1.0588236697   -0.6953741317   -0.9131330760
 C    2.4692005911   -0.2172526485   -0.4891067558
 N    2.5120366706    1.0565746416    0.2705065131
 C    2.3018902787   -0.2275753138    0.9834535721
 C    0.8330912618   -0.7093138160    1.0736270035
 N    0.7812926245   -1.8237155401    0.0536707691
 C    1.6969093325   -2.9499607598    0.1497997409
 H    0.4034217003    2.1117852915   -0.8410849075
 H   -1.2054023268    1.8566313526   -0.1460450717
 H    0.2064514254    2.0996482294    0.8951697112
 H   -0.8937789907   -0.3895300898   -0.1265933708
 H    0.8734824540   -0.8873703898   -1.9713298431
 H    3.3603472753   -0.5661485177   -0.9971576546
 H    3.4896347102    1.3241033857    0.3834565738
 H    3.0569041501   -0.5848656926    1.6735867450
 H    0.4153998026   -0.9156603119    2.0605155055
 H    1.3989027214   -3.5726170619    1.0005060425
 H    1.5983106141   -3.5603085076   -0.7546137963
 H    2.7605895840   -2.6940402752    0.2724448820