14

 C   -0.0349863310    1.5784979754   -0.0178586583
 C   -0.0122354733    0.0840153183    0.0144500279
 C   -0.0250912494   -0.7808099366   -1.0610433453
 N    0.0054163886   -2.0452628504   -0.5593536789
 N    0.0376990124   -2.0910315233    0.7700386946
 C    0.0270967435   -0.8088951543    1.1164856223
 N    0.0553239567   -0.4574027014    2.5216400708
 O    0.0883037810   -1.3545163997    3.3467341910
 O    0.0434952275    0.7462119813    2.7762387173
 H    0.8460374953    1.9978949315    0.4748732636
 H   -0.0640526383    1.9373054728   -1.0501851120
 H   -0.9044013323    1.9721256514    0.5151399705
 H   -0.0531097733   -0.5898656006   -2.1223066160
 H    0.0059836625   -2.9124437844   -1.0717789377