16

 C   -0.0961841454    1.5589919377    0.0101277860
 C    1.4350510861    1.2444453533   -0.0080637972
 C    1.2700183574    0.0410329688    0.9658216165
 C    1.8691684356   -1.0015630282    0.0191023009
 O    1.1363232714   -2.2586723241    0.0489132056
 C   -0.2140319012   -2.1576146297    0.0676254999
 N   -0.8946021993   -1.0775585180    0.0616026170
 C   -0.0013346715    0.0293279794    0.0316398551
 C    1.2414962751    0.0124662060   -0.9400834152
 H   -0.4865547832    2.0455285181    0.9094795620
 H   -0.5134964909    2.0185348187   -0.8913222707
 H    2.2657300477    1.9479408489   -0.0310400988
 H    1.2431242854    0.0546415802    2.0545134044
 H    2.9252257824   -1.2726264587    0.0073600193
 H   -0.6806998124   -3.1388968309    0.0892854761
 H    1.1820478831   -0.0065392016   -2.0274025610