20

 C    0.0909420235    1.5730042958    0.0456738146
 C    0.0785576480    0.0359631313    0.0793832612
 C    0.8153275500   -0.4685411655    1.3282350874
 C   -1.3628799644   -0.5002529728    0.0151669951
 C   -2.1513855384    0.0224239455   -1.1791979142
 O   -3.3574252133    0.0255533681   -1.2343821277
 C   -1.4399987825   -2.0492475203   -0.0716496695
 N   -2.6893447136   -2.5400722236    0.1710339737
 O   -0.4766117597   -2.7444831775   -0.3188575404
 H    1.1194721906    1.9461292995    0.0609216987
 H   -0.3927865018    1.9840686968   -0.8465220138
 H   -0.4236450994    1.9866961425    0.9211574163
 H    0.6060518318   -0.3466271879   -0.8032572591
 H    0.3090133724   -0.1320970347    2.2414705563
 H    0.8734835968   -1.5572708405    1.3406435021
 H    1.8344683847   -0.0696796194    1.3533601909
 H   -1.9251828825   -0.2002756973    0.9084579584
 H   -1.5407986917    0.3662331519   -2.0408843325
 H   -3.4795803571   -1.9172847612    0.0854085495
 H   -2.8385753933   -3.5157947206   -0.0367054572