15

 C   -0.1578628502    1.6311173033   -0.0518156706
 C    0.0131282390    0.1254486723    0.0142671868
 C    1.1810528722   -0.6494207363   -0.6640678670
 C    2.1846307190   -0.1277525264    0.3917251279
 C    0.8838870394   -0.5931343748    1.0998252045
 O    0.8876176324   -1.7948602266    0.2400117064
 C    0.6217474575   -0.7400942567    2.5112171840
 N    0.4063045283   -0.8098381639    3.6445546457
 H    0.7784447280    2.1821173399    0.0629837334
 H   -0.5961947599    1.9144814126   -1.0143449263
 H   -0.8436039747    1.9679143514    0.7322024883
 H   -0.9340871879   -0.4031189256   -0.1161914192
 H    1.3422873673   -0.8775846645   -1.7159272093
 H    3.0423720374   -0.7759413156    0.5679516246
 H    2.4387839224    0.9319366708    0.4120486309