20

 C   -0.2583673034    1.5232012878   -0.0575219252
 C    0.1160977164    0.0391341477    0.0624578692
 C    0.7759260021   -0.5051386963   -1.1747251272
 C    0.0223629328   -0.9865421406   -2.3845532205
 C    0.9515471552   -1.9398288824   -1.6835073986
 C    2.3951048092   -1.6604611227   -2.1065089035
 C    2.2391122821   -0.1871954434   -1.5741491528
 C    2.4628970272    0.9050489750   -2.5123820010
 N    2.6263958843    1.7617278805   -3.2722880356
 H    0.6229295276    2.1425217525   -0.2535350495
 H   -0.9627368693    1.6843782497   -0.8794159614
 H   -0.7223153826    1.8849623691    0.8648911848
 H    0.7811283095   -0.1043738985    0.9249735005
 H   -0.7838248553   -0.5533690616    0.2696987373
 H   -1.0354620229   -1.1600132990   -2.2136782801
 H    0.2568999853   -0.6153647942   -3.3795695341
 H    0.5997457986   -2.8606714490   -1.2344993100
 H    3.1439503308   -2.2104308936   -1.5345050769
 H    2.6149431897   -1.7614975158   -3.1726925941
 H    2.8638577929   -0.0266014452   -0.6913053311