19

 C   -0.0695138504    1.4900665205   -0.1619080674
 C    1.3735359327    1.9631475851    0.1811037687
 C    2.2484024293    0.7343473433   -0.1380337602
 C    3.4120431075    0.3257090807    0.7491936022
 O    3.0137734003   -0.1035080781    2.0576958680
 C    3.2757690976   -1.1092166550    1.0712451969
 C    2.0124663368   -1.6785020626    0.4234262144
 C    1.2766108147   -0.4223306679    0.0475449964
 C    0.0127362053   -0.0120797347    0.0418101979
 H   -0.8263990051    1.9591219902    0.4764443115
 H   -0.3395314670    1.7443020654   -1.1974324749
 H    1.6695933810    2.8660970129   -0.3596402615
 H    1.4350793007    2.1722517494    1.2540208594
 H    2.6197387694    0.7760919079   -1.1751123712
 H    4.3779942772    0.8221565194    0.6953363715
 H    4.1276804958   -1.7520102483    1.2790552011
 H    2.3013648732   -2.2784048123   -0.4513475669
 H    1.4448119405   -2.3276932947    1.0968560294
 H   -0.8616355895   -0.6362741211    0.1897338247