19

 C    0.0028714485    1.4963377913    0.0709711043
 N    0.0523920706    0.0381628614   -0.0063000018
 C   -1.0844543690   -0.8002170124    0.5204456923
 C   -0.0879544975   -1.9869333692    0.4636433283
 C    0.6542637179   -0.7851793770    1.1223256323
 C    2.0854848906   -0.6650160659    1.5523283470
 C   -0.6449868419   -0.6090702877    2.0151831665
 C   -0.9159349268    0.5871695918    2.7905547358
 N   -1.1452979656    1.4828953956    3.4871850440
 H    1.0073983174    1.8808033878   -0.1341369878
 H   -0.6516657913    1.8523894366   -0.7314207542
 H   -0.3445597119    1.9329189571    1.0133338637
 H   -2.0959432397   -0.7352741284    0.1194458574
 H   -0.2966657987   -2.8563639943    1.0889988422
 H    0.2593958306   -2.2382201791   -0.5367212185
 H    2.7484482980   -0.8193156960    0.6954498364
 H    2.2883754172    0.3247199792    1.9737546894
 H    2.3236351258   -1.4133623186    2.3143761429
 H   -0.8612701839   -1.4668996323    2.6599487599