21

 C    0.0254089221    1.3384490584   -0.2141958780
 O   -0.0901687655    0.0614177531    0.3709355130
 C   -1.3211255582   -0.5521968838    0.1263793936
 C   -1.6229241680   -1.1731438347   -1.2911276513
 C   -1.8310764711   -2.5197060363   -0.5778690404
 C   -2.7177200280   -3.6550995210   -0.9730219779
 O   -0.5675227286   -2.8163818284    0.0370246429
 C   -1.4705414407   -1.9481831281    0.7424812718
 C   -1.8256288466   -2.2953203427    2.1514712871
 H    1.0061097772    1.7342538251    0.0601082664
 H   -0.0446845480    1.2967917544   -1.3115570440
 H   -0.7521393412    2.0271821031    0.1538667835
 H   -2.1522505381    0.1022547906    0.4378045526
 H   -2.5152315378   -0.7575003051   -1.7657589030
 H   -0.7849832861   -1.1713206096   -1.9920180808
 H   -2.3340197996   -4.1506272145   -1.8722149994
 H   -2.7715334086   -4.4002026638   -0.1746331632
 H   -3.7299506345   -3.3000543724   -1.1925344733
 H   -0.9888602089   -2.0727590969    2.8225272203
 H   -2.6921254258   -1.7174070518    2.4893620557
 H   -2.0568888040   -3.3601896057    2.2398346445