17

 C    0.2000604688    1.6875551851   -0.1592406291
 C    1.1458921444    0.5360469401   -0.4916899246
 C    0.4814722886   -0.5560963191   -1.3012746828
 O   -0.6836029983   -0.5313761107   -1.6283650044
 C    1.3149932231   -1.7345371005   -1.7629982881
 N    2.7727237402   -1.6743184475   -1.6710947618
 C    2.0748278359   -2.6537336643   -0.8355396869
 C    2.1319874847   -2.4692284960    0.5953570634
 N    2.1682885458   -2.3536023120    1.7449942555
 H   -0.1941421369    2.1477132943   -1.0690690950
 H   -0.6544700919    1.3358290966    0.4241018824
 H    0.7220932805    2.4541234152    0.4193546192
 H    2.0259217313    0.8736129302   -1.0537828861
 H    1.5600719910    0.0874567171    0.4204666826
 H    0.8540337678   -2.2434938202   -2.6069065414
 H    3.2168884906   -2.1335656299   -2.4614710350
 H    2.0892531742   -3.6999982284   -1.1309150378