17

 C   -0.0882378058    1.5847094332   -0.0187580059
 C    0.0074563875    0.0484869559    0.0100425884
 C    0.8667674575   -0.5330046285   -1.1125728566
 C    1.8650312463   -1.2654429157   -0.6046484650
 N    1.7668923928   -1.2496656467    0.7958098300
 N    2.4975932619   -1.7987222281    1.7781236611
 C    1.8709230459   -1.3798637223    2.8821402304
 C    0.7433538176   -0.5643453620    2.6012677324
 C    0.7098200874   -0.5044461584    1.2239270410
 H    0.9060320518    2.0350663768    0.0436532823
 H   -0.5639202596    1.9238978550   -0.9440256966
 H   -0.6837136085    1.9491973985    0.8234279585
 H   -1.0099047867   -0.3617486468   -0.0603885223
 H    0.6797408233   -0.3569203312   -2.1615848917
 H    2.6611099547   -1.8183782484   -1.0787786579
 H    2.2475794771   -1.6776273263    3.8500111696
 H    0.0713123468   -0.1050576851    3.3075320922