17

 C   -0.1130397890    1.4554469535    0.0330044525
 O   -0.0459366503    0.0453956822    0.1404428060
 C   -1.2839986214   -0.6137534290    0.0207179610
 C   -1.6819490577   -0.8518037391   -1.4324486581
 O   -2.8694693334   -1.6476797844   -1.4981365566
 C   -3.0801924726   -2.6798334576   -0.6475836097
 O   -4.0028604516   -3.4196269054   -0.8046488937
 O   -2.2433813247   -2.8335221472    0.4026431146
 C   -1.1176965663   -1.9842014377    0.6558174327
 H    0.8982012368    1.8323234671    0.1987098219
 H   -0.4518100131    1.7849471677   -0.9588321972
 H   -0.7833416200    1.8838474845    0.7920367500
 H   -2.0839928745   -0.0561011546    0.5320697752
 H   -1.9202752947    0.0717787134   -1.9637301338
 H   -0.8606816008   -1.3548131887   -1.9585322000
 H   -0.2119901879   -2.4555880804    0.2562529857
 H   -1.0231507488   -1.9175829943    1.7415647396