13

 O   -0.3154125752    0.1132911440   -0.1552339588
 C   -0.0199017514    1.2205428034    0.1963094651
 C    1.3202847223    1.8732247275   -0.0770386059
 O    2.2525810669    1.0026553460   -0.7648990275
 C    2.2839615671    1.7933545323   -1.8831657578
 O    2.8695417247    1.6197352799   -2.8952070718
 C    1.3583879159    2.8816734593   -1.2721229431
 C    0.1375379123    3.2115972973   -1.9697532938
 C   -0.8811519097    3.4742329318   -2.5493131183
 H   -0.7165995108    1.8756001289    0.7644032099
 H    1.7511173063    2.2598185985    0.8523270617
 H    1.9382704620    3.7791270636   -1.0352754229
 H   -1.7791390803    3.7003449976   -3.0703905269