21

 C    0.2919905215    1.6484529870   -0.0791964085
 C    0.0022786566    0.1634211612    0.1337640436
 O    0.4401610873   -0.6428967515   -0.9556676833
 C    1.8151738075   -0.9885675548   -0.7532891700
 C    2.0975978881   -0.8437824084    0.7560014513
 C    0.7244684943   -0.4431398284    1.3573058099
 O    0.8226730633    0.5039062610    2.4051315549
 C   -0.0405024753   -1.6653006354    1.8713070219
 O    0.6923272228   -2.1630828010    2.9897758359
 H    1.3660126994    1.8431313892   -0.1562784242
 H   -0.1854433712    1.9820477148   -1.0046087315
 H   -0.0948197603    2.2355907674    0.7568247027
 H   -1.0822587792    0.0161183918    0.2021798791
 H    1.9485892566   -2.0113970848   -1.1195379650
 H    2.4661607839   -0.3344694626   -1.3494197934
 H    2.4826411257   -1.7587349567    1.2096891197
 H    2.8089258902   -0.0409957773    0.9614163132
 H    1.0437782296   -0.0036578328    3.1963353417
 H   -1.0483669751   -1.3505470981    2.1771049370
 H   -0.1335180969   -2.4194211931    1.0779716372
 H    0.1565758511   -2.8202154775    3.4420599179