18

 C    0.5159664595    1.9188018947    0.4071262352
 N    0.0069827035    0.5611535398    0.2416775415
 C    0.9425664109   -0.4200703032   -0.2999451212
 C    0.4987562515   -0.5203035765    1.1171988841
 C    1.4302159883   -0.2933129629    2.2860653487
 C    0.7734904141    0.1893536696    3.5864326835
 N   -0.5203016117    0.6113254024    3.4808264689
 O    1.3819088051    0.1989170484    4.6377767964
 H    1.5963895227    1.9844886273    0.6066026685
 H    0.3142824014    2.4736078650   -0.5143944515
 H   -0.0115729391    2.4172602206    1.2263114840
 H    0.5514382873   -1.0986530006   -1.0534783476
 H    1.9665998544   -0.0906685569   -0.4747528233
 H   -0.2812660811   -1.2524144508    1.3266724962
 H    1.9457516115   -1.2264203132    2.5363499645
 H    2.2198779618    0.4242516121    2.0442446415
 H   -1.0222273462    0.6182424958    2.6098853191
 H   -0.9758523040    0.9444168682    4.3144318513