16

 O   -0.0727763428    1.2518350838   -0.7329527036
 C    0.0580343311    0.1546429142    0.1554371781
 C   -1.2657118743   -0.5568874154    0.3198515491
 N   -1.7089548410   -1.3332303544   -0.8586373104
 C   -1.4571676403   -2.0283153051    0.4225508994
 C   -0.3614362985   -3.0690693862    0.3806399570
 O   -0.7835985018   -4.2082162573   -0.3503486308
 H   -0.4101068270    0.8850191517   -1.5587227494
 H    0.8322025038   -0.5436827805   -0.1889643099
 H    0.3851895235    0.5704924417    1.1143013847
 H   -2.0238610048    0.0548376108    0.8068322178
 H   -2.7068120742   -1.2137445071   -1.0069574843
 H   -2.3373230735   -2.3543284802    0.9749960642
 H    0.5584652545   -2.6450971690   -0.0431815153
 H   -0.1332589983   -3.4185723956    1.3931439866
 H   -1.0308389364   -3.8849874614   -1.2247748631