17

 C   -0.1350437322    1.5369222890    0.0170363837
 C    0.0889327527    0.0237265489    0.1215110834
 C    0.6872946464   -0.5577365890   -1.1587638591
 C    0.8489937726   -2.0677841634   -1.3650821135
 C   -0.4408988747   -2.7491134080   -1.5384092155
 N    0.1278200847   -2.0252843417   -2.7189458459
 C   -0.1497998251   -0.6193864759   -2.4538015278
 O   -0.7674010036    0.1588045783   -3.1113952219
 H    0.8125093226    2.0656565535   -0.1337676339
 H   -0.7864660368    1.7763952607   -0.8279801390
 H   -0.5945976307    1.9283201053    0.9291745171
 H    0.7610149380   -0.2022375278    0.9587561268
 H   -0.8609820188   -0.4745861622    0.3469420116
 H    1.6268421400   -0.0429284939   -1.3972493483
 H    1.7839502854   -2.6085188805   -1.2815283599
 H   -0.4408011041   -3.8246815993   -1.6810098723
 H   -1.3429212864   -2.3571849742   -1.0761672955