17

 C    0.0641492717    1.5140632891   -0.0400292512
 C   -0.0774214200    0.0256232335    0.1155165856
 C   -1.4007656647   -0.6768212269   -0.1963867115
 C   -1.3468753369   -1.9262989403    0.6592655289
 C   -2.3870643046   -2.9566610537    0.6477426924
 O   -3.3758038543   -2.9152169255   -0.0513681520
 C   -0.2382221709   -1.9675488842    1.4201025691
 C    0.6323173926   -0.7967758910    1.1251388573
 O    1.0578950610   -0.7643090039   -0.2577262439
 H    1.0597055606    1.8401295820    0.2707644430
 H   -0.0774602727    1.8060075174   -1.0863764494
 H   -0.6843220510    2.0415791706    0.5599077427
 H   -2.2658449495   -0.0553850371    0.0626762416
 H   -1.4904876295   -0.9154310425   -1.2612407185
 H   -2.2109436138   -3.8008377052    1.3509901397
 H    0.0100689300   -2.7508631776    2.1272892375
 H    1.3490884518   -0.4049134748    1.8401886287