12

 C   -0.0097297894    1.4698631773    0.0295671816
 C    0.0060719063   -0.0193234754   -0.0002459743
 N   -0.0897195306   -0.6846775952   -1.1210432265
 O   -0.0316481968   -2.0417502218   -0.6912007006
 C    0.0917648659   -1.9932467948    0.6374073709
 N    0.2219297446   -3.1699244105    1.3017743585
 N    0.1180907990   -0.7880457808    1.1369787620
 H    0.9153377094    1.8485640174    0.4745884326
 H   -0.1132858339    1.8690166141   -0.9803381574
 H   -0.8397869247    1.8270352164    0.6465003550
 H   -0.1200585461   -3.9946697848    0.8352022004
 H    0.0540244862   -3.1230809619    2.2937773479