18

 C    0.0117951964    1.4396576003    0.0816219997
 O   -0.0885183805    0.0322790417    0.1097146192
 C    0.6702679267   -0.5863736017    1.1344462355
 C    0.0280391396   -1.9525830659    1.3689031340
 O    0.8083859310   -2.7754514591    2.2392296356
 C    2.1386944831   -2.9217436696    1.9545354183
 N    2.8240332599   -3.8725794755    2.4453403350
 C    2.7649656309   -1.8955300407    1.1112653684
 C    2.1125402779   -0.7900206827    0.7469573112
 H    1.0369517492    1.7847717560   -0.1172787728
 H   -0.6346470073    1.7898678937   -0.7262001072
 H   -0.3247401658    1.8872734810    1.0291597756
 H    0.6106030111    0.0161848871    2.0573799080
 H   -0.9487111189   -1.8532791279    1.8448372731
 H   -0.1021805797   -2.4424468392    0.3957630902
 H    2.2245068436   -4.4742062327    3.0145099144
 H    3.7996230145   -2.0827275680    0.8513169525
 H    2.5985328984   -0.0170784667    0.1594432392