17

 C    0.0382809603    1.5157402439    0.0922317449
 C    0.0728522437    0.0017192331    0.0363072466
 C   -1.1861729399   -0.6207336021   -0.5441474897
 C    1.3348577607   -0.7762035031   -0.2263065224
 N    2.5318055074   -0.1721577460    0.3605150547
 C    1.9665956026   -0.1535902509    1.6522190071
 O    2.3752754559    0.2787403949    2.6923554245
 C    0.7057761041   -0.8473232162    1.1597320707
 H    0.9615559274    1.9430847449    0.4892843080
 H   -0.1250376313    1.9306248102   -0.9090943867
 H   -0.7836916185    1.8562128113    0.7307358140
 H   -1.3692977714   -0.2433947462   -1.5563121427
 H   -1.1108765556   -1.7112784478   -0.5978545929
 H   -2.0610722380   -0.3742018164    0.0667086671
 H    1.4263810475   -1.5686949766   -0.9588801453
 H    3.0303478712    0.6156753125   -0.0378617062
 H    0.1722974339   -1.6564647556    1.6387672585