22

 C   -0.0444987690    1.5562736452   -0.0136700102
 C    0.0427721958    0.0285744740    0.0164653775
 C    0.7921053905   -0.5759981949   -1.1948953720
 C    1.3215453085   -1.9448893974   -0.7136341131
 C    1.5432432467   -1.7611820826    0.7805087485
 C    2.2621244576   -0.5083787314    1.2282408554
 C    0.7497816411   -0.5579091250    1.2450482007
 C    0.0183915410   -0.5297513996    2.5662282102
 H    0.9545081616    2.0056780210    0.0143860074
 H   -0.5427184504    1.9052693478   -0.9246657062
 H   -0.6093845151    1.9454681410    0.8399234279
 H   -0.9817795482   -0.3727627116    0.0241760872
 H    0.1511955216   -0.6582891732   -2.0773485171
 H    1.6258427825    0.0765333418   -1.4782801463
 H    0.5674016183   -2.7253634143   -0.8735291660
 H    2.2232754217   -2.2551682265   -1.2535285192
 H    1.6239728542   -2.6444272660    1.4064679711
 H    2.7633254148   -0.5450180040    2.1901434575
 H    2.7796555071    0.0998911225    0.4929353737
 H   -0.1414446242    0.4962766836    2.9187250463
 H   -0.9657717637   -1.0075478010    2.4847124161
 H    0.5809325576   -1.0571029193    3.3434010405