17

 C    0.0860249322    1.3650954762    0.3818793480
 C   -0.0316392040   -0.0202144497   -0.2032312805
 O    0.9176939598   -0.5660022838   -0.7506686755
 C   -1.3343752280   -0.7323371450   -0.0683918288
 C   -1.6467781119   -1.7718513357   -1.1747907143
 C   -1.1824734761   -2.3098617496    0.1154444091
 O    0.0484880181   -2.8767451384    0.2972841343
 C   -2.4339561781   -0.0893347293    0.5822409807
 C   -3.3732125707    0.4273484081    1.1305298004
 H    1.0938494661    1.7460288320    0.2162003191
 H   -0.6531730038    2.0337226684   -0.0711783029
 H   -0.1370936328    1.3400124160    1.4537729037
 H   -2.6930925051   -1.8622786844   -1.4418027843
 H   -0.9405383511   -1.7740223071   -1.9984286338
 H   -1.9168386997   -2.7236782452    0.7975561051
 H    0.6824572189   -2.3588551072   -0.2318830158
 H   -4.1977884537    0.8886184046    1.6150162354