18

 O   -0.0158416236    0.0017089512   -0.0231462582
 C   -0.0311180450    1.2018702197   -0.0101401443
 C   -1.2662215358    2.1261960138   -0.0575062278
 N   -0.7465153800    3.4982365084    0.0788764583
 C    0.5743975881    3.4107178138   -0.5984616844
 C    1.1870895243    2.1650149047    0.0420706994
 O    1.5390475404    2.4587249280    1.3971097393
 C    0.4259434718    2.8381327722    2.2065297569
 C   -0.4984751391    3.8433741004    1.4931610197
 H   -1.7621074595    2.0081245490   -1.0298264025
 H   -1.9925847397    1.8702828552    0.7181941941
 H    0.4238080001    3.2882053936   -1.6778290331
 H    1.1659570594    4.3110177654   -0.4207853988
 H    2.0745157770    1.7425912015   -0.4298467366
 H   -0.1399467336    1.9413509653    2.5048914138
 H    0.8467358817    3.2738338640    3.1170654630
 H   -0.0503398059    4.8423439421    1.5070860186
 H   -1.4556952702    3.9038295117    2.0230193525