21

 C   -0.1089674660    1.5493792211   -0.0886816045
 C   -0.0139382528    0.0600786492   -0.0192892227
 C   -0.9657624873   -0.8359247919    0.2260832033
 C   -0.4059424777   -2.2337785893    0.2018906211
 O    0.9944939571   -2.0497860384   -0.0550086593
 C    1.2835046443   -0.6732492904   -0.2523539166
 C   -0.6098916074   -3.0146666644    1.4812832076
 C   -1.8482301617   -3.8626116845    1.6442229919
 C   -0.5019030533   -4.5164677079    1.4669096393
 H    0.5579598717    2.0234389863    0.6424941270
 H    0.1965122336    1.9204682981   -1.0752208994
 H   -1.1269876616    1.8967983506    0.1041868836
 H   -2.0100230637   -0.6298352042    0.4266051916
 H   -0.8426922740   -2.8218540579   -0.6262641338
 H    1.6684400079   -0.5049048544   -1.2729269039
 H    2.0763444648   -0.3526144510    0.4428249156
 H   -0.2443807504   -2.5044097930    2.3679480432
 H   -2.3201489296   -3.8992784728    2.6195699951
 H   -2.5461921467   -3.9077238202    0.8138946776
 H   -0.2904039699   -4.9955043819    0.5165732254
 H   -0.0480221775   -5.0054296731    2.3213516580