19

 C    0.1994869448    1.6196570918    0.0317392599
 C    0.0811899000    0.0938175906    0.0186227733
 C    0.8228235796   -0.5363827476   -1.1791083376
 O    0.8354168450   -0.0827479305   -2.2923186923
 C    1.5329914079   -1.8247455318   -0.7333408027
 C    1.5186627074   -1.7369952274    0.7721101997
 O    2.1014063718   -0.5164860279    1.2557902166
 C    0.6637654183   -0.6231918281    1.2274440841
 C   -0.0318782429   -0.5828517070    2.5597785812
 H    1.2280280306    1.9150332673    0.2572479277
 H   -0.0647420315    2.0166147298   -0.9513740989
 H   -0.4622555774    2.0663716358    0.7792010622
 H   -0.9774788686   -0.1896689034   -0.0877908886
 H    0.9713216570   -2.6950799642   -1.0966855240
 H    2.5369295177   -1.8757404238   -1.1634678032
 H    1.6966324525   -2.6153687640    1.3879018175
 H   -0.0922186273    0.4437519003    2.9362786238
 H   -1.0528332801   -0.9705545669    2.4772581401
 H    0.5125845951   -1.1815701429    3.2943660415