20

 C   -0.2903438814    1.2752974521   -0.1281407795
 N   -0.2762540785   -0.1758530509   -0.2705557582
 C    0.6128038561   -0.7229970672   -0.9658402628
 O    1.6476668280   -0.1919176383   -1.7081302340
 C    1.9876843671   -1.5180748458   -2.2312973451
 C    0.8630372465   -2.1599775064   -1.3790878158
 C    1.3151553925   -3.1001315311   -0.2641192315
 C   -0.3546788830   -2.7099973416   -2.1408965742
 O   -1.4735619048   -2.8124416158   -1.2886307965
 H    0.4876092315    1.7843097606   -0.7081331351
 H   -1.2685962584    1.6562582079   -0.4395717160
 H   -0.1667634357    1.5343043262    0.9289844408
 H    1.8555678038   -1.5478727841   -3.3163500583
 H    3.0101193327   -1.7930039245   -1.9618781804
 H    2.1000193870   -2.6494075531    0.3503206591
 H    0.4661847914   -3.3450734807    0.3774062991
 H    1.7032044435   -4.0328106260   -0.6884568128
 H   -0.5626884151   -2.0648617011   -3.0109691264
 H   -0.1460868438   -3.7178782730   -2.5187936530
 H   -1.5687661493   -1.9531402872   -0.8487227593