17

 O   -0.2220510790    0.0736718754    0.1238987030
 C   -0.0443430712    1.2619651691    0.0631143844
 C    1.3159615563    1.9363180887    0.0213677070
 C    1.4505459911    2.7615904064   -1.2846207986
 C    2.6219004628    3.7068702420   -1.2570889471
 C    3.0458891525    4.2781021660   -0.1288192099
 C    2.3852496810    3.9838186185    1.1641249643
 O    0.9421261856    4.1142485618    1.2212460101
 C    1.5019730171    2.8062533149    1.2554696751
 H   -0.9005372751    1.9752458231    0.0325814840
 H    2.0737675283    1.1450009707    0.0511491659
 H    1.5288464745    2.0770707583   -2.1350537193
 H    0.5269852027    3.3367933486   -1.4338299509
 H    3.1085609022    3.9299465383   -2.2020090130
 H    3.8872050649    4.9633004727   -0.1238786737
 H    2.8810614607    4.3292284535    2.0684325791
 H    1.4089983655    2.2924270520    2.2130282698