18

 C   -0.1187542808    1.5608734089    0.0913092272
 C    0.3303874916    0.1097625168   -0.1072513337
 C    0.7380862975   -0.5591052024    1.1901700196
 O   -0.3942114167   -0.6968699148    2.1249178644
 C   -0.2501921855   -2.0671251185    2.2111683102
 O   -0.8916035581   -2.8308240181    2.8546207644
 C    0.9018699520   -2.0803640408    1.2335506731
 C    1.2268913541   -3.0467538666    0.1582189147
 N    2.0914905352   -2.9127567847    1.3387789569
 H    0.6869120531    2.1715192856    0.5130957363
 H   -0.4175933642    2.0106132597   -0.8595493887
 H   -0.9703958056    1.6089688607    0.7752360114
 H   -0.4717563547   -0.4780815763   -0.5681836179
 H    1.1876046584    0.0698707021   -0.7927498316
 H    1.5447793589   -0.0122965113    1.6923552020
 H    0.6765878360   -3.9808944837    0.0994650803
 H    1.5592889311   -2.6404492523   -0.7937713237
 H    2.9192859077   -2.3625300744    1.1193276450