15

 N   -0.1157529183   -1.2425297821   -0.1420539698
 C   -0.0769853467   -0.0883976332   -0.0806592991
 C   -0.0093811662    1.3581788733    0.0159557359
 C   -0.0433353260    2.0823186838    1.3978083091
 C    1.0502136123    1.3821442792    2.2261339902
 C    2.1705483411    1.4025806328    1.1358172988
 C    1.3590617630    2.1079228632    0.0330037419
 O    0.6877684311    3.1743829787    0.7663843726
 H   -0.6972170873    1.8362875449   -0.6818592417
 H   -0.9782908791    2.3792746293    1.8699654903
 H    1.3043388880    1.9723861782    3.1078683553
 H    0.7673683244    0.3753465059    2.5411047051
 H    3.0338988674    2.0039258039    1.4246592753
 H    2.5118318575    0.4071668325    0.8433647255
 H    1.8506303385    2.4309226894   -0.8831232294