15

 O   -0.1400140788    1.2994492567   -0.0309653259
 N    0.0154033908   -0.0928863159    0.0530514949
 C   -1.1035003635   -0.6774940691   -0.0376379570
 C   -2.5635154037   -0.2391953424   -0.0831592957
 C   -2.9402562780   -1.7351716137    0.0515613425
 C   -2.3323115631   -2.5256334833   -1.0763282666
 C   -1.4258630396   -2.1265954078    0.0614630788
 C   -3.9806022315   -2.2418895542    0.8813366108
 N   -4.8302768238   -2.6425009226    1.5579447729
 H    0.7646388026    1.6136448721    0.0740965259
 H   -2.8269032313    0.3562101404    0.7942782792
 H   -2.9206721025    0.2674629121   -0.9834117890
 H   -2.5944640637   -3.5777585553   -1.0987627838
 H   -2.2300097721   -2.0597512937   -2.0520993208
 H   -0.9235332616   -2.8593635833    0.6788543237