14

 O    0.0180196609   -0.0555885132    0.3883447363
 C   -0.0207626497    1.0982836641    0.0490375222
 C    1.2100044623    1.9418179261   -0.0387602996
 C    1.4598544547    2.8958066192   -1.2142864060
 C    0.4870718869    3.0371511923   -2.3402480909
 O    0.8420597036    3.0898465258   -3.4888394798
 C    1.1477551270    3.4463851650    0.1675831602
 C   -0.1149354686    4.0915218090    0.4227930724
 N   -1.1218306436    4.6186244908    0.6362434989
 H   -0.9773105109    1.5999926537   -0.2020963508
 H    2.0933588343    1.4429781006    0.3443884610
 H    2.4929665690    2.9686695196   -1.5357372101
 H   -0.5829616689    3.1059475359   -2.0572954493
 H    1.9794980232    3.8900359410    0.7044105253