18

 C   -0.1275883967    1.5122608665   -0.0726045006
 C   -0.2280742843    0.0008262128    0.0185856430
 O   -0.5355627167   -0.5612573777    1.0456931608
 C    0.0749799723   -0.7809704523   -1.2553561922
 C    0.1048652624   -2.2845249086   -1.0362264640
 C   -1.2354011597   -2.9908098711   -0.7392744700
 O   -1.0918029712   -3.8476325032   -1.8941767299
 C    0.1274610820   -3.1908312221   -2.2879801304
 H    0.9123015248    1.8057815608   -0.2581952738
 H   -0.7183307661    1.8922572429   -0.9131674647
 H   -0.4701183550    1.9650005295    0.8584846451
 H   -0.6888186937   -0.5121796497   -2.0004941498
 H    1.0242820580   -0.4196711233   -1.6749533597
 H    0.8773715216   -2.5369899008   -0.3073322319
 H   -1.2858618215   -3.5586520911    0.1951963351
 H   -2.1247915054   -2.3509271872   -0.8118984086
 H    0.0194460856   -2.6626340818   -3.2464484450
 H    0.9681240735   -3.8912229236   -2.3663791635