20

 N   -0.0942917556    1.2727384159   -0.0442789166
 C   -0.0828895766    0.0231461251    0.1368441929
 O   -1.1530728520   -0.7173631703   -0.2128382944
 C   -1.0384654061   -2.1154821905   -0.0892244826
 C   -0.6373470731   -2.8387872406    1.2338123275
 C   -1.3844076720   -4.0163395494    0.5420691456
 C   -2.3438818674   -2.9381858046   -0.0434295462
 C   -0.4678799518   -4.3209793456   -0.6640251442
 C   -0.2041474839   -2.8604936651   -1.1522190212
 H    0.7772547274    1.6770054727    0.2924302493
 H    0.7316584765   -0.5617260236    0.5826452237
 H    0.4244019267   -2.9672516950    1.4641392526
 H   -1.1757809689   -2.4434327240    2.0974564028
 H   -1.7610902097   -4.8604881695    1.1166787540
 H   -3.0471262369   -2.5475503361    0.6941363443
 H   -2.8509088664   -3.1477095287   -0.9891066296
 H    0.4492481460   -4.8378447698   -0.3680347512
 H   -0.9693543308   -4.9310686295   -1.4201792329
 H   -0.5766535962   -2.6646864474   -2.1608786231
 H    0.8530202510   -2.5813711840   -1.1205731608