16

 C   -0.0102465173    1.5405705877   -0.0078459807
 O    1.3754664658    1.9444331245    0.0141148117
 C    2.1458829491    0.7231449873    0.0269641514
 C    1.3091393811   -0.2222611234   -0.8430161745
 C    0.0424686979   -0.0067778980    0.0142043779
 C    0.5591409533   -0.3317672341    1.4223751219
 O    1.6518803951   -1.2537105555    1.4969437679
 C    1.9466664821    0.1496491686    1.4374493291
 H   -0.5297722708    1.9637280524    0.8604446715
 H   -0.4860393017    1.9225981132   -0.9193600697
 H    3.1627362771    0.9565738026   -0.2857340703
 H    1.2041387972    0.1543152810   -1.8620474274
 H    1.6619320495   -1.2513446831   -0.8453082067
 H   -0.8747913911   -0.5019940845   -0.3035972077
 H   -0.0978929749   -0.2984314430    2.2863826674
 H    2.4319783176    0.5848865144    2.3045455382