15

 O    0.2408674468    0.4887447493    1.1828595057
 C    0.0246588491    1.3106439896    0.3236705381
 C    1.1184759771    1.7817353705   -0.5553434790
 N    1.9761503769    2.1272647783   -1.2491342514
 C   -1.2988745567    1.9058317285    0.0730965558
 C   -1.7223129405    2.4846473792   -1.2348782647
 N   -1.4749055081    3.4249926402   -0.1532165326
 C   -2.6802586564    3.3437467412    0.7587912478
 C   -2.4615956110    1.8373307654    1.0545211010
 H   -0.9815359359    2.5375217031   -2.0263236330
 H   -2.7424345756    2.2921406832   -1.5633887246
 H   -2.5302236703    3.9933093746    1.6213679111
 H   -3.6087048417    3.6217073414    0.2513480441
 H   -3.2648083761    1.1417168700    0.8015128471
 H   -2.1294038075    1.6417338655    2.0740544046