20

 C    0.0084708422    1.4419148415    0.0565141733
 C    0.0364738328   -0.0644116784   -0.0288987896
 C   -0.0394258621   -0.7182304254   -1.4092965072
 C   -0.8049401509   -2.0366064321   -1.1451486165
 C   -0.7239392487   -2.1790750105    0.3698778847
 C    0.7468320919   -2.2934746555    0.8734290993
 O    1.7616106949   -2.7684352279    0.0124091490
 C    0.7060925222   -0.7985480324    1.0795722846
 N   -0.8180522296   -0.7734992611    0.9546980619
 H    0.8890218218    1.8735186784   -0.4318212039
 H   -0.8835833090    1.8384006236   -0.4398960509
 H   -0.0069482290    1.7771380645    1.0970218204
 H   -0.5745389160   -0.0674608917   -2.1077710266
 H    0.9569800757   -0.9016442653   -1.8175658211
 H   -1.8503011401   -1.9570461714   -1.4590499107
 H   -0.3587032965   -2.8930491322   -1.6573348129
 H   -1.4446638142   -2.8676597814    0.8122028236
 H    0.7819887604   -2.8051647205    1.8432580705
 H    1.8028028702   -3.7269387907    0.0865879212
 H    1.2183253139   -0.2673451014    1.8773061212