19

 C   -0.3105647984    1.5641002874    0.3042486492
 C    0.0351091094    0.0860676067    0.0211360430
 C    0.8593458860   -0.4855073492    1.0836360325
 C    1.5376861186   -0.9596477720    1.9592363854
 C    2.2745969881   -1.5714226694    3.0648260988
 O    1.5586938308   -2.6299481621    3.6880162317
 C   -1.2470505519   -0.7111832231   -0.2106229016
 C   -1.4427139430   -2.1004357120    0.2137339587
 O   -2.0416620178   -1.0131365584    0.9315980208
 H    0.5979620953    2.1560106944    0.4375916977
 H   -0.8817351774    1.9878234939   -0.5279866283
 H   -0.9127348401    1.6404699836    1.2130783973
 H    0.6025676246    0.0402029720   -0.9202180889
 H    3.2078679388   -2.0165297589    2.7021184704
 H    2.5566363517   -0.7942326403    3.7931182554
 H    0.6861693585   -2.2898931783    3.9136504545
 H   -1.8203541559   -0.3525221524   -1.0683809246
 H   -2.1380319614   -2.7353765263   -0.3333924830
 H   -0.6416447161   -2.6126547156    0.7413372210