21

 C    0.1222937140    1.3210929207    0.4529114067
 C   -0.0445833971   -0.0482566552   -0.2188749154
 C   -1.4477169526   -0.6336170728   -0.0849410514
 C   -2.5121564245    0.1371381191   -0.8562795408
 C   -1.7214187776   -2.0991308284    0.0239395195
 C   -0.6250121911   -2.8614540953    0.7809744770
 C   -0.9114517271   -1.9313142219    1.9913879926
 O   -0.5457766729   -1.9431772322    3.1334004502
 C   -1.9738720218   -1.1741256572    1.2536613957
 H    1.1521464723    1.6761125050    0.3510957511
 H   -0.5308754471    2.0788832488    0.0097915593
 H   -0.1076600153    1.2613443183    1.5215449964
 H    0.1915795650    0.0341540438   -1.2883412453
 H    0.6971861559   -0.7327514150    0.2015724221
 H   -2.2596645077    0.1692194269   -1.9221145801
 H   -3.4954818719   -0.3318826553   -0.7567391027
 H   -2.5991673613    1.1685874372   -0.5023661230
 H   -2.4866980992   -2.5787344673   -0.5739191386
 H   -0.9243051570   -3.8820637721    1.0398522569
 H    0.3830168502   -2.8872124748    0.3600073780
 H   -2.8951269932   -0.7929954124    1.6787455918