20

 C   -0.2776936665    1.5793807563    0.0892520590
 C    0.0514502423    0.0821302151    0.0068804310
 C    0.7457627950   -0.3877520156   -1.2844734297
 C    2.1039448620    0.0972168222   -1.6948261651
 O    2.6089391654    1.3326682085   -1.2700344189
 C    1.9867759936   -1.1657769302   -0.8536933847
 N    2.0613067937   -1.2310519041    0.6019221890
 C    2.3087392683    0.0191752865    1.3580446217
 C    0.9228693668   -0.4671279275    1.1460271684
 H    0.6250398746    2.1880053003    0.0163967180
 H   -0.9480328191    1.8735746031   -0.7250720929
 H   -0.7811392999    1.8124277379    1.0334927957
 H   -0.8965688811   -0.4681822306    0.0516418358
 H    0.0937403201   -0.7371347568   -2.0788387692
 H    2.3372666552   -0.1144430849   -2.7404822355
 H    3.5706760545    1.2727237621   -1.2734146209
 H    2.2769576500   -2.0983688408   -1.3273495752
 H    2.7790771286   -0.1468632079    2.3241116066
 H    2.6343074526    0.9012110688    0.8277575028
 H    0.3987578440   -0.9253842325    1.9824962542