14

 O   -0.0887261832    0.0029117403    0.1481537051
 C   -0.0424053846    1.1966047924    0.0986552977
 N   -0.9997750057    2.1913135578    0.0793773357
 C   -0.0787512272    3.3295160788    0.0261154272
 C    1.0517017326    2.2778547060    0.0163652505
 N    2.3176949756    2.2576733446    0.7087768573
 C    2.3203654205    2.3016522360   -0.7680308611
 C    2.8263449528    1.1414783813   -1.4632661339
 N    3.2438410800    0.2474179739   -2.0642456950
 H   -2.0068644379    2.1483160243    0.0834934236
 H   -0.1626614341    3.9436851503   -0.8761820566
 H   -0.0993721077    3.9684737440    0.9162182725
 H    2.5545820535    3.1720013103    1.0877345058
 H    2.5642379952    3.2423338001   -1.2563655789