19

 O   -0.0794623585    1.3953854075   -0.0055288035
 C   -0.0120760052    0.0060198232    0.0193890870
 C    0.3221834644   -0.8093681837    1.3099487874
 C   -0.4374464334   -1.9349340146    0.5330570894
 C   -1.3388636485   -0.7856632927   -0.0335799704
 C    0.5259084703   -2.1861927485   -0.6622942752
 C    0.8428361587   -0.7100004935   -1.0472802012
 C   -0.9907138351   -3.0849037601    1.1977610698
 C   -1.4477864636   -4.0534194268    1.7459738901
 H    0.8162336763    1.7438170121   -0.0702016992
 H    1.3700440873   -0.9918586426    1.5665736457
 H   -0.2366693360   -0.4547198787    2.1772239423
 H   -2.0634872375   -0.4304140817    0.7005351141
 H   -1.8136307660   -0.9425019894   -1.0058920081
 H    1.4088208542   -2.7504584305   -0.3520981679
 H    0.0324693808   -2.7407195233   -1.4641081946
 H    0.5225786722   -0.4498690391   -2.0599551327
 H    1.9064851047   -0.4656043433   -0.9514123238
 H   -1.8530996453   -4.9050291942    2.2334592907