16

 C   -0.0427482011    1.4926571861    0.0814162481
 C    1.3552010223    2.1489214437   -0.0113308614
 C    2.1933828010    1.4398791430   -1.0304689680
 C    3.2462848872    1.7539015645   -1.8201379517
 O    3.6639318120    0.6694558554   -2.5058566871
 N    2.8656216842   -0.4217581758   -2.1649009654
 C    2.0011108392    0.0478865482   -1.2944572119
 C    0.9316759694   -0.6996146775   -0.6563058792
 C   -0.0141927077   -0.0187433357    0.0049696309
 H   -0.5356872029    1.8121412386    1.0052026846
 H   -0.6773093856    1.8626375884   -0.7380892569
 H    1.2581389460    3.2164470472   -0.2295092381
 H    1.8447593866    2.0734782511    0.9693248795
 H    3.8006161225    2.6612624375   -2.0046504376
 H    0.9129623596   -1.7794194988   -0.7490416349
 H   -0.8397678327   -0.5528012760    0.4667313591