18

 C    0.1089194409    1.4635826941    0.1096676053
 N    0.0323548054    0.0249563496   -0.0386182054
 C    0.4209057870   -0.7514358922   -1.0796635567
 C    0.1173148702   -2.0389913967   -0.6866117069
 N   -0.4340430375   -1.9714555786    0.5610850629
 N   -0.4840169582   -0.7279356492    0.9488104932
 C    0.2938149607   -3.3332726488   -1.3684022569
 C    0.1271232461   -3.4624152029   -2.8690365079
 C    1.4922190495   -3.5985386540   -2.2571681469
 H    1.1470788113    1.8036108959    0.0574822448
 H   -0.4736585742    1.9646661783   -0.6685521401
 H   -0.3049837808    1.7078258491    1.0878304460
 H    0.8607681529   -0.3368146040   -1.9711681049
 H   -0.0583954129   -4.1637546993   -0.7672682864
 H   -0.3625530671   -4.3517995688   -3.2498028546
 H   -0.0996202602   -2.5577829505   -3.4233964274
 H    2.1993912900   -2.7870114451   -2.3928745975
 H    1.9467735667   -4.5820774571   -2.2147046707