23

 C   -0.0894869059    1.5839222169    0.0456012831
 C    0.0051004390    0.0510011985   -0.0008270182
 C    0.7429557318   -0.4642653031   -1.2565649123
 C    2.2540752460   -0.2003701640   -1.1673708536
 C    2.8003870397   -0.7171461611    0.1646864273
 O    2.0863876655   -0.1706297681    1.2691805740
 C    0.7182514279   -0.4958651268    1.2285128219
 C    0.0555749608   -0.5350317057    2.5658726528
 C    0.3241804206   -1.8301459423    1.8188943883
 H    0.8987661559    2.0399058208    0.1486655943
 H   -0.5550418983    1.9757989035   -0.8647375367
 H   -0.6908016811    1.9105432436    0.8996906688
 H   -1.0139970327   -0.3552878741   -0.0093372628
 H    0.5766842552   -1.5459017000   -1.3423743221
 H    0.3233190531   -0.0064437503   -2.1593563868
 H    2.7806647131   -0.6894119743   -1.9950894659
 H    2.4607650613    0.8728243711   -1.2470440742
 H    2.7433354027   -1.8179042589    0.1927314480
 H    3.8455231149   -0.4286950847    0.3097157880
 H    0.6797297060   -0.3191650158    3.4253045425
 H   -0.9680869860   -0.1841007916    2.6434011077
 H   -0.5169068643   -2.3664155666    1.3919125834
 H    1.1221971948   -2.4591456173    2.1971407424