19

 C   -0.1673324909    1.4179597355   -0.2403598953
 O   -0.2519875355    0.0007660322   -0.2151748865
 C    0.6651038989   -0.6349579534   -1.0431216087
 C    0.5035694272   -2.1581423147   -0.8726424386
 N    0.0052406581   -2.5617903227   -2.1723380270
 C   -0.2136772610   -1.4735347517   -2.9962044421
 O    0.3982149214   -0.3784705573   -2.4226498657
 N   -0.8262168688   -1.5040845593   -4.0953539161
 C   -0.9694504043   -0.2879943835   -4.8719492189
 H    0.8393317297    1.7594931815    0.0424346379
 H   -0.4113985835    1.8157904618   -1.2312996037
 H   -0.8888855564    1.7898245320    0.4891795867
 H    1.6805502894   -0.2635150214   -0.8504238315
 H    1.4579380713   -2.6401172685   -0.6319653617
 H   -0.2024072091   -2.3487578608   -0.0582032997
 H   -0.6327095618   -3.3339862797   -2.2673599410
 H   -2.0097271468   -0.1907810500   -5.2034375103
 H   -0.6908373815    0.6259070841   -4.3324162556
 H   -0.3539115162   -0.3458192641   -5.7790960223