10

 O   -0.0667610259   -0.0408840596    0.0003219805
 C   -0.0028383711    1.1505414499    0.0089028323
 N    1.1955811421    1.8913601424    0.0016773447
 C    1.3210723238    3.2552948079    0.0109238805
 N    2.5814325735    3.5981212105    0.0000409544
 C    3.2203719755    2.3791166833   -0.0163472467
 N    2.4373364276    1.3247693789   -0.0161604263
 H   -0.8729454188    1.8314968143    0.0235386761
 H    0.4697322637    3.9198208078    0.0252719850
 H    4.2961685596    2.2858985645   -0.0286666405