16

 N   -0.0257467462    1.4817991984    0.1809328867
 C   -0.0426107048    0.0371096451    0.0011184400
 C   -1.4623644146   -0.5586828449   -0.1302626129
 C   -1.2540908627   -1.8366435381   -0.9665638908
 N   -0.1029860560   -1.4889478073   -1.7880934320
 C    0.6456776979   -0.4553436584   -1.3208092649
 O    1.6335582313    0.0382574554   -1.8112207502
 C    0.6685110498   -0.6005427405    1.1226383888
 N    1.2193590601   -1.1391128568    1.9840631297
 H    0.9362844174    1.8010003150    0.0798376376
 H   -0.5383068779    1.9073535677   -0.5878052350
 H   -1.9396368584   -0.7472994334    0.8309643407
 H   -2.0763711009    0.1552298635   -0.6884154042
 H   -1.0466347775   -2.7041233667   -0.3269342598
 H   -2.1247379295   -2.0699488048   -1.5853301706
 H    0.1985142720   -2.0276710242   -2.5849882131