18

 C    0.1988128924    1.5746990570   -0.1358154229
 C    0.0847881519    0.0564298130   -0.0057751493
 N    0.7489052752   -0.6269240805   -1.1352493016
 C    1.4963053095   -1.5084062931   -0.6259126339
 O    1.5497379788   -1.6583890529    0.7227390765
 C    0.7414559508   -0.5875767542    1.2672560772
 C    1.6101048883    0.3255819605    2.1053478262
 C    2.9065331658   -0.0973572049    2.6475124778
 O    2.8246971072    0.7824582571    1.5199613973
 H    1.2423085148    1.8954918718   -0.1091403903
 H   -0.2341234439    1.8853949690   -1.0897921328
 H   -0.3462468715    2.0825708233    0.6667421591
 H   -0.9777563626   -0.2147716075   -0.0383520825
 H    2.1244226827   -2.2020825363   -1.1735167519
 H   -0.0107202967   -1.0418523417    1.9209888161
 H    1.0501829060    1.0899420719    2.6471087148
 H    3.2762057382    0.3570141664    3.5653051480
 H    3.2719025630   -1.0958590990    2.4246468524