20

 C    0.0207742507    1.3641032559    0.0662631885
 O   -0.0520270541   -0.0326508314   -0.1370258035
 C   -1.3368197231   -0.5704191560   -0.0542549851
 C   -2.0400349237   -0.6268190273    1.3317715320
 N   -2.3055649786   -2.1002510306    1.1809371906
 C   -2.8418949442   -2.3347259934   -0.1966777012
 C   -3.4896890148   -1.1860070100   -0.9644248237
 C   -2.3478155830   -0.1501860646   -1.1356277173
 C   -1.3960875990   -2.1178856052   -0.0181366854
 H    1.0799470884    1.6306925870    0.0603052036
 H   -0.4884281876    1.9269394379   -0.7283364398
 H   -0.4116407146    1.6600970204    1.0334411322
 H   -1.3347503531   -0.4949008384    2.1558176349
 H   -2.9268416979   -0.0049458023    1.5007610230
 H   -3.2439775870   -3.3372014952   -0.2976080482
 H   -3.8667732129   -1.5389780146   -1.9285167563
 H   -4.3473027656   -0.7737991892   -0.4216448191
 H   -2.6966255760    0.8798583931   -1.0126769002
 H   -1.8773895490   -0.2377950974   -2.1212377607
 H   -0.5774733048   -2.8159610986   -0.1436824243