20

 O   -0.0507247962    1.4036994246    0.0489315942
 C    0.0082785311   -0.0000939972   -0.0265678578
 C   -0.4983016999   -0.6305242560   -1.2973772891
 C   -1.3366136265   -0.6724284000   -0.0269978350
 C   -1.5543580972   -1.9956516399    0.7080270521
 C   -0.4092904179   -2.3588415636    1.6696399376
 C    0.9671325439   -2.1105656809    1.0412076448
 C    1.1599372993   -0.6147127513    0.7489150383
 H    0.7016778698    1.7540389861   -0.4414261555
 H   -0.8157068737    0.0436529605   -2.0852176355
 H   -0.0528692650   -1.5594891082   -1.6416036729
 H   -2.1735581441    0.0179721444   -0.0191224859
 H   -2.4946612238   -1.9488845915    1.2670388410
 H   -1.6796693507   -2.8022753696   -0.0258976211
 H   -0.4906039977   -1.7509072631    2.5804537525
 H   -0.5079338735   -3.4044641068    1.9814574119
 H    1.7622851940   -2.4535391063    1.7117569001
 H    1.0684067953   -2.6981275337    0.1189093550
 H    2.1060966799   -0.4429933953    0.2170692706
 H    1.2304917230   -0.0714413624    1.6998717048