18

 C   -0.2214477301    1.5592277521    0.0493293290
 C    0.0611858508    0.0851933314   -0.0698484095
 C    0.0510755358   -0.5460652601   -1.2415679077
 C    0.2434667017   -2.0170880499   -1.4728480944
 O   -0.1982979884   -2.8811415692   -0.4154815161
 C    0.6055316474   -3.0283138124    0.6737621678
 O    0.8607086257   -4.1151614176    1.1250364259
 N    1.0880699127   -1.8461540407    1.1945588453
 C    0.3118539399   -0.6067523253    1.2500376916
 H    0.6380026290    2.0956372277    0.4717000920
 H   -0.4600911309    2.0022652395   -0.9201923960
 H   -1.0678673394    1.7467246439    0.7230240049
 H   -0.1224854153    0.0320944993   -2.1468693000
 H   -0.3546690542   -2.3252139068   -2.3354574473
 H    1.2910858537   -2.2490410296   -1.7111472056
 H    1.6327665532   -2.0295229573    2.0251041615
 H    0.8821321745    0.0772832486    1.8879279980
 H   -0.6520746561   -0.7608515136    1.7633010306