21

 C   -1.6827850401    0.1591126274   -0.3800362722
 C   -0.2003033968    0.2191099450   -0.0262196452
 N    0.5878665245   -0.5319416482   -1.0013164028
 C    1.8496007956   -1.1896355911   -0.7554459012
 C    2.2496535240   -1.7069618942    0.6372757339
 C    1.2981844615   -2.8593371887    0.9655875444
 N   -0.1110140807   -2.4727105427    1.1724678561
 C    0.3177580207   -2.9975163980   -0.1443865676
 C    0.6364490332   -1.9671696071   -1.2134870878
 H   -1.8484605466    0.4657399651   -1.4174794695
 H   -2.0658843707   -0.8577623899   -0.2539119336
 H   -2.2592288069    0.8210136465    0.2736515123
 H    0.1517111136    1.2569199326   -0.0976798420
 H   -0.0593691604   -0.1166350412    1.0045827102
 H    2.6625341384   -0.9050631132   -1.4225350807
 H    3.2754957677   -2.0871371196    0.5854979787
 H    2.2328747644   -0.9269587664    1.4062539228
 H    1.6766681869   -3.7161188827    1.5151044524
 H   -0.5858459264   -3.2115614252    1.6860218813
 H   -0.0570057673   -3.9631076929   -0.4678282729
 H    0.4936643054   -2.2890852955   -2.2430804668