14

 O   -0.1580945474    0.0297414449   -0.2725758868
 C   -0.0932036691    1.1997459124   -0.0846528130
 N   -1.0884706105    2.2345547914   -0.0634517561
 C   -0.2226774421    3.0777819359    0.7885151732
 C    0.8703744143    4.2470762121    0.6968309997
 O    1.8330818099    3.1627801823    1.0972260870
 C    0.9532072828    2.3742728648    0.1658608452
 C    1.2002216069    3.1164438423   -1.1605769737
 C    1.1464927467    4.3939245383   -0.7849241665
 H   -2.0668640870    2.0280457211    0.1024696695
 H   -0.3537506380    2.8406287205    1.8468641192
 H    0.8825360670    5.0940749655    1.3811800182
 H    1.3652201536    2.6508481273   -2.1201105827
 H    1.2485851530    5.3126845313   -1.3423243932