20

 C    0.0621988788    1.3789657202    0.1141371170
 O    0.0076584467   -0.0236178546    0.0218164883
 C    0.6428916024   -0.5237836500   -1.1330871349
 C    0.5041594921   -2.0494543444   -1.1377381165
 C    1.1701364426   -2.6954776180   -2.3100216529
 C    0.6604773359   -3.1599234774   -3.5039727061
 C    1.7447288585   -3.6486314903   -4.2854699734
 C    2.8913631466   -3.4704059463   -3.5491917384
 N    2.5331833918   -2.8899211246   -2.3575208660
 H    1.1001974858    1.7467348871    0.1573711587
 H   -0.4357446968    1.8658046421   -0.7396038618
 H   -0.4522739210    1.6681279594    1.0339318013
 H    0.1888681387   -0.1030720720   -2.0455397116
 H    1.7086756571   -0.2344375518   -1.1439394759
 H    0.9089260716   -2.4329668761   -0.1924148825
 H   -0.5606876154   -2.2997328498   -1.1444277688
 H   -0.3833154764   -3.1500989530   -3.7805365372
 H    1.6876605308   -4.0857186282   -5.2704964992
 H    3.9204756813   -3.7100697361   -3.7634026646
 H    3.1687280991   -2.6641402358   -1.6120597756