27

 C   -0.1636900120    1.5931087746    0.1132105086
 C   -0.1334621727    0.0658883466    0.0075513590
 C    0.7623177361   -0.4417729028   -1.1295454604
 C    0.7762017877   -1.9675217052   -1.2469925628
 C   -0.4990389739   -2.5709364959   -1.9124892816
 C    0.2908861174   -2.7271501781   -3.2384466387
 C    1.6110071963   -2.5656852277   -2.4323879037
 C    2.7719173722   -1.7902904873   -3.0446828381
 C    3.3940656339   -2.5110311529   -4.2462188766
 H    0.8397096843    1.9982192537    0.2864578634
 H   -0.5461628711    2.0464553043   -0.8082520407
 H   -0.8031961362    1.9254387660    0.9371294708
 H    0.2168197942   -0.3610680191    0.9568161928
 H   -1.1546297550   -0.3107375902   -0.1334889329
 H    0.4294333150    0.0061381673   -2.0764282020
 H    1.7849832232   -0.0762098611   -0.9654262972
 H    1.0274221592   -2.3899250264   -0.2672974233
 H   -0.7750758121   -3.5367127459   -1.4802675270
 H   -1.3915575250   -1.9391069489   -1.9348732738
 H    0.1501259877   -3.6504199546   -3.8059791900
 H    0.1259814521   -1.8823319701   -3.9156914700
 H    1.9709241149   -3.5589793971   -2.1349691990
 H    2.4309056457   -0.7951435887   -3.3562549878
 H    3.5434318917   -1.6234083985   -2.2808094166
 H    4.2207967800   -1.9350527053   -4.6737243959
 H    3.7852182788   -3.4935918341   -3.9589433788
 H    2.6548430976   -2.6700385926   -5.0388268176