19

 C   -0.0054146404    1.5573608386   -0.0042190129
 C    1.4833925708    1.9668125738   -0.0002270350
 O    2.0574650665    1.9942184343    1.3237746324
 C    2.4981791294    0.6048554042    1.1846478770
 C    1.5654684991   -0.3244657498    1.9126662307
 C    0.3609029084   -0.5630041735    1.3890736321
 C    0.0126354746   -0.0036170909    0.0247424949
 C    1.2188039107   -0.3147252552   -0.9009313060
 C    2.2473154532    0.6684326797   -0.3598639076
 H   -0.5430482709    2.0006190013    0.8367444455
 H   -0.4790580672    1.8973779410   -0.9330062341
 H    1.6850354994    2.8938596007   -0.5444243437
 H    3.5373498710    0.5005647191    1.5093266792
 H    1.8665610256   -0.7305962762    2.8733312399
 H   -0.3686669299   -1.1790769241    1.9069731061
 H   -0.9272614696   -0.4239548746   -0.3395080304
 H    1.5320060063   -1.3607318072   -0.8455402296
 H    0.9841992934   -0.0780657616   -1.9460025313
 H    3.1609379296    0.7777655704   -0.9436129275