20

 C   -0.1257999885    1.5870803508   -0.0206529650
 C    0.0111075063    0.0698188285   -0.0199844135
 C    1.1437283785   -0.5955639163   -0.8519031165
 C    2.1199205602   -0.2544485402    0.2983850845
 C    0.8447060253   -0.5921411451    1.1368520129
 C    0.7060146686   -2.0838156582    0.7781054484
 C   -0.5948855877   -2.7875760971    1.1290834094
 O    0.8902521065   -1.9987446682   -0.6640716945
 H    0.8167699414    2.1104022308    0.1590953797
 H   -0.5187986392    1.9364206658   -0.9819038333
 H   -0.8303809704    1.9064507637    0.7551626403
 H   -0.9684656350   -0.3799554501   -0.2052309836
 H    1.3327300941   -0.3934700765   -1.9060407318
 H    2.9915122640   -0.9040492915    0.4112559056
 H    2.4171028865    0.7919451335    0.3453567156
 H    0.7320996120   -0.3114691827    2.1845546162
 H    1.5422057800   -2.6588368063    1.2008297119
 H   -1.4723499325   -2.2195918881    0.8091975539
 H   -0.6308278650   -3.7661007659    0.6410005354
 H   -0.6588631850   -2.9457070367    2.2112854644