16

 O    0.0813103590    0.0636556778   -0.1455508092
 C    0.0120557971    1.2495650118    0.0710773360
 C   -1.2421605967    2.1107941100    0.2554974712
 N   -0.8341584600    3.4897082945   -0.0514897964
 C    0.5944509049    3.5863720167    0.3343887804
 C    1.1811863389    2.1980558445    0.1323199613
 C    2.4926785943    1.6889904122    0.6118827056
 N    2.2948508665    1.9616396323   -0.8115973664
 H   -2.0686011465    1.7685012080   -0.3704297297
 H   -1.5676698226    2.0365059405    1.3038200075
 H   -0.9007234383    3.6234986685   -1.0559133171
 H    1.1068391234    4.3448092563   -0.2599153695
 H    0.6550277028    3.8801913317    1.3902501386
 H    3.1604934397    2.3765205933    1.1245268071
 H    2.5327771911    0.6540653634    0.9418086965
 H    2.1148590165    1.0752654385   -1.2861761360