17

 N   -0.0440890215    1.3561561117    0.5640822140
 C   -0.0005910353    0.0066246133    0.0507196669
 C    0.8920391728   -0.3162501486   -1.1098954456
 C    1.1904784198   -0.9080094519    0.2512468971
 C   -1.3732000227   -0.6271714113    0.0793299643
 C   -2.2897901044   -0.5505959744   -1.0713797951
 O   -1.5958137709   -1.7619254960   -0.7561744040
 C   -1.9496954239   -0.7297445389    1.4134205077
 N   -2.3688321988   -0.7829733893    2.4890485689
 H   -0.0069366047    1.3598338800    1.5794545927
 H    0.7444149833    1.8972946914    0.2298489904
 H    0.5138517420   -0.9889387986   -1.8702741563
 H    1.5296859682    0.4792314346   -1.4817616936
 H    2.0280002433   -0.5097306908    0.8132351614
 H    1.0129704213   -1.9699827437    0.3824337993
 H   -3.3646323607   -0.5763938395   -0.9101874209
 H   -1.9439066078   -0.0297501181   -1.9611909773