15

 N    0.0507216513    1.3766719359    0.1759697072
 C    0.0063039868   -0.0084842067    0.0381764605
 C   -1.0610686682   -0.8447507686    0.0092884789
 O   -0.6194790188   -2.1680855028   -0.0615663834
 C    0.7162667330   -2.1390432138   -0.0764985199
 N    1.3665409475   -3.3417247378   -0.2169034960
 C    1.1914948390   -0.8478934617   -0.0155052268
 C    2.5350559256   -0.4338238825   -0.0098430653
 C    3.6846530157   -0.0638203068   -0.0081629651
 H    0.9012976531    1.7748993979   -0.2002003767
 H   -0.7596439746    1.8546736197   -0.1924526276
 H   -2.1270711437   -0.7129483899    0.0403857936
 H    0.8794423446   -4.1258311864    0.1949795699
 H    2.3395905816   -3.3014416635    0.0521922635
 H    4.6959623070    0.2576744169   -0.0029359328