21

 C    0.0320195904    1.5338150676    0.0142743582
 C   -0.0101909472    0.0083776751    0.0883666048
 O    0.5542533271   -0.4681129331    1.3103660022
 C   -1.4269183653   -0.5432647757   -0.1177933980
 C   -1.4683789371   -2.0720391272   -0.0877325132
 C   -2.8594933290   -2.6513940530    0.0337450169
 O   -3.8100503413   -2.0247651466    0.4569429427
 C   -3.0647154062   -4.1038800419   -0.3790795685
 O   -4.3646141034   -4.5329725614   -0.1089478090
 H    1.0492770386    1.8947317507    0.1874087988
 H   -0.3037401062    1.8929459368   -0.9637928564
 H   -0.6247547782    1.9774001891    0.7733270994
 H    0.6494326204   -0.4036067586   -0.6865899609
 H    0.0699636193   -0.0544583250    2.0343521558
 H   -2.0881224339   -0.1549550752    0.6664322226
 H   -1.8301553234   -0.1726589644   -1.0676424114
 H   -0.9687796890   -2.5093857089   -0.9615326045
 H   -0.8954571078   -2.4235532827    0.7822774238
 H   -2.8264763505   -4.1799873409   -1.4548257071
 H   -2.3202799179   -4.7274027566    0.1424723970
 H   -4.8207520897   -3.7428015980    0.2240536367