17

 C   -0.1736332674   -1.3069120959    0.1340277325
 C   -0.0916024987   -0.1111309405    0.0384824874
 C   -0.0023866606    1.3423384027   -0.0536801999
 C   -0.1735165592    2.0450957984    1.3553502627
 C    1.3975217995    2.1200018318    1.4591263584
 C    1.3777391821    1.9555545357   -0.0422758439
 C    1.5997471617    2.5888567842   -1.1846546755
 C    0.4046873122    2.3308707377   -2.0924729710
 O   -0.6357085436    1.8373382975   -1.2234953610
 H   -0.2449227387   -2.3641386884    0.2052026906
 H   -0.6186714131    3.0323496984    1.2232610246
 H   -0.6997040662    1.4778427190    2.1245651564
 H    1.8460759341    3.0310992250    1.8572537642
 H    1.7980962151    1.2533380280    1.9918330879
 H    2.3854946229    3.2933806099   -1.4259693702
 H    0.0467843314    3.2546763426   -2.5624413600
 H    0.6057777485    1.6030634240   -2.8938599933