15

 O   -0.1920179554    0.0914426869   -0.7336597892
 C   -0.1551055263    1.2102653588   -0.2799631798
 C   -1.3432667540    1.9040485261    0.3644411748
 C   -1.6298608138    3.2517111172   -0.2377646319
 C   -0.7595458385    4.2577588573   -0.1759362269
 N    0.5228346191    4.1559396055    0.3762129781
 C    1.4605050121    3.1494385553    0.2382785234
 O    2.6256709321    3.3317386343    0.5244706558
 N    1.0446757439    1.9258402204   -0.2986331556
 H   -2.1909994434    1.2263273353    0.2713647693
 H   -1.1146706713    2.0185390474    1.4342934007
 H   -2.5743581513    3.4063481046   -0.7443599078
 H   -1.0002784550    5.2451447943   -0.5566322404
 H    0.9726272144    5.0101989531    0.6710547648
 H    1.8379803474    1.3496973134   -0.5515717750