21

 O   -0.0524725773    1.4239250673   -0.0332580913
 C    0.0105754175    0.0056039111    0.0230601786
 C   -1.4144385794   -0.5362840121    0.0201422277
 C   -2.1629063553   -0.1399099523   -1.2598606666
 O   -3.4819062859   -0.6621994299   -1.2873931197
 C   -3.4954398399   -2.0743299976   -1.2371671074
 C   -2.8575008027   -2.6014855388    0.0564057223
 O   -2.7870005334   -4.0202362847    0.0564512714
 C   -1.4344220908   -2.0644590773    0.1801423461
 H    0.8449584472    1.7661064412   -0.0745544003
 H    0.5621506022   -0.4024495049   -0.8407353085
 H    0.5303272808   -0.3352704616    0.9327574948
 H   -1.9448359519   -0.0800644330    0.8664056213
 H   -2.2561348966    0.9446582647   -1.3318741297
 H   -1.5976633903   -0.4959209968   -2.1405369093
 H   -4.5459041654   -2.3792733740   -1.3073182695
 H   -2.9546847707   -2.5099240147   -2.0952427167
 H   -3.4536576125   -2.2372694567    0.9085999936
 H   -3.6855868517   -4.3656268538    0.0604883925
 H   -0.8276836085   -2.5335051278   -0.6070979357
 H   -1.0034753953   -2.3697739683    1.1399329462