18

 C   -0.2469598576    1.5791049989   -0.0266048891
 C    0.0369279558    0.0892498631   -0.0363329462
 C    0.5693043290   -0.6233564984   -1.3177011198
 C    1.5314861509   -1.3831134383   -0.3452059057
 C    2.7214652395   -0.4544515850   -0.7652372960
 C    2.4510935247    0.2879717618    0.5712756307
 N    1.1682277225   -0.4510827097    0.8062443401
 C    1.8111295976    0.0854206822   -1.8782062442
 O    2.0175390778    0.7197475138   -2.8735276125
 H    0.5624241178    2.1677448415   -0.4673889470
 H   -1.1539617614    1.7892920497   -0.6023284534
 H   -0.4092401171    1.9258751998    0.9995552464
 H   -0.8580110049   -0.4481000132    0.2971280025
 H   -0.1416394429   -1.0561194955   -2.0221141301
 H    1.5741724045   -2.4587744821   -0.1913466848
 H    3.7373537026   -0.7550217882   -1.0219041446
 H    3.1734590908   -0.0072404534    1.3377759574
 H    2.3866167805    1.3793856028    0.5571659061