20

 C    0.0821384694    1.6156707334   -0.0171141193
 C   -0.2012561735    0.1204823249    0.1490267832
 C    0.6783863176   -0.5260288616    1.2184318267
 C    0.6555458228   -2.1070105888    1.2916094726
 N    2.0846675973   -2.0607402706    0.9517112646
 C    3.3108589369   -2.6370410647    0.7767945624
 C    4.1885095876   -1.5772403300    0.5961750261
 C    3.4727744414   -0.3393832787    0.6863642632
 C    2.1628792095   -0.7030960950    0.9093198812
 H    1.1230096411    1.7831073551   -0.3125852845
 H   -0.5599588302    2.0571603204   -0.7850831466
 H   -0.0926419236    2.1595731763    0.9178545245
 H   -1.2556547949   -0.0316493080    0.4148663425
 H   -0.0380534535   -0.3946573340   -0.8057458793
 H    0.4798833994   -0.0651525367    2.1932875721
 H    0.4477079401   -2.5301004484    2.2789172562
 H    0.0338621826   -2.6016918550    0.5386410726
 H    3.4717633997   -3.7025406964    0.7740222928
 H    5.2472669306   -1.6792088309    0.4072170756
 H    3.8901159696    0.6513660486    0.6004492735