17

 C   -0.0323392856    1.2619905931    1.4896465448
 C    0.1179266653   -0.1311767165    0.9301695512
 C    0.1384453843   -0.3733422569   -0.5410239471
 N    1.3603315159   -0.5383700182    0.2381413178
 C    2.3829701849    0.3651737761    0.0464070655
 N    2.7192936120    1.0085805809   -1.0313112239
 C    3.8782459410    1.6887611577   -0.6662290996
 C    4.1705745912    1.4224207422    0.6242184879
 O    3.2107613064    0.5605191803    1.1022649904
 H    0.3426349657    2.0144168845    0.7903771887
 H   -1.0882919891    1.4738049035    1.6854855015
 H    0.5141795158    1.3670069214    2.4323290506
 H   -0.2689423637   -0.9257878109    1.5640644328
 H   -0.2666299297   -1.2915490957   -0.9554594307
 H    0.0923289570    0.4928480364   -1.1952487778
 H    4.4072675665    2.3190576336   -1.3634292666
 H    4.9383693822    1.7165490685    1.3178800045