19

 C   -0.2210710653    1.4621288743    0.1824336407
 C    0.1544985684    0.0266225012    0.0135754874
 C    0.4824855735   -0.7335018672   -1.2846549458
 C    1.3660405133   -1.7154118785   -0.4399665503
 C    0.9872296941   -0.9028057983    0.8100812439
 C    1.7464413058   -0.7488090636    2.0955307054
 C    1.6514073384   -1.9948995868    2.9618888614
 O    2.5963116382   -2.5562970531    3.4515828680
 O   -0.4515773692   -0.9399008273    0.8925131319
 H    0.4712026665    2.1116034945   -0.3627525439
 H   -1.2296614083    1.6442238139   -0.2057477783
 H   -0.2118836382    1.7451744982    1.2385907509
 H   -0.3830527474   -1.1641081847   -1.7934541258
 H    1.0690631676   -0.1451451952   -1.9945737961
 H    1.0601835053   -2.7640746122   -0.4211330029
 H    2.4272355152   -1.6498285917   -0.6921900448
 H    2.8023365055   -0.5274173434    1.9150897439
 H    1.3041521706    0.0790223586    2.6662591048
 H    0.6124943462   -2.3587768386    3.1198454297