24

 C    0.3585314373    0.0072033536    1.5301385973
 C   -0.0248095185    0.0778383070    0.0433971188
 C    1.1445425646   -0.3992439819   -0.8302809003
 C   -1.3274113332   -0.7153745184   -0.1868069691
 C   -2.0638640330   -0.5714541893   -1.5348656371
 C   -3.4014950007   -1.3262157229   -1.4574488929
 C   -2.3086443051    0.8947367443   -1.9219809806
 O   -1.2345384924   -1.2007114434   -2.5237355300
 H    1.2720430785    0.5775538155    1.7285609806
 H   -0.4341998725    0.4075597026    2.1715827485
 H    0.5430409055   -1.0293300351    1.8378029636
 H   -0.2180113480    1.1333066890   -0.1908141951
 H    1.3806201561   -1.4487759537   -0.6164922806
 H    0.9095221159   -0.3295368266   -1.8925896275
 H    2.0441089635    0.1916940877   -0.6249051352
 H   -1.1214457808   -1.7842615450   -0.0421698131
 H   -2.0415655881   -0.4313959375    0.5965459454
 H   -4.0732350573   -0.8813243031   -0.7161980332
 H   -3.9136817142   -1.3002553110   -2.4268911648
 H   -3.2327918820   -2.3734564830   -1.1907888582
 H   -1.3658500799    1.4183866043   -2.0954067598
 H   -2.8989963016    0.9505760793   -2.8445194506
 H   -2.8644036866    1.4279249684   -1.1435152812
 H   -1.6841291476   -1.1252281807   -3.3722645048