16

 C   -0.0699498599    1.4952298197   -0.0863081396
 C   -0.0553541916   -0.0031590064   -0.0518683853
 C    0.6547811715   -0.9092348439   -1.1767459072
 C   -0.1301521947   -2.0127456393   -0.4949665844
 C    0.4461987332   -2.7482084287    0.4820465222
 C    0.3182389653   -1.9068923963    1.7199779889
 O    0.8347134651   -2.0631546827    2.7895075892
 N   -0.3547753768   -0.6573425888    1.3298921272
 C   -1.1086788420   -1.0082114288    0.1164484505
 H    0.9110343121    1.9004440549    0.1816471543
 H   -0.3230337519    1.8536582078   -1.0897648636
 H   -0.8045105877    1.8809205733    0.6237082215
 H    0.2682306889   -0.5393131663   -2.1318519343
 H    1.7418476595   -1.0129176800   -1.2108404653
 H    1.3427312573   -3.3482805805    0.3711594634
 H   -2.1913145281   -0.9739638740    0.0904992226