19

 O    0.2612254689   -0.1321554930   -0.1458404343
 C    0.2274675469    1.0695431109   -0.1009867257
 C    1.4224697588    1.9724444807    0.0916704346
 C    1.5566709864    2.9975050882   -1.0803343523
 O    1.2989621683    4.2852378897   -0.5405999440
 C    1.6962561851    4.2447406408    0.8069895202
 C    3.0039182558    4.8887488169    1.1959010868
 C    1.6693130271    5.5245502892    1.5631907801
 C    1.2525726969    2.8916037066    1.3327295584
 H   -0.7355759264    1.6253709286   -0.2096340568
 H    2.3126828179    1.3458883250    0.1680617608
 H    2.5695409542    2.9410385275   -1.5013105013
 H    0.8387474319    2.8290173501   -1.8897309555
 H    3.5977298004    4.4406225844    1.9859716772
 H    3.5737042765    5.3641939800    0.4054787322
 H    1.3735577859    6.4121942894    1.0156243727
 H    1.3520897134    5.5035636721    2.6003522063
 H    0.1983991863    2.9377966714    1.6329480353
 H    1.8326814858    2.5426946216    2.1885734253