17

 C   -0.4575671265    1.6339174170   -0.2525403589
 C   -0.0998781482    0.1733964882   -0.1057533867
 O    1.1377801281   -0.1509855320   -0.8579480000
 C    1.7877505980   -0.5664240359    0.2612561170
 O    2.9146165762   -0.9328584718    0.3739769057
 C    0.5729452003   -0.3615138682    1.1808762226
 C    0.7655328475    0.4824645371    2.4371225449
 C    1.8037814439   -0.0504324667    3.4001577121
 O    0.1207605488    1.4828834071    2.6417638199
 H    0.3603280395    2.2801479768    0.0708446828
 H   -0.6823292402    1.8458225973   -1.3021374071
 H   -1.3334266485    1.8703350433    0.3552416705
 H   -0.9019874649   -0.4732522553   -0.4705665579
 H    0.1855720808   -1.3386723121    1.4914700542
 H    1.4598644149   -1.0021584120    3.8231708581
 H    2.7391302259   -0.2619218156    2.8716904746
 H    1.9624646144    0.6662787428    4.2063545281