14

 N   -0.1935476821   -0.8407772935   -1.0577638590
 C   -0.1000923407    0.1187087834   -0.4204781635
 C    0.0467704442    1.3656799114    0.3353555309
 C    1.4333148362    1.9384755695    0.2457902065
 C    2.1718794071    2.6314502515    1.1779549360
 C    3.3976070869    3.0050635764    0.5598273270
 C    3.3705195533    2.5244089795   -0.7278443381
 N    2.1703275536    1.8863614587   -0.9118796887
 H   -0.7121900333    2.0681555129   -0.0380668836
 H   -0.1993846768    1.1756147306    1.3847942854
 H    1.8619476074    2.8497305527    2.1888120744
 H    4.2051689836    3.5594161914    1.0119781771
 H    4.0994227621    2.5715531546   -1.5205010899
 H    1.9006539885    1.3784356808   -1.7379809545