16

 N   -0.0352597001    1.0647043476    0.6350787448
 C    0.0082197237   -0.0483715916    0.0401563682
 O    1.1118887896   -0.6111318545   -0.5132947935
 C    0.8270873537   -1.9111782361   -1.0664119266
 C   -0.5593047222   -2.3183134281   -0.5458510382
 N   -0.5061660128   -3.1415745914    0.6769179644
 C   -1.1738243469   -2.5050234674    1.5626536233
 N   -1.7931420482   -1.3217947386    1.1850128032
 C   -1.1924540116   -0.9757286642   -0.1052864197
 H    0.8834769157    1.5101580483    0.6538482253
 H    0.8527546955   -1.8338158855   -2.1586975402
 H    1.6028645902   -2.6022105585   -0.7313057291
 H   -1.1242005924   -2.8500457118   -1.3169658820
 H   -1.3161679195   -2.8709462235    2.5755371814
 H   -1.8433899754   -0.5685315073    1.8604246190
 H   -1.9277393591   -0.5535471475   -0.7928715502