23

 C    0.5329071473    1.5618232725   -0.1830924966
 C    0.0475073995    0.1284978061    0.1035116648
 C    0.3476530864   -0.8582246907   -1.0549252908
 C    1.6262052285   -1.6136828786   -0.6272529672
 C    1.6506781082   -1.4355054776    0.8779481187
 C    2.5866082138   -2.2561512528    1.7118208162
 O    2.3732430989   -3.6600406955    1.5451244579
 C    0.7776813051   -0.5009672646    1.2830392399
 C    0.5046670208   -0.0217148824    2.6766384500
 H    1.6037092733    1.5730741811   -0.4146396040
 H   -0.0026345772    1.9884150021   -1.0376760280
 H    0.3697517620    2.2238476729    0.6735835775
 H   -1.0315886997    0.1777812890    0.3038633179
 H   -0.4794692576   -1.5686822449   -1.1530049339
 H    0.4523843261   -0.3513062729   -2.0186231012
 H    1.6158997633   -2.6697405634   -0.9141562361
 H    2.5327795194   -1.1847175856   -1.0792306036
 H    3.6230232354   -2.0922882744    1.3905549405
 H    2.5303485124   -1.9735119675    2.7724457715
 H    1.4519495035   -3.8311780457    1.7673046161
 H    1.0666561421   -0.5744496399    3.4330704601
 H    0.7563884271    1.0402130911    2.7899102861
 H   -0.5631536886   -0.1118338283    2.9149710541