11

 C    0.0489844535    1.3663354338    0.0071512718
 O   -0.0476443892   -0.0732754865    0.0025552770
 C   -1.2654627462   -0.5507170691    0.0110366745
 N   -2.3761153241    0.1004900740    0.0230208386
 O   -3.3562212077   -0.9447039381    0.0271054961
 C   -2.7366971689   -2.1456377873    0.0173504249
 O   -3.2334669272   -3.2195579592    0.0169803446
 O   -1.3660179639   -1.8921477875    0.0065347804
 H    1.1157345620    1.5818887598   -0.0017063826
 H   -0.4392947307    1.7770488830   -0.8797755746
 H   -0.4230630076    1.7702452873    0.9059152892