14

 O   -0.0215749091   -0.1111677386   -0.0247681966
 C    0.0089126555    1.0889144213   -0.1154348137
 C    1.2891525238    1.9003859589   -0.1218661204
 C    1.3026735368    3.0143355877   -1.2131517914
 C    0.2268852995    3.9909232341   -1.0058953758
 C   -0.6608744523    4.7787731160   -0.8231679019
 C    2.6142201278    3.6665545473   -1.2561138700
 C    3.7016193234    4.1748475426   -1.2781073817
 H   -0.9248569242    1.6873231198   -0.1898321069
 H    1.3944014339    2.3825472894    0.8580576313
 H    2.1359184343    1.2258048208   -0.2640935244
 H    1.1372443611    2.5277813185   -2.1857305056
 H   -1.4412491557    5.4831249283   -0.6703393815
 H    4.6585296252    4.6350008039   -1.3048159313