21

 C   -0.0145751442    1.4774044554   -0.0871693766
 C    0.0215916934   -0.0179984488    0.0454030651
 C   -0.8541804911   -0.7706470095    1.0175354024
 C    0.6651746183   -0.7879685275    1.1649928528
 C    1.4201374500   -1.9318960289    0.5066965878
 C    1.3296463333   -3.2730106813    1.2191960359
 O    2.0370036947   -4.2239694492    0.4327333520
 C    0.8053008973   -1.9628970586   -0.9144383096
 O    0.3099534070   -0.6525534719   -1.1806064252
 H    0.9390378948    1.8540077754   -0.4707723322
 H   -0.8040930594    1.7840489463   -0.7811687205
 H   -0.2116950019    1.9454471969    0.8810660769
 H   -1.4084438855   -0.1856713410    1.7440121053
 H   -1.3697687385   -1.6648782533    0.6842987507
 H    1.1136595351   -0.2834948245    2.0137511574
 H    2.4792828791   -1.6549213185    0.4394679392
 H    1.7601634919   -3.1914963816    2.2296909927
 H    0.2716820287   -3.5583105468    1.3341023827
 H    1.9522098271   -5.0860515287    0.8499329925
 H    1.5258247795   -2.2191438755   -1.6934695137
 H   -0.0101175396   -2.7000909385   -0.9588860357