23

 C   -0.6572822301   -0.6775325621   -1.0328499421
 C    0.1005286625   -1.4247704303    0.0450192228
 C    1.6113839614   -1.5331616137    0.0505641284
 C    2.4665424915   -0.7998921675   -0.9631754481
 C    0.8977647235   -0.8128373603    1.1822477904
 C    1.1042647562    0.6399974968    1.5177653590
 C    2.4939149787    0.9793461640    2.0231045911
 C    0.2513691352    1.7350240930    1.0192551817
 O    0.0567937636    1.2107072725    2.3294329243
 H   -0.1192622019    0.1940556494   -1.4102712973
 H   -0.8373741300   -1.3410475367   -1.8864227456
 H   -1.6344525766   -0.3393301704   -0.6713866448
 H   -0.4138157800   -2.3362051383    0.3415760802
 H    2.0087444357   -2.5120286923    0.3082645265
 H    2.1290927663    0.2258405277   -1.1331615325
 H    3.5083732644   -0.7479973212   -0.6287298641
 H    2.4593831480   -1.3158682530   -1.9299999785
 H    0.8441690989   -1.3878226613    2.1056419375
 H    3.2427538694    0.8630357879    1.2341683688
 H    2.5251021161    2.0083071212    2.3904033338
 H    2.7707869974    0.3141371763    2.8483098525
 H    0.6645028881    2.7437650813    0.9739704577
 H   -0.5554218080    1.5432277869    0.3189266383