19

 C    0.0218500727    1.4888609608    0.0690080622
 C   -0.0148770867   -0.0044968652   -0.0128416179
 C   -0.0617007270   -0.7645586741   -1.1136839196
 C   -0.0866075493   -2.2440997283   -0.7992449817
 C    0.0219928179   -2.2840332495    0.7268964267
 C    1.2668543239   -1.7386352847    1.4294442356
 C    2.5593318086   -1.4821808447    0.7554286990
 O    3.6287560613   -1.7624182615    1.2473539232
 C    0.0184422889   -0.8641500875    1.2160708213
 H    0.9392512172    1.8365602452    0.5603598021
 H   -0.0303666800    1.9472362888   -0.9218352111
 H   -0.8149556183    1.8726826401    0.6660506997
 H   -0.0521227397   -0.3838585217   -2.1292844747
 H   -1.0254475878   -2.7101261923   -1.1274370521
 H    0.7173078237   -2.7963245201   -1.3016791797
 H   -0.4998531755   -3.0666456635    1.2641936354
 H    1.4025282531   -2.1112777303    2.4400857743
 H    2.4997411270   -1.0025425965   -0.2424855249
 H   -0.5031571701   -0.5428845552    2.1119859822