21

 C   -0.0310862578    1.5613660157   -0.1275816856
 C    0.0098276056    0.0326150778   -0.0647966073
 C   -1.3779153092   -0.5866583521    0.1505596527
 O   -2.2587156693   -0.1882348159   -0.9045590425
 C   -2.8567282125   -1.3292420821   -1.5154173335
 C   -2.2476122339   -2.5110554070   -0.8215617710
 C   -1.4136424201   -2.0984582806    0.1268282155
 C   -0.6244052886   -2.9333119795    1.0797912211
 O   -0.9500009333   -4.2986257148    0.8933378686
 H    0.9657765401    1.9766406573   -0.3037335777
 H   -0.6906231090    1.8912973237   -0.9339639488
 H   -0.4095177467    1.9846558641    0.8098228471
 H    0.4291211770   -0.3748063110   -0.9928312484
 H    0.6673490912   -0.2898600311    0.7535606449
 H   -1.7782224229   -0.2039798554    1.1083310726
 H   -3.9516401976   -1.2916576053   -1.3919478701
 H   -2.6563001230   -1.3166107151   -2.5981492437
 H   -2.4793186141   -3.5398059964   -1.0597232115
 H    0.4532053777   -2.7547220956    0.9216571853
 H   -0.8404335699   -2.6039660352    2.1124182043
 H   -0.3931141838   -4.8209100414    1.4774322580