16

 C    0.0086748447    1.4978838881    0.0895419390
 O    0.9989251802    2.1500726728    0.8773110933
 C    2.2754609745    1.7315452411    1.0607691262
 N    2.9431373867    0.7130637849    0.7350302305
 C    2.5091273392   -0.4525537729    0.0682194237
 C    1.4539257965   -1.3906508429    0.5929791017
 O    0.3997372796   -0.6815645984    1.2430100965
 C    0.0722394037   -0.0143390614   -0.0039137590
 C    1.2334562188   -0.6818252317   -0.7283419162
 H   -0.9399905826    1.8051908491    0.5412734362
 H    0.0387666207    1.8982726057   -0.9338666088
 H    2.7760764885    2.5148575849    1.6301082998
 H    3.3409578548   -1.0083937144   -0.3605566745
 H    1.6125337932   -2.4255216048    0.8720198388
 H   -0.8989292458   -0.3701810484   -0.3724816282
 H    1.2212219575   -1.0421006618   -1.7484008890