19

 C   -0.0760831308    1.6008698032   -0.0789576302
 C    0.0248417662    0.0739160375    0.0195094549
 C    0.8653988463   -0.3416540657    1.2358952417
 O   -1.2936067579   -0.4899461620    0.1157911210
 C    0.5585725387   -0.5364070212   -1.2932883723
 C    1.9858427345   -0.1786037990   -1.6958853438
 O    2.6858919096    0.6340106016   -1.1483225994
 C    0.4020491229   -2.0606036700   -1.3770745733
 O    0.7707066338   -2.6974786898   -2.3307103647
 H    0.9082051191    2.0525104188   -0.2144402064
 H   -0.7211221440    1.8846415776   -0.9159476330
 H   -0.5175714489    2.0051400466    0.8394176617
 H    0.4063833115    0.0438769052    2.1533790619
 H    0.9250337398   -1.4304049419    1.3263414698
 H    1.8771774510    0.0629766953    1.1674673007
 H   -1.6882821015   -0.1774050861    0.9369961314
 H   -0.0662192848   -0.1650391023   -2.1216734263
 H    2.3388336899   -0.7570551836   -2.5727176692
 H   -0.0791605353   -2.5383948042   -0.5039130344