16

 C   -0.1110327053    1.5508879790    0.0170864010
 C    0.0883961103    0.0473620582    0.0255821803
 N    1.1989514032   -0.4751970724   -0.8522006134
 C    1.7277771963   -1.2654146773    0.2672176059
 C    2.2245022892   -0.3445660866    1.3218447593
 C    0.7292079391   -0.6325321708    1.2582752388
 C    0.0051872477   -1.1920820360    2.3453632139
 N   -0.6007238484   -1.6499391042    3.2204842868
 H    0.8156343869    2.0768312503    0.2612911883
 H   -0.4357400097    1.8852464858   -0.9734022508
 H   -0.8791048789    1.8378278078    0.7428339895
 H   -0.8540403153   -0.4637492595   -0.1979035244
 H    0.8252428419   -1.0694217966   -1.5842194648
 H    2.0301909982   -2.3006732826    0.1698309183
 H    2.7201263907   -0.8091883445    2.1670490705
 H    2.5940112240    0.6367807294    1.0414931609