18

 C   -0.3026437737    1.5518368868   -0.0279030760
 C    0.0215269080    0.0636379488   -0.0217385946
 C    1.1850763745   -0.5193688056   -0.9031754906
 C    1.7250532315   -1.2590534623    0.3285994593
 C    2.1511415569   -0.2530576335    1.3915873704
 C    2.7765026778    1.0034630885    1.0831701211
 N    3.2849250333    2.0135767914    0.8342561760
 C    0.6755902418   -0.6061691666    1.1982348728
 O   -0.0195846616   -1.1950707695    2.2324252909
 H    0.5804988874    2.1675352032    0.1564238740
 H   -0.7206772922    1.8472594849   -0.9960955612
 H   -1.0514612658    1.7905800528    0.7361761874
 H   -0.8855970832   -0.5117210303   -0.2351330067
 H    0.8324999398   -1.1857181087   -1.6916116871
 H    1.8680751702    0.2164414329   -1.3361668680
 H    2.1161009014   -2.2682560864    0.3573999561
 H    2.5446742879   -0.7272061677    2.2860422073
 H   -0.2967637940   -0.5086619586    2.8503498789