13

 O    0.0663353191   -0.0065083313    0.0024396930
 C   -0.0272813368    1.1865462940    0.0097619581
 N   -1.1471433718    1.9924827753    0.0296131570
 C   -0.7634783523    3.3427308243    0.0312564706
 C    0.5935556205    3.3042104494    0.0120336122
 N    1.1053991752    4.5607587112    0.0109743623
 C    0.0194138609    5.4306748924    0.0303608115
 C   -1.1599885329    4.7046796613    0.0435459482
 O    1.1034903757    2.0456237155   -0.0016449658
 H   -2.0688373133    1.5944983431    0.0406937087
 H    2.0745468955    4.8234760219   -0.0011514226
 H    0.1797289311    6.4952063099    0.0333779305
 H   -2.1536343111    5.1213898929    0.0596071762