15

 O    0.3421418670    1.1810431230   -0.0826963333
 C    0.1579495560   -0.1915556896    0.1244936754
 C    0.0937901749   -0.5136594716    1.6468041213
 C   -1.4097791256   -0.3281985825    1.5253019687
 O   -2.2879550702    0.1423679534    2.1858239285
 C   -1.3732626238   -0.5697342455   -0.0119938772
 O   -2.1793952853    0.2762676167   -0.7782256505
 C   -1.5829894453   -2.0189815943   -0.4007406834
 O   -0.8417528042   -2.9174941393   -0.0918008550
 H   -0.2523789424    1.4382001628   -0.8005151334
 H    0.8376336207   -0.8139395769   -0.4660888185
 H    0.3520460357   -1.5601261637    1.8320445784
 H    0.6248714584    0.1537339495    2.3260336100
 H   -2.7217214996    0.7914967824   -0.1650827927
 H   -2.4993617061   -2.1749749943   -1.0083542682