21

 C    0.0039942183    1.5724856433   -0.0420293631
 C    0.0032128762    0.0435738448    0.0323384579
 C    0.6578651285   -0.4826881168    1.3105602811
 N    0.6738528078   -1.9329224484    1.3565006669
 C   -0.5951947324   -2.6522376816    1.5750030917
 C    0.1926815476   -3.6921814304    2.4247216792
 C    1.2831726838   -2.5856346968    2.5277759426
 C   -0.4102222881   -4.1870444000    3.6467789307
 N   -0.8927569239   -4.5734257324    4.6239569082
 H    1.0248733268    1.9697960754   -0.0228454322
 H   -0.4717286650    1.9235510874   -0.9623151699
 H   -0.5382533140    2.0131361843    0.8016731563
 H   -1.0293480007   -0.3250059919   -0.0231680351
 H    0.5299926476   -0.3810727347   -0.8297688239
 H    1.6989614575   -0.1379371541    1.3589312949
 H    0.1416880719   -0.0569209578    2.1952241328
 H   -1.3177525170   -2.0948485878    2.1924487163
 H   -1.0948370723   -3.0202590321    0.6750071986
 H    0.5325778364   -4.5297251566    1.8125096179
 H    2.3254646137   -2.8942945108    2.4061036594
 H    1.1790611674   -2.0081990030    3.4598653297