17

 C    0.1410018517    1.2116945827    0.2085711746
 O   -0.0036313824   -0.1814680731   -0.0267563739
 C   -1.3503058399   -0.6293698713   -0.0949353447
 C   -1.3173326005   -2.0691843067   -0.6733302377
 O   -0.1635377556   -2.3566846610   -1.4233381039
 C   -1.4772839875   -2.9384225507    0.5620751220
 C   -1.8169161185   -2.2475488833    1.6567512227
 C   -1.8903888620   -0.8043894625    1.3458761474
 O   -2.2500805861    0.0975970093    2.0683606941
 H    1.2138366042    1.4133064833    0.2385798647
 H   -0.3154952030    1.7948101793   -0.6041520714
 H   -0.3173171139    1.5071137296    1.1580367338
 H   -1.9612409018    0.0715753802   -0.6770661017
 H   -2.1803884448   -2.2254222665   -1.3343361137
 H    0.5128354873   -1.7431748709   -1.1020888551
 H   -1.3420123963   -4.0127372788    0.4988428831
 H   -2.0239474609   -2.6402818898    2.6443993898