21

 C   -0.1037960768    1.4339442122    0.2362898800
 O   -0.0773865788    0.0258356498    0.1581830826
 C    0.5796609129   -0.4529705902   -1.0020410419
 C    0.6997018122   -1.9727730414   -0.9492557209
 C   -0.5371468562   -2.6246354565   -0.3191099649
 O   -1.7546741959   -2.1037089359   -0.8208234915
 C    1.2294391220   -2.5966648892   -2.2630340159
 C    2.3872676703   -3.1149881103   -1.3901624254
 O    1.8808917118   -2.4255088632   -0.2277382742
 H    0.9127300442    1.8527057569    0.2760321203
 H   -0.6276772885    1.8809374117   -0.6230215298
 H   -0.6333444217    1.7006824208    1.1537986358
 H    0.0097156360   -0.1695013527   -1.9022477164
 H    1.5875211544   -0.0190708295   -1.0846317744
 H   -0.5331208027   -3.6981230150   -0.5338125775
 H   -0.4514491983   -2.5019717169    0.7683317349
 H   -1.8290809157   -1.2203008807   -0.4400249172
 H    0.5800254826   -3.3447632449   -2.7197806305
 H    1.5255864946   -1.8692173051   -3.0226017127
 H    2.4154457025   -4.2010081426   -1.2383501590
 H    3.3913460610   -2.7721336074   -1.6660116714