18

 O   -0.0470959210    1.3467527508   -0.0570588350
 N    0.0364732038   -0.0573861120   -0.0656162475
 C   -1.1159486353   -0.6111720130   -0.0099076046
 C   -2.4359723390    0.1073039784    0.1322538960
 C   -3.3683864640   -0.7140009691    1.0300741804
 O   -3.5974333590   -2.0048000189    0.4842545512
 C   -2.4440353934   -2.7834954223    0.3418035739
 C   -1.8890399380   -2.9047793152   -1.0431608747
 C   -1.1370108840   -2.0938813044    0.0112728786
 H    0.8818343370    1.5993713211   -0.0607754062
 H   -2.2667243553    1.1041004603    0.5446191875
 H   -2.9101150893    0.2354075688   -0.8491452817
 H   -2.9471274540   -0.7886512579    2.0443497195
 H   -4.3519375382   -0.2427324700    1.1044116046
 H   -2.4186447119   -3.6443697628    1.0067415239
 H   -1.4383704463   -3.8389097986   -1.3585809188
 H   -2.4219011176   -2.3637398886   -1.8164441171
 H   -0.2232457046   -2.5433207866    0.3825717999