18

 O   -0.1753933724    1.3553851755    0.1706797602
 N    0.0476503657   -0.0489442109    0.1924683632
 C   -1.0590892216   -0.6558824358    0.0903970104
 C   -2.5016457977   -0.2138642996   -0.0986195685
 O   -2.7766659347    0.7644143613   -1.0676460140
 C   -2.8493406926   -1.6853525529   -0.4592577348
 C   -2.5248519260   -2.0800819319   -1.9254461393
 C   -1.1561607461   -2.6755973979   -1.4797328885
 C   -1.3851255103   -2.1274568787   -0.0419688318
 H    0.7199255317    1.7070925895    0.2114200211
 H   -2.9420971779    0.0472141901    0.8787810509
 H   -2.1189533776    1.4598373832   -0.9436885106
 H   -3.7517881566   -2.1002455161   -0.0130090404
 H   -3.2136395861   -2.8061098707   -2.3607121390
 H   -2.4635801860   -1.2161689309   -2.5896778106
 H   -1.1524497742   -3.7684142628   -1.4938715686
 H   -0.2585311792   -2.3172139456   -1.9882027695
 H   -1.1447057783   -2.7701780359    0.8053746098