17

 C   -0.0249591115    1.5563988362    0.0131294838
 C    1.4860992396    1.9463531715    0.0013995005
 C    2.2039421002    0.5525888801   -0.0117270779
 C    1.2397943308   -0.2493503187   -0.9162598411
 C    0.0210920926   -0.0107358130    0.0049780843
 C    0.6115681592   -0.4232371843    1.3456606009
 C    1.9060174184   -0.0889812648    1.3358342903
 H   -0.5572538592    1.9433452640    0.8850663301
 H   -0.5370432429    1.9285690831   -0.8796831818
 H    1.7411632409    2.5163849946   -0.8974140897
 H    1.7772828002    2.5458982150    0.8669017735
 H    3.2529719011    0.5912061091   -0.3072798069
 H    1.1210174014    0.1812007387   -1.9167404597
 H    1.5115320076   -1.3047193922   -0.9976512953
 H   -0.9197704920   -0.4855905936   -0.2753730718
 H    0.0358523111   -0.8054584104    2.1798223204
 H    2.6066305226   -0.1416848853    2.1602933905