14

 C    0.0491338701    1.4989444219    0.0097074773
 O    1.2351766968    0.6557620867   -0.0070529690
 C   -0.0139691158    0.0481872317    0.0024740384
 C   -0.6136946892   -0.9947129604    0.9873220152
 O   -1.7013409590   -1.1152728489    0.0134869957
 C   -0.6339119313   -0.9840110855   -0.9811204409
 C    0.2317450494   -2.2157614659   -0.6807123898
 C    0.2454118601   -2.2230705408    0.6558226586
 H   -0.1089815471    2.0501707820    0.9346935463
 H   -0.1278801383    2.0601713241   -0.9057927953
 H   -0.9282707738   -0.7827249323    2.0071530436
 H   -0.9693434861   -0.7609877602   -1.9919117584
 H    0.7148818299   -2.8626366214   -1.3971276972
 H    0.7430351942   -2.8776807309    1.3550908057