18

 C   -0.0983599515    1.4920403438   -0.0859166342
 N   -0.0395553072    0.0514456027    0.0780307054
 C   -1.2451385111   -0.6227198529    0.6717588721
 C   -0.2646517317   -1.5056576010    1.3972422346
 C    0.1733134846   -2.7438489668    1.6173757641
 C    1.6730754759   -2.7104544633    1.5703488634
 O    2.4316468380   -3.6105199186    1.8297063021
 C    2.0838720371   -1.3170746126    0.9968913631
 C    0.8136052008   -0.4874510431    1.1830214139
 H    0.8739840541    1.8588558114   -0.4293136845
 H   -0.8419431973    1.7478837017   -0.8474860844
 H   -0.3610894481    2.0269893216    0.8459272566
 H   -1.8188324150    0.0410810038    1.3389900470
 H   -1.9246743241   -1.0915927803   -0.0458017944
 H   -0.3820594626   -3.6693322115    1.6916840748
 H    2.9854526093   -0.9373083129    1.4816173331
 H    2.2940189012   -1.4551263323   -0.0693677477
 H    0.9036138577    0.2379234804    2.0080797050