13

 N    0.0285977786   -1.1641729089   -0.1232958261
 C    0.0474600641   -0.0125770891   -0.0270200654
 C    0.0410211185    1.4198173707    0.1260837852
 O    0.3839447351    2.1869011940   -1.0527457930
 C    1.2569409962    2.2705823553    0.0699958365
 C    1.0176593952    3.4702261631    0.9772158273
 C   -0.4005640153    3.2586025987    1.4671129465
 C   -0.9297593103    2.1144582477    1.0289826564
 H    2.2508536493    1.8594345046   -0.0795099598
 H    1.7381423111    3.4902924409    1.8038796659
 H    1.1312203789    4.4127395981    0.4288081906
 H   -0.9176063253    3.9898799592    2.0770791677
 H   -1.9180843860    1.7285040058    1.2376976982