15

 C   -0.0513955841    1.5640577092   -0.0058836246
 C    1.4542568782    1.8918666539   -0.0319054852
 O    2.1742865846    1.4547063259    1.1188379848
 C    2.2626749781    0.6492718226   -0.0800304791
 C    1.2746771715   -0.4525671653   -0.0641447710
 N    1.3274695248   -1.7745181367   -0.0789881930
 N    0.0220164948   -2.1226836584    0.0078259978
 C   -0.8349048221   -1.0589053607    0.0782489946
 C   -0.0384943678    0.0583768213    0.0223825503
 H   -0.5292342281    2.0196882732    0.8682586799
 H   -0.5445815128    1.9696938418   -0.8973519112
 H    1.7936835289    2.8307115178   -0.4626677773
 H    3.2467097050    0.5749363314   -0.5298266766
 H   -0.2186717528   -3.0992016819    0.0023732075
 H   -1.9010510182   -1.2074047340    0.1466175630