17

 C    0.0287774992    1.5580461263    0.0288711862
 C   -0.1225354235    0.0430139850   -0.0746626588
 N    0.7352176787   -0.4812783911   -1.1351369690
 C    0.7399294557   -1.9350112401   -1.2741642343
 C   -0.5690474100   -2.5816922894   -1.7795096933
 C    1.8545235015   -2.3192756872   -2.1598478155
 N    2.7055831078   -2.6310545537   -2.8761483690
 H    1.0725265734    1.8295199417    0.2076443374
 H   -0.2954482751    2.0495238081   -0.8955372837
 H   -0.5839632982    1.9518480768    0.8449289026
 H    0.1945619669   -0.4255614859    0.8660502543
 H   -1.1896753084   -0.2085517436   -0.2047641720
 H    0.5033744576   -0.0508171329   -2.0253797077
 H    0.9696474175   -2.3470420567   -0.2823043786
 H   -0.8217824177   -2.2053016087   -2.7753500901
 H   -0.4688294804   -3.6690187738   -1.8406051670
 H   -1.3908605353   -2.3499032247   -1.0977338216