21

 C   -0.0253990151    1.7972728849   -0.2492276842
 C   -0.2212267745    0.2793079920   -0.1621566907
 C    0.6192005843   -0.4728631763   -1.1877031132
 C    2.1777622151   -0.5762781975   -0.9369989429
 O    2.6859080806   -0.1206200401    0.2860920456
 C    2.0698282656   -2.1205577751   -1.0442575710
 O    1.8702917478   -2.6890938718    0.2738307820
 C    0.4332021880   -2.7771286811    0.0579330776
 C    0.5354339730   -2.0284249359   -1.2794916787
 H    1.0195349185    2.0580047963   -0.0600700258
 H   -0.2986748075    2.1764683721   -1.2404310141
 H   -0.6428732704    2.3186139077    0.4888120250
 H    0.0422924156   -0.0501439527    0.8491209877
 H   -1.2802198401    0.0275405297   -0.3075259884
 H    0.4384250010   -0.0437941813   -2.1798029415
 H    2.7648076592   -0.1161664532   -1.7373852059
 H    2.5246699622   -0.8423750370    0.9130220271
 H    2.7924027342   -2.6865089587   -1.6369204000
 H    0.1255651773   -3.8252369248   -0.0389221297
 H   -0.1373429261   -2.3097089188    0.8667424534
 H    0.0156658415   -2.4578617586   -2.1345123921