12

 O   -0.0696546672    0.0240563623   -0.0012313278
 C    0.0079800236    1.2248351451    0.0067216619
 C    1.2842323310    1.9880193611   -0.0010119633
 N    2.4528290356    1.3864192683   -0.0178062428
 O    3.3926025463    2.3965231231   -0.0202598788
 C    2.7796025770    3.5856435007   -0.0048569643
 C    1.4242730681    3.4199959595    0.0083945672
 C    0.4094785303    4.4004339700    0.0265693876
 C   -0.4671812587    5.2247739147    0.0421655173
 H   -0.8898469235    1.8758883379    0.0208150857
 H    3.4160867942    4.4559396379   -0.0051047304
 H   -1.2380893166    5.9556180793    0.0562006175