18

 C   -0.0507891280    1.4027885221    0.0903307788
 O   -0.0463270742    0.0266168871   -0.2176947382
 C   -1.2896633427   -0.6099172056   -0.0332301493
 C   -1.2225608428   -2.0249832281   -0.6345547724
 C   -2.3741471062   -2.7856217305    0.0348390308
 C   -2.5411420576   -2.1245745209    1.4093849392
 O   -3.2251740565   -2.5352844866    2.3095080274
 C   -1.6947171861   -0.8469784488    1.4347832158
 H    0.9421467909    1.7901512027   -0.1498528942
 H   -0.7985482862    1.9493385927   -0.5056617369
 H   -0.2537366136    1.5919836256    1.1546790381
 H   -2.0805240076   -0.0289707322   -0.5390567963
 H   -1.2738926013   -2.0116906875   -1.7251018364
 H   -0.2565398591   -2.4592241450   -0.3538860441
 H   -3.3195997397   -2.6492266794   -0.5068303451
 H   -2.2212988422   -3.8627289540    0.1346556973
 H   -0.7897746523   -1.0547030778    2.0223370775
 H   -2.2296327049   -0.0310986838    1.9249179179