15

 C   -0.0029533794    1.4945150759   -0.0313342871
 C   -0.0131398543   -0.0082151046    0.0058014378
 N    0.0738822885   -0.6629293363   -1.1553497776
 C    0.0635008959   -1.9987076040   -1.1052249452
 C    0.1613776965   -2.7116509752   -2.4097986898
 O    0.1643473291   -3.9134631210   -2.5231376599
 C   -0.0336465827   -2.6953148630    0.1018397451
 N   -0.1210759396   -2.0557509476    1.2672748091
 C   -0.1100479630   -0.7235364437    1.2085475693
 H    0.9179461708    1.8578081916   -0.4978895520
 H   -0.8371462741    1.8663299112   -0.6343131335
 H   -0.0788175004    1.9213961612    0.9713689627
 H    0.2322450075   -2.0254124480   -3.2792159253
 H   -0.0394727478   -3.7804496684    0.1090229508
 H   -0.1810307871   -0.1933268579    2.1553698056