15

 C    0.0195554012    1.4871216595   -0.0869474723
 O    1.4580252578    1.4193236108    0.1882395766
 C    1.2959864144    0.0763619536    0.7355966389
 C    1.8846902191   -1.2163961673    0.1726882369
 O    1.9386445243   -0.9916340448   -1.2491637287
 C    0.5203269225   -0.9770374519   -1.2186915160
 C    0.3747223752   -1.9304121594   -0.0466531997
 O   -0.6929860193   -1.1613893816    0.5518372197
 C    0.0103257847   -0.0390685250   -0.0384557134
 H   -0.5248806755    1.9870797068    0.7233350508
 H   -0.1925840521    1.9660538893   -1.0470972299
 H    1.1942471174    0.0875610028    1.8246346235
 H    2.7588776121   -1.7169814898    0.5825152994
 H    0.0022233437   -1.0045839733   -2.1754805409
 H    0.2460080944   -3.0100021295   -0.0340193448