20

 C   -0.1479879686    1.5736762575   -0.0100742023
 C    0.0307551715    0.0554703503   -0.0172197460
 O   -1.2438854246   -0.5864751641    0.0007112378
 C    0.9035537742   -0.4893225164   -1.1872866666
 C    1.6502907126   -1.6516619341   -0.5492260657
 C    2.5668729549   -1.3957641526    0.5924863590
 C    2.2555291280   -0.0784125073    1.2855116262
 C    0.7671502778   -0.5083793805    1.2002662567
 N    1.1706473201   -1.9338623284    0.8256596514
 H    0.8075982063    2.1032010300    0.0349110824
 H   -0.6618854471    1.9012148662   -0.9218769627
 H   -0.7579466711    1.8766509332    0.8459478566
 H   -1.7331809545   -0.2952789502   -0.7760696284
 H    0.2656745802   -0.8267464403   -2.0095220087
 H    1.5814496956    0.2731178844   -1.5858926354
 H    1.8420963899   -2.5437718850   -1.1366859740
 H    3.4464702591   -2.0080542650    0.7690045972
 H    2.6094638700   -0.0761732242    2.3183789459
 H    2.5696871387    0.8542429815    0.8052841196
 H    0.1767390669   -0.4598583250    2.1144092172