19

 C    0.0220011937    1.5086533634    0.0943672751
 C   -0.0139441058    0.0072433450   -0.0476084312
 C    0.2671157349   -0.6676600536   -1.4270965269
 C   -0.7773516345   -1.7260414883   -1.0338240663
 C   -0.4446237019   -2.4640157594    0.3141148011
 C    0.8725978879   -1.9748955827    0.8949660575
 O    0.8362068493   -0.5489294017    0.9489216626
 O   -1.4924317472   -1.7344403385    1.0193382734
 C   -1.4202416379   -0.7593768740   -0.0230065685
 H    1.0323320243    1.8904716045   -0.0831912740
 H   -0.6579220589    1.9797953167   -0.6217428288
 H   -0.2797735378    1.7979407367    1.1056920354
 H   -0.0952835276   -0.0567971705   -2.2593771337
 H    1.2990696053   -0.9678495384   -1.6274990466
 H   -1.3311105060   -2.3021247772   -1.7746174509
 H   -0.5767069390   -3.5475164144    0.3653775276
 H    0.9997478039   -2.3317076494    1.9218514938
 H    1.7252474042   -2.3308380424    0.2956570192
 H   -2.3295422870   -0.1700811558   -0.1577403089