22

 C    0.1133626669    1.4809981142    0.3430545134
 C   -0.1172321626    0.0126156853   -0.0343200129
 C    0.5580432199   -0.4362323482   -1.2905340171
 C    0.9326581550   -1.7850015719   -1.7810204540
 C    0.3513913846   -1.5181674654   -3.1685355153
 C    0.5328870642   -0.0170878993   -2.8251852383
 C    2.0655907283    0.0933234338   -2.6941815872
 C    2.6420840042    1.4639103981   -2.3954443041
 N    2.0040789132   -0.7662403801   -1.4599710160
 H    1.1743659831    1.6768460187    0.5224821978
 H   -0.2277153999    2.1554734852   -0.4495048251
 H   -0.4351978798    1.7359273947    1.2549606884
 H    0.2367353589   -0.6355485980    0.7770563679
 H   -1.1950915691   -0.1759401067   -0.1307661639
 H    0.9878176245   -2.7174899340   -1.2334724388
 H    0.8706151407   -1.8995424221   -4.0551771791
 H   -0.7010359417   -1.8125923901   -3.2031061418
 H   -0.0719315434    0.7511841808   -3.3056401443
 H    2.6355752382   -0.3779908051   -3.5065348891
 H    2.0737737248    1.9815142663   -1.6179239999
 H    3.6784410408    1.3752855787   -2.0549290872
 H    2.6297635792    2.0857208050   -3.2970717734