18

 C   -0.0923128630    1.4247201713    0.2079755050
 N    0.0589166824   -0.0051956982   -0.0118542573
 C   -1.1214407036   -0.7052942145   -0.4913503510
 C   -1.0922077856   -2.2309214128   -0.3592330741
 O   -2.0338762958   -2.8848613160   -0.7329387708
 C    0.1695648832   -2.8094588902    0.2372647439
 C    1.3871847358   -2.0455361257   -0.2987578570
 C    1.3208035285   -0.5524710973   -0.0001763306
 O    2.3199167405    0.0964383658    0.2524915327
 H    0.8612996743    1.8154744965    0.5590750115
 H   -0.3727967302    1.9416682616   -0.7192066364
 H   -0.8715767443    1.6123280127    0.9554759370
 H   -1.9940404485   -0.3566490120    0.0755102526
 H   -1.3361075010   -0.4709416061   -1.5459499298
 H    0.1135454308   -2.6870797089    1.3277978901
 H    0.2088795883   -3.8799585230    0.0243711014
 H    2.3191961132   -2.4123090365    0.1334866035
 H    1.4663436651   -2.1783700866   -1.3857214706