23

 C   -0.0011887238    1.6006948505    0.1298287078
 C    0.0027281271    0.0717463432    0.2140630531
 C   -1.3257718100   -0.5455392644   -0.2506669839
 C   -1.3923000484   -2.0617309020   -0.1004715719
 C   -0.3676377578   -2.8362366752   -0.9131624235
 C   -1.8118609825   -2.6367576606    1.2131328274
 C   -2.7607975350   -2.7556911137    0.0225717315
 C   -4.0429119136   -2.0201031077    0.0380463966
 O   -5.0502071759   -2.4041355764   -0.5069508004
 H    0.9538693626    2.0196239762    0.4611773248
 H   -0.1752002456    1.9405382028   -0.8971462211
 H   -0.7896290995    2.0314427505    0.7570395847
 H    0.8290451038   -0.3199019099   -0.3900743027
 H    0.2027547661   -0.2415970523    1.2468059765
 H   -2.1358847383   -0.0787315368    0.3195750305
 H   -1.5012677905   -0.2787428094   -1.3019566706
 H    0.6524464144   -2.5988361650   -0.5950958421
 H   -0.5051630795   -3.9154259775   -0.7992013509
 H   -0.4510594852   -2.5978149028   -1.9794158770
 H   -1.3539330925   -3.5533062711    1.5689394446
 H   -2.1053035246   -1.9491465884    2.0013423584
 H   -2.8406347282   -3.7257151466   -0.4573100026
 H   -4.0402496929   -1.0681809635    0.6166146709