20

 C   -0.1209333346    1.7810947229    0.5673136667
 C   -0.0769279886    0.3174437468    0.1044850266
 C    0.7963901134   -0.5658467490    1.0161920404
 O    1.0230637356   -1.8784268036    0.4518489585
 C    2.1683968235    0.0286748401    1.3523478312
 O    2.9270826556   -0.8683967789    2.1312480903
 C   -1.5285247249   -0.1993754858   -0.0814135889
 N   -1.6891300895   -1.5483943236   -0.0751205345
 O   -2.4576563094    0.5683739750   -0.2527773236
 H    0.8455807627    2.2730854906    0.4358434409
 H   -0.8764884173    2.3144862947   -0.0091657529
 H   -0.4035439735    1.8509321915    1.6230757194
 H    0.3757722892    0.2920488530   -0.9006042620
 H    0.2706550495   -0.7699391360    1.9557668890
 H    1.4173755981   -1.7523164357   -0.4209839867
 H    2.6863556442    0.2899738915    0.4095582052
 H    2.0611130615    0.9491082328    1.9314073809
 H    2.7730547500   -1.7428471626    1.7517722664
 H   -0.9096259242   -2.1682867414    0.0843683053
 H   -2.6221437412   -1.9068471722   -0.1949015721