21

 C    0.9655810636    1.2451365785   -0.0306150286
 O    0.9648781891   -0.1745565951   -0.2213178672
 C   -0.0042330423   -0.6487167443   -1.0338594165
 O   -0.8343104429    0.0536546330   -1.5544246102
 C    0.1180510235   -2.1562648475   -1.2034045837
 C   -1.1979207024   -2.7365578371   -1.7312464671
 C    1.3338338035   -2.4539902206   -2.1109025308
 C    1.6772410885   -3.9359668685   -2.2153339045
 O    2.8752313710   -4.0369131440   -2.9703309890
 H    1.1059646218    1.7633808786   -0.9827167773
 H    0.0217494491    1.5754386452    0.4106581705
 H    1.7962775536    1.4544720290    0.6435663897
 H    0.3360194186   -2.5672236152   -0.2094878257
 H   -1.1540785469   -3.8275750142   -1.7804769120
 H   -2.0340965340   -2.4604477359   -1.0835589129
 H   -1.4166445150   -2.3501824955   -2.7303623342
 H    1.1488051460   -2.0604354698   -3.1175849400
 H    2.2135183089   -1.9342966700   -1.7192017177
 H    1.8053278379   -4.3572938590   -1.2037883690
 H    0.8591002560   -4.4896019444   -2.6993466799
 H    3.0725229723   -4.9691889831   -3.0986061840