16

 O   -0.2448991083    0.0374650309    0.2607852416
 C   -0.0124188337    1.1614936623   -0.0961089924
 C    1.3835318906    1.7549278048   -0.2044521672
 N    1.4378973190    2.7477746411   -1.2675898986
 C    2.6576547201    3.5432140631   -1.2813959360
 C    2.5384127170    4.6495832007   -2.3452204682
 C    3.7219842701    5.5032308063   -2.3903895997
 N    4.6662000650    6.1687409723   -2.4100618831
 H   -0.8196957565    1.8776706053   -0.3697990675
 H    1.5758007684    2.2673791796    0.7503777571
 H    2.1153391583    0.9348412632   -0.2791206268
 H    1.3244821861    2.2870790175   -2.1661688354
 H    2.7753327635    4.0065132952   -0.2956611355
 H    3.5722630443    2.9550997595   -1.4665262066
 H    2.3922874821    4.2055544440   -3.3376026967
 H    1.6544223737    5.2608301243   -2.1368734149