21

 C   -0.7291449569    1.2261485057   -0.0553065733
 C    0.0986098532   -0.0406563153   -0.0134851182
 O    1.2998132561    0.0492739234   -0.8165820859
 C    2.1262402060   -0.5082473012    0.2441649732
 C    2.6544918535   -1.8801013423   -0.1298976471
 C    3.1980691745    0.5038959159    0.7035440120
 C    2.5365715427    1.2217048945    1.8549551084
 C    1.3319075318    0.7299381424    2.1514378105
 C    0.9374897583   -0.4016456699    1.2468764869
 H   -0.1555710364    2.0799801028    0.3143695627
 H   -1.0372324630    1.4350999849   -1.0847910208
 H   -1.6331466254    1.1162449366    0.5541023343
 H   -0.5111828706   -0.8953601136   -0.3436581638
 H    3.3430791398   -1.8036053990   -0.9782558125
 H    3.1948504902   -2.3318559325    0.7089533082
 H    1.8379690800   -2.5496024915   -0.4168229381
 H    4.1338360218    0.0167373608    1.0094648611
 H    3.4442620003    1.1743601322   -0.1286647810
 H    3.0156212445    2.0426778716    2.3782538107
 H    0.6905214727    1.0976614124    2.9452233686
 H    0.6173818968   -1.3038033777    1.7757638941