20

 C   -0.0451149130    1.4009468909   -0.0667783374
 O    0.0188429361   -0.0007614003    0.0285899832
 C    0.5930673761   -0.6009048513   -1.1075511025
 C    0.6114848747   -2.0865271912   -0.9599777376
 C    0.0984312019   -2.8033550492    0.0445313401
 C    0.2337480783   -4.2629324047   -0.2258421746
 N   -0.5141170563   -4.6890471857   -1.4488017603
 C    0.9294178460   -4.3815138029   -1.5353469770
 C    1.2277071507   -2.9711041226   -2.0338755972
 H    0.9552869832    1.8509449611   -0.1716888576
 H   -0.6571796332    1.7257153012   -0.9234697400
 H   -0.5029340088    1.7706431187    0.8538349148
 H    0.0308089821   -0.3224757767   -2.0193394424
 H    1.6228971921   -0.2253387878   -1.2655164516
 H   -0.3919398344   -2.3868728011    0.9136576926
 H    0.3610280160   -4.9801233563    0.5781026013
 H   -0.6166370944   -5.7030554495   -1.4252014631
 H    1.6224301342   -5.1873380540   -1.7515462558
 H    0.7863535335   -2.7889925590   -3.0216455839
 H    2.3086241847   -2.7976282594   -2.1286035809