15

 N   -0.0789135802    1.3013978409   -0.5621594401
 C   -0.0148564351    0.1622744233   -0.0157544492
 N    1.1519455636   -0.5755395326    0.2271964161
 C    1.2855883606   -1.8459499654    0.7780945561
 O    2.3366389785   -2.4437185248    0.7277141803
 C    0.0470463472   -2.3544834099    1.4164653731
 C   -0.5739927809   -1.5102445444    2.5357615862
 C   -1.2037501108   -1.5492546176    1.1869164722
 O   -1.1774962227   -0.4273284705    0.3442796601
 H    0.8406178508    1.6427486454   -0.8307070738
 H    2.0055400949   -0.2042650324   -0.1657502703
 H   -0.0042918534   -3.4329952232    1.4895758007
 H   -1.0573445349   -2.0432162427    3.3460311305
 H   -0.0469890408   -0.6087865051    2.8277482930
 H   -2.1447244169   -2.0669509510    1.0507275153