23

 C    0.0114980907    1.5511735899    0.0625657406
 C    0.0322929465    0.0218125242    0.0007178503
 C    0.6936241123   -0.4968437728   -1.2841540920
 C    0.6040634320   -2.0257466811   -1.3827064603
 C    0.9200380302   -2.7060915739   -0.0772321250
 C    0.9901077427   -2.0690043424    1.0917203333
 C    1.3237102746   -2.7721288755    2.3800963431
 O    1.6327671619   -4.1339831838    2.1519234938
 C    0.7398726161   -0.5835901852    1.2241958405
 H    1.0290444245    1.9585510126    0.0245845147
 H   -0.5471198793    1.9749711875   -0.7787783005
 H   -0.4542765631    1.9085684236    0.9876444771
 H   -1.0073199331   -0.3372169036    0.0085938752
 H    0.2335915968   -0.0319539883   -2.1640457913
 H    1.7493077981   -0.1916070060   -1.2848649021
 H   -0.4034687605   -2.3221666730   -1.7131546148
 H    1.2812821829   -2.3936859667   -2.1643875385
 H    1.0985186979   -3.7762937766   -0.0997097069
 H    2.1684115312   -2.2471009486    2.8632258383
 H    0.4681378407   -2.6693081571    3.0724003374
 H    1.7915970080   -4.5496486777    3.0035276315
 H    1.6970076805   -0.0626593157    1.3882720395
 H    0.1468416383   -0.3856203499    2.1287507863