16

 O    0.4017218601   -0.2408834546   -0.2346314569
 C    0.1493434797    0.9347550369   -0.2227601064
 C    1.1707978186    2.0201191958    0.0926763522
 C    1.2258770720    3.0542089327   -0.9943038317
 N    1.8182246887    2.7697280091   -2.3511499593
 C    2.3317006786    3.9036199065   -1.5738182043
 C    1.3839360294    5.0708410010   -1.8842126817
 C    0.2696634129    4.2074744867   -1.2242435776
 O   -0.8381384072    4.4343123574   -0.8332688816
 H   -0.8694214660    1.3183372650   -0.4466905078
 H    0.8603759871    2.5064500153    1.0280803010
 H    2.1446223191    1.5472467924    0.2544098730
 H    2.4475405962    1.9768651557   -2.2118097744
 H    3.3596807764    3.9567615461   -1.2402548259
 H    1.5604197845    5.9773530453   -1.2988796503
 H    1.2665525698    5.3160639687   -2.9413071783