19

 C   -0.0308624460    1.5237234251    0.0615514971
 N    1.2964035353    2.1305967333   -0.0812868983
 C    2.2534846616    1.3622328303   -0.8461623450
 C    2.7821098253    0.0858007056   -0.1976376424
 N    2.2748225389   -0.2315438378    1.1189524292
 C    0.8722747965   -0.6567081129    1.1695524958
 C    0.0460111841   -0.0071659949    0.0537570989
 O    0.5513197212   -0.4407198773   -1.2117024703
 C    1.8676512325    0.0059378702   -1.4052015546
 H   -0.4874011136    1.8688889689    0.9983469905
 H   -0.7139127721    1.7955368153   -0.7590706331
 H    1.2123843072    3.0593572244   -0.4701401714
 H    2.9511608608    1.9728912946   -1.4098893672
 H    3.8321090752   -0.1542063424   -0.3293591878
 H    2.8633424350   -0.9274292800    1.5551532313
 H    0.7520950258   -1.7441631781    1.0397592968
 H    0.4495224051   -0.3928635223    2.1477080299
 H   -0.9730660661   -0.3995860938    0.1123111116
 H    2.2408358734   -0.3288596281   -2.3681804609