23

 C   -0.0176395832    1.5620895260    0.0806397961
 C   -0.0403046779    0.0381446676   -0.0676751578
 C    0.6949494562   -0.4823364011   -1.3278939050
 C    0.8761452187   -2.0081602807   -1.2661749981
 C    1.6722026448   -2.5817683456   -2.4374165168
 C    1.9789485771   -4.0703005642   -2.2719996493
 O    0.8783068076   -2.3524017144   -3.6032844377
 C   -0.1014956435   -0.0463590958   -2.5471020159
 O    0.1713759192    0.8985318212   -3.2432578682
 H    1.0089044057    1.9305515319    0.1798634443
 H   -0.4596146274    2.0589820558   -0.7876487484
 H   -0.5731786169    1.8740469425    0.9702763665
 H    0.4211013489   -0.4255534671    0.8127825712
 H   -1.0785708983   -0.3211757378   -0.0870769218
 H    1.6746281804    0.0073341449   -1.3927054912
 H    1.3807727201   -2.2674479112   -0.3285739923
 H   -0.1051856067   -2.5016095030   -1.2430412709
 H    2.6207707887   -2.0266437696   -2.5182728231
 H    1.0508240844   -4.6423358929   -2.1754625212
 H    2.5234612359   -4.4521907261   -3.1422733903
 H    2.5957171936   -4.2503245634   -1.3853067900
 H    1.4379108439   -2.4302867827   -4.3816111457
 H   -1.0332116311   -0.6342729742   -2.7107404241