24

 C    0.0385267653    1.5237472453   -0.1106216498
 C   -0.0264689121   -0.0041804529   -0.0611675355
 C    0.6534173151   -0.6996760307   -1.2518508474
 C    0.6923789912   -2.2232273451   -1.0773776995
 N    0.0024012134   -0.3370998215   -2.5079478212
 C    0.6756861674    0.1246664753   -3.6029571458
 O    1.8833509751    0.2939995839   -3.6163358086
 C   -0.2065092748    0.4553620435   -4.8078254327
 C    0.5247729892    0.2304731088   -6.1321061957
 H    1.0760810314    1.8738913880   -0.1106601867
 H   -0.4394376427    1.9114249494   -1.0151600998
 H   -0.4655160946    1.9671729986    0.7534337046
 H    0.4490591594   -0.3658564567    0.8583735965
 H   -1.0744010300   -0.3339348002   -0.0058183767
 H    1.6771710056   -0.3275504988   -1.3528769434
 H    1.1981599453   -2.6950842827   -1.9240002071
 H    1.2273569041   -2.4955555819   -0.1619903439
 H   -0.3201648318   -2.6390535857   -1.0085817271
 H   -0.9877908810   -0.5071983461   -2.5906533639
 H   -1.1409091300   -0.1173065903   -4.7704854960
 H   -0.4891124430    1.5123601700   -4.7145059449
 H    1.4824772565    0.7544207293   -6.1201910516
 H    0.7302422695   -0.8321599618   -6.2939842262
 H   -0.0711992286    0.5942168522   -6.9737714275