19

 O   -0.0885270838    1.3337333919    0.0070698951
 C    0.0230735248   -0.0653131181    0.0097641954
 C    0.6707257566   -0.6929072588   -1.2372436316
 C    0.3503501661   -2.2078459650   -1.0698983304
 C   -0.7748503926   -2.2086555942   -0.0270436845
 C   -0.4248653721   -1.8162457523    1.4475393082
 C    0.6488135179   -0.7231283472    1.2838796838
 O   -1.6354596472   -1.0033534756    1.4990696663
 C   -1.3624662015   -0.7853603262    0.0959094954
 H    0.7978291735    1.7096261057    0.0039504661
 H    0.1985699196   -0.2857188187   -2.1383880814
 H    1.7433476592   -0.4810032735   -1.3019856102
 H    0.0212670897   -2.6562611206   -2.0111234022
 H    1.2194840778   -2.7822448899   -0.7328057492
 H   -1.5085949570   -3.0114931060   -0.0825508846
 H   -0.3378658008   -2.5381397138    2.2603874997
 H    1.6656706634   -1.0966164219    1.1305119256
 H    0.6275414755   -0.0427271763    2.1375814905
 H   -2.1907887590   -0.3752705895   -0.4809574918