23

 O   -0.0630210758    1.4937197792    0.0106239167
 C    0.0398567282    0.0774160382    0.0019997387
 C   -1.3701165710   -0.4974188862    0.0123960149
 C   -1.3932304554   -2.0286197445    0.0043850470
 C   -2.8114519540   -2.6094492928    0.0148259676
 C   -2.8359237464   -4.1404278452    0.0068402833
 C   -4.2688462247   -4.7104955805    0.0175131112
 C   -4.3056530126   -6.1679324287    0.0101301772
 C   -4.3078091029   -7.3700738117    0.0036137299
 H    0.8260140527    1.8598027325    0.0039912360
 H    0.5793844138   -0.2774986814   -0.8918855059
 H    0.5963585464   -0.2870626670    0.8815156704
 H   -1.8932020133   -0.1161710962    0.8981751044
 H   -1.9100134823   -0.1067225721   -0.8590625518
 H   -0.8574400930   -2.4000719563   -0.8802168331
 H   -0.8406565665   -2.4095043380    0.8745332087
 H   -3.3486031710   -2.2399117476    0.8993923697
 H   -3.3653849703   -2.2304893982   -0.8552856282
 H   -2.3099312832   -4.5190563685   -0.8776443834
 H   -2.2931336069   -4.5284706734    0.8769792080
 H   -4.8033234997   -4.3368362708    0.9011015519
 H   -4.8201008182   -4.3274938111   -0.8516563042
 H   -4.3223843540   -8.4314465397   -0.0022160892