19

 C    0.1339629682    1.4465405179    0.2482241464
 C   -0.0350131285   -0.0500597984   -0.0298084402
 O   -1.4136620601   -0.4246741990   -0.0251182759
 C    0.6574646610   -0.4721483969   -1.2954300311
 C    0.3614379456   -0.0476392434   -2.7403325875
 C    1.3270378158   -1.1943245093   -3.1336610224
 O    2.6241971836   -0.7242390179   -2.6654827593
 C    2.1276018234   -0.9459013575   -1.3479093306
 C    1.0408606730   -1.8824200233   -1.7468419727
 H    1.1906857352    1.7125452158    0.3490709187
 H   -0.2820311397    2.0430971878   -0.5725960252
 H   -0.3890668633    1.7189569338    1.1685770515
 H    0.3967717690   -0.6176018975    0.8048050836
 H   -1.8545559324    0.0864462012   -0.7126170523
 H   -0.6698399594   -0.2829535507   -3.0196961294
 H    0.6368938629    0.9561913117   -3.0800534365
 H    1.3559494935   -1.6409423851   -4.1249079792
 H    2.8149584462   -0.9269850050   -0.5119992954
 H    0.7301587860   -2.8667285742   -1.4260881425