21

 C    0.2980692118    1.5183866338   -0.4221244681
 C    0.0289137134    0.0892459260    0.0210280551
 O    0.5073240866   -0.8937878089   -0.9344123428
 C    1.2205246203   -1.6218793120    0.0955772631
 C    0.9175533508   -3.0966000147    0.0911111316
 C    2.6952838465   -1.1358322958    0.2047846298
 C    2.2863658388   -0.2640725411    1.4339493245
 O    2.7509458163    1.0534082185    1.5794601204
 C    0.7875582154   -0.5874185802    1.1869896610
 H    1.3332259216    1.6513481254   -0.7521119498
 H   -0.3373419926    1.7683770203   -1.2776756551
 H    0.0814499101    2.2265531282    0.3839062822
 H   -1.0547575102   -0.0340237230    0.1611866270
 H    1.2654416887   -3.5496352723   -0.8442357757
 H    1.4232603066   -3.6019465448    0.9203588696
 H   -0.1584559867   -3.2754036318    0.1753416277
 H    3.4543238264   -1.8958680409    0.4067468451
 H    2.9894036076   -0.5643488356   -0.6793560816
 H    2.5899657313   -0.7692410163    2.3563327705
 H    2.5738526147    1.5324742594    0.7654469216
 H    0.1842515828   -0.8282398640    2.0628142540