24

 C   -1.7949228047    0.1783405128   -0.8482809106
 C   -1.3026497614   -0.9455460172   -1.7688349353
 C    0.1805042040   -0.8334029276   -2.1474550503
 C    0.3991502658   -0.0611359904   -3.4345122898
 O   -0.1245074794    1.2537497779   -3.2667430796
 N    1.1174575524   -0.5917296271   -1.0241070200
 C    1.1882157064   -1.8786493210   -1.7380632376
 C    0.7503933800   -3.0728917311   -0.9054539065
 C    2.4109218499   -2.2042693092   -2.5828023470
 H   -1.2082821636    0.1955738062    0.0738518027
 H   -1.6910912964    1.1499818103   -1.3346156852
 H   -2.8478096859    0.0279640480   -0.5876572133
 H   -1.4982308301   -1.9096930145   -1.2922139796
 H   -1.8901332846   -0.9455485103   -2.6949453151
 H    1.4643010792   -0.0104716954   -3.6922574371
 H   -0.1154638167   -0.5830516285   -4.2577625254
 H   -0.0805685307    1.7024625404   -4.1161658984
 H    1.8624884252    0.0333926845   -1.3255501270
 H    1.6136406482   -3.4891769981   -0.3742705370
 H    0.0105744673   -2.7919991637   -0.1559139935
 H    0.3328196035   -3.8665235039   -1.5358355704
 H    3.2177555322   -2.5638017578   -1.9336141321
 H    2.1925469178   -3.0033548151   -3.3006229104
 H    2.7978034414   -1.3490311291   -3.1394985916