22

 C   -0.0108863490    1.5032357814   -0.1496111036
 C   -0.0689068410   -0.0102350812    0.0360959068
 O    0.6933383150   -0.4315405917    1.1633357135
 C   -1.5109077191   -0.5964955545    0.1139547016
 C   -1.4221700841   -2.1259299577    0.1419535922
 C   -2.2840872165   -0.0532835678    1.3201543442
 O   -2.1053249341   -0.1355296719   -1.1274807943
 C   -3.3564845052   -0.5027561594   -1.4495405883
 N   -3.8777818178   -0.0743934896   -2.5190809953
 H    1.0281832281    1.8145495045   -0.2881506534
 H   -0.5930355235    1.8105169802   -1.0197605938
 H   -0.4068177821    2.0296608470    0.7276420935
 H    0.4035679145   -0.4859780647   -0.8314169479
 H    0.5947799406    0.2330013883    1.8524470259
 H   -0.7751508796   -2.4300409080    0.9672536604
 H   -2.4005801387   -2.5945163536    0.2807199845
 H   -0.9894938388   -2.4953755754   -0.7923793142
 H   -2.4336659665    1.0262340790    1.2414443786
 H   -3.2658469568   -0.5256266262    1.4136305315
 H   -1.7312846172   -0.2697570558    2.2387797532
 H   -3.8366953899   -1.1718105574   -0.7271110547
 H   -4.8200140685   -0.4479631457   -2.6145236404