16

 C   -0.0556835107    1.4684888616   -0.3342815163
 N    0.7461196014    2.3833766372    0.4860857634
 C    1.6415015878    2.3013679652    1.3809532743
 N    2.2299143330    1.2342588453    2.1053441807
 C    1.6730018774   -0.0159278128    1.9163556796
 N    2.2733078216   -1.0709387975    1.5427036747
 C    1.3009775998   -2.0001246590    0.8807874035
 C    0.4829925488   -1.1138152262    0.0133357684
 C    0.1507530295    0.0107759138   -0.2859581066
 H   -1.1043907684    1.6981955121   -0.1011538398
 H    0.0830849472    1.8290182570   -1.3614437243
 H    2.0809925542    3.2508100457    1.7017753751
 H    3.2394794914    1.2873827271    2.1832331453
 H    0.5887802052    0.0600317252    1.9932939266
 H    1.8756578025   -2.7365163066    0.3142373782
 H    0.6775354792   -2.5589300781    1.5932946273