13

 O   -0.0204708343    1.2836194738    0.0093789844
 C    1.1110382852    1.9861877615    0.0019998927
 C    2.3281908627    1.3843089265   -0.0131796318
 N    3.5831809601    1.9250133631   -0.0226372014
 C    4.3839548981    0.8594238172   -0.0361870916
 C    3.7008179293   -0.3970778366   -0.0361855692
 C    2.3614601998   -0.0658766499   -0.0212421628
 C    1.1083421438   -0.7202124054   -0.0124091774
 N   -0.0466489796   -0.1154452293    0.0021737315
 H    0.9245160460    3.0542113856    0.0095310356
 H    5.4605855425    0.9887941207   -0.0460848825
 H    4.1493411410   -1.3793483122   -0.0458412746
 H    1.0097522452   -1.8027864651   -0.0172177429