15

 C    0.0012130938    1.5494383795    0.0195241535
 C   -0.0008371243    0.0169912989   -0.0337470421
 C   -1.4246016284   -0.5500306078    0.0067037260
 C    0.7414980048   -0.4946384050   -1.2682546061
 O    2.0914759702   -0.0569419007   -1.1997488940
 H    1.0207979332    1.9372446799   -0.0348900499
 H   -0.5659313486    1.9684478038   -0.8212221272
 H   -0.4601438127    1.9119237886    0.9438988410
 H    0.5496530746   -0.3580898289    0.8397885535
 H   -2.0069493847   -0.2164537714   -0.8608423581
 H   -1.4244376692   -1.6454424591    0.0078949397
 H   -1.9529544829   -0.2150545590    0.9047398024
 H    0.6857064618   -1.5948877634   -1.3021654050
 H    0.2454968011   -0.1128881550   -2.1771329998
 H    2.5378802413   -0.3281258906   -2.0066055138