17

 O    0.0890129876    0.0664414802    0.3039319504
 C    0.0447451461    1.2380731481   -0.0174843514
 N   -1.1639763871    1.9443362284   -0.1162598368
 C   -1.2065397828    3.3220604642    0.1254905356
 C   -0.1218850944    4.0982420850    0.0537073115
 C    1.1760681144    3.4848983005   -0.3586231193
 C    2.4141662634    3.4455937041    0.5937156345
 C    2.4217953526    1.8983899291    0.4060486595
 N    1.1392526455    2.0024720333   -0.3084239921
 H   -1.9576523813    1.3861238588    0.1568026255
 H   -2.1886738672    3.7089835106    0.3722426292
 H   -0.1858985812    5.1637371018    0.2337675545
 H    1.4680770593    3.8287382364   -1.3630330384
 H    3.3012323992    3.9836382028    0.2563028326
 H    2.1668662252    3.7465169358    1.6137029807
 H    3.2310171458    1.5238848455   -0.2291367359
 H    2.3652954248    1.2836760455    1.3074484497