19

 O   -0.0905721955    0.1118783283   -0.7245441430
 C    0.0103011031    1.2064506586   -0.2263838737
 C    1.2942802726    1.8422835379    0.1400237958
 C    1.4100212116    3.3617430565    0.0482233352
 C    1.4289876938    2.7122472433    1.3908253928
 C    0.3074272509    2.9061311766    2.3961435845
 C    0.5845583408    4.0925269180    3.2917536577
 C    0.2521598731    4.0906364880    4.7206370659
 O    1.6002497405    3.9079993827    4.2826692454
 H   -0.8951120910    1.8255006812   -0.0256297297
 H    2.1613443023    1.2515760511   -0.1346485903
 H    2.3247364165    3.7640729338   -0.3710589672
 H    0.5104543911    3.8976972127   -0.2418986642
 H    2.4040082696    2.6265427965    1.8622271891
 H   -0.6516879258    3.0633558116    1.8895884276
 H    0.2027849471    2.0103652260    3.0190205750
 H    0.6397572709    5.0570351868    2.7833767673
 H    0.0493411320    5.0297542366    5.2333016323
 H   -0.2193799736    3.2118234036    5.1590162997