17

 N   -0.5092990493    1.0778932951   -0.3717804534
 C   -0.4432180686   -0.1806239617   -0.3315432644
 O   -0.7209492132   -0.8276146894    0.8242162274
 C   -0.7982877087   -2.2487319949    0.7559197097
 C   -2.1767270259   -2.6805085462    0.3125498246
 N   -2.4082143097   -2.7869964915   -1.1209787904
 C   -2.4780410099   -4.0176972390   -0.3069166775
 C   -1.4212908072   -5.0364694219   -0.5753708994
 O   -1.5286827687   -6.1983041630   -0.2767565767
 H   -0.2405773180    1.4086492104   -1.2962397413
 H   -0.1643934092   -0.8532140164   -1.1524361206
 H   -0.0307585175   -2.6451593902    0.0815363437
 H   -0.5912763946   -2.6064674918    1.7680458711
 H   -2.9754665112   -2.2716222654    0.9292985772
 H   -3.3412224665   -2.4753443685   -1.3750526698
 H   -3.4474776694   -4.4473295552   -0.0665901925
 H   -0.5202553123   -4.6391642605   -1.0913724979