19

 C    0.0007162277    1.6120244146   -0.0376790098
 C    0.0916331765    0.0906244077   -0.0227245471
 C    0.8417462224   -0.6918968435   -1.1129740347
 C    2.3178450892   -0.8151020391   -0.7054544833
 C    1.2709996283   -1.7717453706   -0.1602928548
 C    1.0351257234   -0.6318213448    0.9626889567
 O    0.6832970096   -0.7835859177    2.2805553004
 C    2.4700824284   -0.1314503192    0.6433889418
 O    3.4082308786   -0.7446016886    1.5199416271
 H    0.9670859525    2.0831789557   -0.2392579829
 H   -0.6959623382    1.9502938665   -0.8120898752
 H   -0.3657007885    1.9857745584    0.9243818864
 H   -0.9089970860   -0.3447486947    0.0830193153
 H    0.5542263968   -0.8147313491   -2.1492996216
 H    3.0922852047   -1.0115069113   -1.4364751522
 H    1.1604049967   -2.8454930243   -0.2022796878
 H    1.5141415718   -0.9134332501    2.7625473029
 H    2.6729486511    0.9417611425    0.7019136984
 H    3.4521962849   -1.6788631425    1.2795811305