27

 C   -0.5624908984    0.2128106239   -2.8178372814
 C   -0.3007407242   -0.5430389674   -1.5036182971
 C    0.7977053966    0.1508557740   -0.6819743206
 C   -1.5860342078   -0.7649774482   -0.6915808667
 C   -2.2425664836    0.5209925021   -0.2016162331
 C   -2.5018797775   -1.8901563846   -1.1347278787
 C   -1.7328537532   -2.0276884716    0.1634727060
 C   -0.6204590867   -3.0640336502    0.2343793392
 C   -2.5033537636   -1.9678527733    1.4746914663
 H    0.3423186583    0.2308186178   -3.4346849853
 H   -1.3573087620   -0.2651850865   -3.3992312166
 H   -0.8539931581    1.2533877879   -2.6421037833
 H    0.0821369737   -1.5277322475   -1.7899439082
 H    1.0089754654   -0.3934605721    0.2438074319
 H    1.7289745478    0.2150165728   -1.2547996701
 H    0.5109845075    1.1727038693   -0.4109934894
 H   -2.3202101810    1.2525678801   -1.0120318960
 H   -3.2570099837    0.3524545551    0.1637812206
 H   -1.6744334360    0.9885288966    0.6100907569
 H   -3.5752113254   -1.7303031573   -1.0863720254
 H   -2.1888830578   -2.5023471499   -1.9762403138
 H   -0.0996306214   -3.2064399021   -0.7140185145
 H    0.1271546072   -2.8000980151    0.9923151434
 H   -1.0393125209   -4.0366994120    0.5194743188
 H   -2.8662011761   -2.9675114634    1.7420709574
 H   -1.8626092806   -1.6244168035    2.2962309437
 H   -3.3721308586   -1.3091807249    1.4334067157