23

 C   -0.1428650978    1.6119264808   -0.0540013341
 C   -0.0307370853    0.0866232718   -0.0342849108
 C    0.7352674967   -0.4707451832    1.1840614863
 O   -0.0361392468   -0.0836194702    2.3336926896
 C    0.8625193337   -2.0176303887    1.1303083595
 C   -0.4717240723   -2.7681620233    1.1286265630
 C    2.0875956795    0.1042583993    1.2685576895
 C    3.2065402135    0.5392938029    1.3748730233
 C    4.5539766013    1.0791462025    1.4923978938
 H    0.8436251828    2.0798329087   -0.1207942662
 H   -0.7353187009    1.9432166164   -0.9123113573
 H   -0.6267046137    1.9704635561    0.8576757118
 H   -1.0332463633   -0.3523699727   -0.0162738005
 H    0.4646085464   -0.2734816006   -0.9429469640
 H    0.5290190692   -0.1845914811    3.1067632676
 H    1.4601252157   -2.2858777637    0.2513612417
 H    1.4527729150   -2.3229507837    2.0031810132
 H   -1.1067113617   -2.4215316540    1.9481077138
 H   -1.0208181934   -2.6309735739    0.1925837027
 H   -0.3030941611   -3.8420159544    1.2543188523
 H    5.1925323325    0.4337957375    2.1056187309
 H    5.0274139370    1.1742026610    0.5089449059
 H    4.5454883228    2.0734543925    1.9522994278