27

 C   -0.1307971046    1.5673341122    0.0996973696
 C    0.0017171150    0.0436702759    0.0054272003
 C    0.7513414817   -0.4671619978   -1.2367759434
 C    2.2303046762   -0.0436879082   -1.2619713784
 C    2.9663947724   -0.5955606974   -2.4911369350
 C    2.8341597142   -2.1203343571   -2.5918261067
 C    1.3640076230   -2.5686675359   -2.5836642170
 C    1.2351354068   -4.0931350117   -2.6575711740
 C    0.6412082031   -1.9981316652   -1.3520045850
 H    0.8417454345    2.0597338672    0.1957920207
 H   -0.6228129498    1.9767679744   -0.7900162349
 H   -0.7290842286    1.8546832039    0.9702163183
 H    0.5027077088   -0.3374638783    0.9063625705
 H   -1.0026881213   -0.3998543906    0.0105888628
 H    0.2642569178   -0.0307102486   -2.1237803166
 H    2.3182163190    1.0478873923   -1.2387671018
 H    2.7195507295   -0.4146864197   -0.3489042186
 H    2.5488920897   -0.1359631222   -3.3979650149
 H    4.0235154819   -0.3074744283   -2.4583711740
 H    3.3324206641   -2.4873517887   -3.4974552653
 H    3.3529060889   -2.5878570717   -1.7418156850
 H    0.8827321710   -2.1432857103   -3.4779651004
 H    1.7026007331   -4.5684781759   -1.7867379302
 H    0.1852376153   -4.4048834400   -2.6811001944
 H    1.7233930218   -4.4912248596   -3.5537855129
 H    1.0675331826   -2.4559971435   -0.4458559944
 H   -0.4161686863   -2.2922361651   -1.3737888492