19

 C    0.0789060908    1.3934193563   -0.7751897526
 O   -0.1421162168    0.0035621615   -0.8562805669
 C    0.8696735822   -0.7538593564   -0.2378247796
 C    0.4941004967   -2.2271536144   -0.3819438803
 C    0.5308644216   -2.7431916726   -1.8339311850
 C    1.9384955955   -3.3354150415   -1.9469340754
 C    2.3250907206   -3.6479151228   -0.5043138411
 O    3.2263068416   -4.3216944215   -0.1011003534
 O    1.4593585873   -3.0133011316    0.3393547949
 H    0.1202874639    1.7375621763    0.2695164903
 H    1.0174701904    1.6858848459   -1.2711771484
 H   -0.7562911718    1.8860182961   -1.2781479861
 H    1.8510595797   -0.5636677086   -0.7072704038
 H    0.9641926444   -0.5037409144    0.8305566188
 H   -0.4778808221   -2.3893221889    0.0903688834
 H   -0.2249556114   -3.5204368735   -1.9737164544
 H    0.3205437165   -1.9386065514   -2.5396334086
 H    2.0084311725   -4.2389237610   -2.5539086256
 H    2.6689482884   -2.6223490774   -2.3441877961