15

 C    0.0429717179    1.5258186616    0.1519137091
 O    1.4565250848    1.5539931597   -0.1463126176
 C    1.4367352586    0.1686696926   -0.5449266216
 C    2.4959257917   -0.6799741044    0.1192656650
 O    2.2627293794   -0.8958127165    1.5165846689
 C    0.9741058215   -0.9996586491    1.9119477425
 N   -0.0902527436   -0.6803762034    1.3053888622
 C    0.0092727046   -0.0180803250    0.0228022783
 H   -0.1840969609    1.9195387507    1.1467820190
 H   -0.5430430274    2.0588852983   -0.6075180552
 H    1.5182005098    0.0652421172   -1.6363614446
 H    2.5320843552   -1.6579509065   -0.3796226888
 H    3.4799039263   -0.2101508451    0.0447198058
 H    0.9301176727   -1.4221087528    2.9143852584
 H   -0.7430976106   -0.4222822773   -0.6567518714