14

 O    0.0260908291    1.3546250979    0.1342303260
 C   -0.0136778327   -0.0441208656    0.0381905848
 C   -1.4687450071   -0.5013799018    0.1722049648
 O   -2.3156246133    0.1228330355    0.7700753509
 N   -1.7175845098   -1.7152361378   -0.4239111523
 C   -2.9994889626   -2.3696755068   -0.2682068598
 C   -2.8848719706   -3.6774966319    0.3901260566
 N   -2.7778993216   -4.7162832171    0.8839750165
 H    0.9342820757    1.6192013235    0.3049379413
 H    0.4033909744   -0.4104699896   -0.9152010785
 H    0.5469645974   -0.5388352495    0.8483453419
 H   -0.9819460293   -2.2007400581   -0.9111675521
 H   -3.6150526951   -1.6974043438    0.3381220901
 H   -3.5032756243   -2.5064025451   -1.2326474200