20

 O   -0.0279945354    1.2321035179   -0.9315179780
 C    0.0322229590    0.2659363037    0.1039525280
 C   -1.3049525099   -0.4146249913    0.2857345272
 N   -1.6998300157   -1.2740811277   -0.8535474195
 C   -1.4756901523   -1.8759995761    0.4757953771
 C   -0.3222283706   -2.8861751230    0.5867123746
 C   -0.9912516144   -4.1031822816    1.1753341965
 C   -2.2490789484   -3.8662288241    1.5436674335
 C   -2.6655793890   -2.4427933409    1.2700879680
 H   -0.3636413172    0.7606917642   -1.7037866383
 H    0.8088553666   -0.4862339529   -0.0982382953
 H    0.3171367063    0.8033506568    1.0148454329
 H   -2.0799759093    0.2253100780    0.7069431429
 H   -2.6971575163   -1.1827455731   -1.0324550854
 H    0.1251251767   -3.0715241671   -0.3956910690
 H    0.4852329641   -2.5257075418    1.2392957361
 H   -0.4740186279   -5.0490046672    1.2915070530
 H   -2.9142844367   -4.5863520946    2.0064216749
 H   -2.8353313420   -1.8879112653    2.2036073706
 H   -3.6031030977   -2.3766912038    0.7010006800