19

 C   -0.1089641210    1.3402507919   -0.0357401261
 O    0.1394789640   -0.0464549208    0.0398225542
 C    0.6881061322   -0.5929956502   -1.1243757512
 C    0.9404359560   -2.1169594935   -0.9706882483
 C   -0.5404167332   -2.5733124844   -0.7986007743
 O   -1.2723858658   -1.7205182939   -1.6871233013
 C   -0.2936078429   -0.8440434802   -2.3014893437
 C    0.5910567697   -1.6787541049   -3.2048964581
 C    1.3283626973   -2.4505051618   -2.3944788295
 H    0.8050502790    1.9015862142   -0.2848728332
 H   -0.8795345213    1.5830583312   -0.7808966133
 H   -0.4616190309    1.6585394944    0.9479074483
 H    1.5874312955   -0.0480885231   -1.4406321834
 H    1.6129235713   -2.4294086806   -0.1732462986
 H   -0.6851025087   -3.6229958975   -1.0773782885
 H   -0.8858812281   -2.4107901691    0.2275804293
 H   -0.8243920759   -0.0005986758   -2.7395398237
 H    0.5506824637   -1.6946811610   -4.2863128305
 H    2.0208644992   -3.2337480150   -2.6763268081