18

 C    0.0067654817    1.3474945165    0.2745441669
 O   -0.0205874445    0.0185164669   -0.2283627454
 C   -1.2645122086   -0.5662424275   -0.1442787531
 C   -1.8218688176   -1.0960720829    1.1497763064
 C   -1.5965468277   -2.0453762294   -0.0055185642
 C   -2.7555791263   -1.9007742595   -0.9979593109
 C   -2.3567233400   -0.3919221381   -1.1913007347
 O   -3.2950625551    0.6197781638   -0.8896123719
 H    1.0263931567    1.7162479534    0.1418138971
 H   -0.6893376745    1.9987250156   -0.2695344566
 H   -0.2533137974    1.3749654752    1.3417084487
 H   -1.0808198222   -1.1615454659    1.9399702870
 H   -2.8283714954   -0.8516889495    1.4782603380
 H   -0.9156183374   -2.8836933099    0.0626986603
 H   -2.6489815113   -2.4902767557   -1.9113162590
 H   -3.7533867124   -2.0589540989   -0.5765267729
 H   -1.9043687421   -0.2363935992   -2.1799992390
 H   -3.9395765261    0.6581018453   -1.6035407967