21

 C   -0.0126318964    1.4972777957   -0.0099869825
 C   -0.0194040019   -0.0124880034    0.0327317272
 C   -0.8426374936   -0.7359045587    1.0781231330
 C    0.6596146329   -0.8238104341    1.1287760296
 C    1.3340515853   -1.9632692374    0.3365689047
 C    1.8379012359   -1.2040266648   -0.9035023199
 C    0.3926206543   -0.7646347052   -1.2660667440
 C   -0.2555838355   -2.1512135638   -1.3254623333
 O    0.3443921260   -2.8513066913   -0.2151366930
 H    0.9177513438    1.8823599996   -0.4446365064
 H   -0.8429689222    1.8871111818   -0.6112179720
 H   -0.1072880158    1.9197740558    0.9956426436
 H   -1.3152922057   -0.1027825341    1.8232747493
 H   -1.4017121202   -1.6323907160    0.8430321896
 H    1.2079744494   -0.3592648123    1.9427335880
 H    2.0489945034   -2.5636204783    0.8995772297
 H    2.4919218262   -0.3646900404   -0.6561291878
 H    2.3165862429   -1.8460641030   -1.6496655446
 H    0.2672108292   -0.1756259609   -2.1756225125
 H   -1.3440207148   -2.1326858343   -1.2065054372
 H   -0.0173412431   -2.6718473751   -2.2627724816