20

 C   -0.2328539031    1.4847033047   -0.1062092308
 C    0.2142392130    0.0349833857    0.1160131328
 C    0.7939866085   -0.5897912982   -1.1347374373
 C    0.9224080454   -2.0739958065   -1.3746176358
 C    0.0692710694   -3.0473031650   -0.5556369622
 C   -1.3527132776   -2.6972083346   -0.9439907767
 C   -1.3948753688   -1.7365330623   -1.8712662054
 C   -0.0342043265   -1.2502763806   -2.2344906563
 H    0.5992799499    2.1099019092   -0.4492032832
 H   -1.0202401612    1.5379024130   -0.8654295267
 H   -0.6234675524    1.9268664773    0.8158200011
 H    0.9723937060    0.0020557350    0.9100962792
 H   -0.6343171405   -0.5539684942    0.4770734399
 H    1.6356257109   -0.0244810506   -1.5332483393
 H    1.8585727513   -2.4375575893   -1.7827919643
 H    0.3082088814   -4.0902020391   -0.8028312504
 H    0.2351187237   -2.9459150185    0.5256472030
 H   -2.2153923051   -3.1681615407   -0.4855901594
 H   -2.2998399780   -1.3250109232   -2.3045857636
 H    0.1854223636   -0.9925756719   -3.2654016148