16

 O    0.3120907647    0.0556039620    0.0261573164
 C    0.1264770587    1.2380443558    0.0449683595
 C   -1.0782500561    2.1450637168    0.3404088288
 C   -0.0554122511    3.2753929734    0.6743718843
 C    1.0793117086    2.4610374902    0.0004384911
 O    2.2803975350    2.3953414322    0.7222057871
 C    3.2381632255    1.5456209825    0.1151354211
 C    4.4730205459    1.5902946465    0.9012812875
 N    5.4601322448    1.6061332789    1.4995027289
 H   -1.6692292713    2.3427363561   -0.5594585164
 H   -1.7492445409    1.8057650716    1.1317991204
 H   -0.2515895394    4.2627536440    0.2580596137
 H    0.1290623961    3.3584144434    1.7468840368
 H    1.2532073224    2.7782329203   -1.0423350176
 H    2.8762867639    0.5107319842    0.0645595802
 H    3.4634972133    1.8732799619   -0.9127571319