19

 C    0.2599087535    1.5621200008   -0.2467275378
 C   -0.0894312762    0.1007246384    0.0871658560
 C    0.5683728165   -0.4071048555    1.3197120959
 C    0.0886766313   -0.8117178288    2.5338566741
 O   -1.2337468222   -0.8244903990    2.8483860693
 C   -1.5614566810   -1.2884269154    4.1430804416
 C    1.2183065605   -1.1893498564    3.3364014876
 C    2.3046766427   -0.9826697083    2.5457673360
 O    1.9358926299   -0.5129458910    1.3315350532
 H    1.3389603721    1.6822377977   -0.3794826847
 H   -0.2340030259    1.8779960905   -1.1709459995
 H   -0.0565723682    2.2326374007    0.5579898044
 H   -1.1693064240   -0.0047441887    0.2316103546
 H    0.1773115814   -0.5375283594   -0.7661371586
 H   -2.6484422132   -1.2343794922    4.2259019906
 H   -1.2407686409   -2.3280330976    4.2938767514
 H   -1.1101741124   -0.6612507543    4.9236960543
 H    1.2222538289   -1.5603182066    4.3480632428
 H    3.3624800774   -1.1192418150    2.6985888487