19

 C   -0.7892717335    0.7137705879    0.4610102851
 C   -0.0837357081   -0.4995475329   -0.0814722822
 O    0.2635984685   -1.4352618944    0.6122802326
 C    0.2326972158   -0.5523682037   -1.5799049403
 O    1.1767138782   -1.5616070946   -1.8330450448
 C   -1.0057537243   -0.8535281335   -2.4497579999
 C   -1.9083473962   -2.0439268448   -2.0642375566
 C   -3.0399679813   -0.9965508014   -2.0733898802
 O   -2.0994660553    0.0822585320   -2.3032279542
 H   -0.0870352397    1.5568660704    0.4627135685
 H   -1.6157783422    0.9915631622   -0.1987500040
 H   -1.1279987157    0.5317163665    1.4818176788
 H    0.6318850469    0.4270001810   -1.8854951657
 H    1.2223861532   -2.0674710966   -1.0042915157
 H   -0.6538687697   -0.8874327794   -3.4881798920
 H   -1.9819200998   -2.8434662808   -2.8009422417
 H   -1.6908868106   -2.4755564449   -1.0859419718
 H   -3.7515189021   -1.0871700543   -2.9024078260
 H   -3.5960002742   -0.8594881085   -1.1393542500