19

 C   -0.1420255703    1.5743479821    0.0066716396
 C    0.0298884584    0.0474913497    0.0540840297
 C    0.8453962691   -0.4692221881   -1.1502843168
 O    0.6467938614   -0.1661869118   -2.2977445632
 C    1.9553818294   -1.3934641992   -0.6332092764
 C    1.8165644275   -1.2876479362    0.8597425545
 C    0.7915402658   -0.5166621472    1.2332479474
 C    0.3730107607   -0.2285558489    2.6394020114
 O    1.2074806040   -0.9311999410    3.5409586779
 H    0.8186268524    2.0815807911    0.1429571197
 H   -0.5455174445    1.8638571584   -0.9671139778
 H   -0.8267609741    1.9255461727    0.7841483497
 H   -0.9716826565   -0.4065879898   -0.0135005966
 H    1.8020810808   -2.4113745640   -1.0177666171
 H    2.9288437694   -1.0686763179   -1.0221768824
 H    2.4722797811   -1.7939663179    1.5556987514
 H    0.4171665328    0.8598822702    2.8181115498
 H   -0.6875313388   -0.5147818048    2.7642363619
 H    0.9535316014   -0.6887420476    4.4355584372