20

 C    0.0530443441    1.4969985710   -0.2264735324
 C    0.0520637300   -0.0133832534    0.0827601257
 C    0.7379423955   -0.2791436281    1.3553799469
 N    1.2895901292   -0.4869570778    2.3492880637
 C   -1.3633283296   -0.5968013518    0.1029819715
 O   -2.2111779973    0.0130140866    1.0376247382
 C   -1.9789934245   -1.0917461186   -1.1858095060
 C   -1.6117272625   -2.0658292827   -0.0782969292
 C   -0.5162274893   -3.0946570693   -0.2540054531
 H    1.0732593758    1.8832064642   -0.2804392893
 H   -0.4391549615    1.6774573314   -1.1866929502
 H   -0.4739747738    2.0514750562    0.5541147795
 H    0.6232747959   -0.5251450521   -0.6988767988
 H   -2.5054487837    0.8571942451    0.6785041532
 H   -3.0285981757   -0.8735900228   -1.3495572610
 H   -1.3691500247   -1.0932638422   -2.0846321013
 H   -2.4574427133   -2.4063201261    0.5120612663
 H    0.2823555622   -2.7413919265   -0.9135886570
 H   -0.0634069502   -3.3621680711    0.7059378547
 H   -0.9222830266   -4.0075312420   -0.7019214613