16

 C    0.0077904097    1.3542674638    0.1110783893
 C    0.0333392073   -0.0934939461    0.0040464921
 C    0.0364787897   -1.2974821778   -0.0854488887
 C    0.0634586292   -2.7310732872   -0.2042200137
 O   -0.9252048481   -3.3899079144   -0.4738620290
 C    1.4081752851   -3.4342138509    0.0040826938
 C    1.9770378832   -3.1671483140    1.4044364442
 O    1.2511500517   -4.8087114189   -0.2160194043
 H    1.0092018995    1.7814822537   -0.0032751444
 H   -0.6428128119    1.7918559351   -0.6532755752
 H   -0.3785112896    1.6580797226    1.0902698416
 H    2.1007305959   -3.0055070856   -0.7414052119
 H    2.1558256712   -2.1003559403    1.5635192064
 H    1.2867402981   -3.5328585758    2.1703547520
 H    2.9229822087   -3.7034229532    1.5113562477
 H    0.3125671402   -4.9273996508   -0.4368726798