15

 C   -0.0190139278    1.4902484218   -0.1364626026
 C    1.3581777177    2.0610054790    0.1060438546
 C    2.4566078289    1.3536855145    0.3719028389
 C    2.5297691791   -0.1510072193    0.4804240435
 C    1.1840456566   -0.7548989483    0.2460781938
 N    0.8754257171   -2.0215252711    0.2624101123
 O   -0.4674428432   -2.0726233808   -0.0057348280
 N   -0.9910257263   -0.8196465098   -0.1893586030
 C    0.0112476627    0.0003088339   -0.0377768233
 H   -0.7345936076    1.9061906231    0.5851553993
 H   -0.3899657425    1.8000924988   -1.1224528930
 H    1.4294308233    3.1437947827    0.0529814006
 H    3.3951187792    1.8780148264    0.5287506927
 H    3.2572323294   -0.5484690947   -0.2397202977
 H    2.9121397432   -0.4420792961    1.4677758319