17

 C    0.0148758645    1.5599678888   -0.0506682991
 C    0.0350246367    0.0619237177   -0.0645666451
 C    0.6168663102   -0.9108258797   -1.1510800834
 C   -0.4656122995   -1.8767652704   -0.7414255300
 C    0.9022911280   -1.8649672468   -0.0193696123
 C    0.6362785932   -0.8457373554    1.1023289034
 C   -0.8127653474   -1.0872168046    1.5598977378
 O   -1.3689769416   -1.1782586763    2.6149042405
 C   -1.2554050875   -0.8619304334    0.1036368289
 H    1.0303828958    1.9701049680   -0.0840990398
 H   -0.5356737936    1.9567057068   -0.9109464339
 H   -0.4686664102    1.9337408625    0.8591046437
 H    1.1151393360   -0.7511271759   -2.0976696777
 H   -0.8372262862   -2.7522380881   -1.2558822738
 H    1.5484835534   -2.7316451979    0.0034025553
 H    1.4345886634   -0.5406717708    1.7749167656
 H   -2.2650596051   -0.5723490644   -0.1782859200