19

 C   -0.0381604963    1.4779280058    0.0211394040
 C   -0.0417532634   -0.0346562338   -0.0647595923
 C    0.9277467762   -0.6008095195   -1.0998541176
 C    0.8528098457   -2.1048527953   -1.1822605145
 C   -0.1252326789   -2.8111849501   -0.6138734618
 C   -1.2382683402   -2.1657701857    0.1192002630
 C   -1.0127995489   -1.2194898411    1.2993168731
 O    0.2703699789   -0.6212681906    1.2546404603
 C   -1.4469536660   -0.6728992295   -0.0241347043
 H    0.9690250444    1.8449904826    0.2430040080
 H   -0.3650914655    1.9184506630   -0.9272792674
 H   -0.7115700460    1.8182368386    0.8125244363
 H    0.7456468113   -0.1424793848   -2.0836456764
 H    1.9426534452   -0.2952425676   -0.8112282377
 H    1.6470191837   -2.6097097426   -1.7251833251
 H   -0.1273150467   -3.8954885224   -0.6763211922
 H   -2.1585357963   -2.7359579076    0.2122368149
 H   -1.5062726750   -1.3138938973    2.2600870831
 H   -2.3648708221   -0.2024689221   -0.3514349234