15

 O    0.1095265652    0.0224605180   -0.0038844185
 C    0.0352423679    1.2073386035    0.0130885044
 C   -1.1045146105    2.2464902300    0.1309428452
 C   -2.0853422738    2.2063381772    1.3123138108
 C   -3.0618974718    1.1247608321    1.1959670226
 N   -3.8456165823    0.2824741774    1.0944870280
 C    0.0222987295    3.2799210205    0.1046989043
 C    1.0703608639    2.9962165180    1.0963131182
 N    1.0807451468    2.2059112524   -0.1729594647
 H   -1.6603862955    2.2543006588   -0.8121985581
 H   -1.5510780391    2.0952306625    2.2612524422
 H   -2.6296213839    3.1566377511    1.3647198137
 H    0.0124367435    4.1838856465   -0.4915667507
 H    1.9107361325    3.6791015932    1.1602907450
 H    0.8395383376    2.4816628788    2.0255291875