21

 C   -0.0342239603    1.5343890814    0.0307462723
 C    1.4236630603    1.9241548895    0.0623244397
 C    2.2128988663    0.9102849298   -0.2888698331
 C    1.4147366356   -0.3297761556   -0.6114197916
 C    0.0070615122   -0.0254476508   -0.0302967090
 C   -0.1856672011   -0.5890589106    1.4131415388
 C   -1.6572244030   -0.9207156683    1.4678936189
 C   -2.2029947668   -0.9436698834    0.2530729472
 C   -1.1877575113   -0.6277831254   -0.8185693618
 H   -0.6053311345    1.8980107795    0.8924946701
 H   -0.5211605566    1.9584271885   -0.8598671214
 H    1.7584590255    2.9276787221    0.3018933167
 H    3.2924381661    0.9555211132   -0.3827821630
 H    1.3725175272   -0.4836410154   -1.7004107826
 H    1.8448346944   -1.2470407701   -0.1920688907
 H    0.4141029265   -1.4972714682    1.5729956156
 H    0.1329453350    0.1255461940    2.1804836032
 H   -2.1733013064   -1.1522015919    2.3934266767
 H   -3.2334315228   -1.1980976240    0.0300574425
 H   -1.5631572865    0.0583649408   -1.5869866781
 H   -0.8940250100   -1.5467351651   -1.3483147503