20

 C   -0.0021709985    1.5954322268   -0.0752605605
 C   -0.0107343468    0.0683037711    0.0221628377
 C    0.6517107916   -0.5946618758   -1.1884174134
 C    0.6512389416   -2.0872301432   -1.1320996472
 N    0.0464547524   -2.8340610198   -0.2924760368
 C    0.3121792473   -4.1964695032   -0.6863336312
 C   -0.1974401982   -4.6037912119   -2.0562384354
 C    1.2063989528   -4.0939082317   -1.9086970284
 O    1.3964956211   -2.7031178362   -2.1047970206
 H    1.0197176695    1.9868144237   -0.1359037980
 H   -0.5408488623    1.9420995416   -0.9645204156
 H   -0.4794288560    2.0480126782    0.7990401880
 H    0.5043509922   -0.2555332044    0.9327800479
 H   -1.0368192997   -0.3018596061    0.1135897910
 H    0.1503060139   -0.2863657730   -2.1162650267
 H    1.6923337099   -0.2625143593   -1.2984156508
 H    0.4074792096   -4.9289608742    0.1058242238
 H   -0.2983220091   -5.6672821759   -2.2437231605
 H   -0.9393794993   -3.9743461387   -2.5364797826
 H    2.0831866280   -4.6817907779   -2.1464821408