19

 C   -0.1410950953    1.3893324422    0.2058530154
 O   -0.0692708627    0.0112137238   -0.0677899453
 C   -1.2924204827   -0.6559387397    0.1403684028
 C   -1.0966863849   -2.1305381456   -0.1849601980
 C   -2.3773567065   -2.9373913605    0.0130744757
 C   -2.2191385107   -4.4050965193   -0.3010863402
 O   -1.1975020267   -4.9324341079   -0.6754881004
 C   -3.4615198228   -5.2927892137   -0.1283605301
 O   -4.5301517652   -4.8802221896    0.2375724241
 H    0.8480162682    1.8129841169    0.0160416812
 H   -0.8752255974    1.8976660045   -0.4397458919
 H   -0.4161885532    1.5851417744    1.2547253673
 H   -1.6264154873   -0.5321491959    1.1863807004
 H   -2.0826914696   -0.2211263862   -0.4979313920
 H   -0.7491213480   -2.2275940501   -1.2183127961
 H   -0.2983311652   -2.5347799602    0.4453241878
 H   -2.7569358690   -2.8612208064    1.0418818167
 H   -3.2032495170   -2.5569097017   -0.6045522814
 H   -3.2649853840   -6.3569853251   -0.3783119560