22

 C    0.0059628964    1.3346834897   -0.2836084895
 C    0.0621525555   -0.1335995902    0.1511205230
 C    0.6737850656   -0.3005452008    1.5467229147
 N   -1.2701726754   -0.7363569034    0.0966706845
 C   -1.5835077933   -1.8103869564   -0.6641154458
 O   -0.7857047891   -2.3891604017   -1.3916003683
 C   -3.0405432931   -2.3066988570   -0.5935634025
 C   -4.0165400619   -1.2845425056   -1.1948041671
 O   -3.1224961313   -3.5278828003   -1.2780746330
 H    1.0081384958    1.7738830227   -0.2817480615
 H   -0.4096695164    1.4280780097   -1.2904750951
 H   -0.6158717821    1.9259392779    0.3996363529
 H    0.6531971866   -0.7025068236   -0.5707362501
 H    0.0778431241    0.2238730347    2.3034344209
 H    0.7271577453   -1.3565282593    1.8246473668
 H    1.6856667421    0.1151225388    1.5750404245
 H   -1.9886798261   -0.3446459098    0.6864471550
 H   -3.2970979004   -2.4639688454    0.4670980539
 H   -3.7418454444   -1.0654775522   -2.2309184481
 H   -5.0250437795   -1.7056709417   -1.1887458803
 H   -4.0311415320   -0.3460504710   -0.6302139782
 H   -2.2458099265   -3.6335377852   -1.6876573066