16

 C   -0.0995397147    1.5792260211    0.0202541329
 C    0.1559722308    0.0887311978    0.0279704360
 O    1.3201939969   -0.3497801230   -0.7536658658
 C    1.7705792772   -1.1801029855    0.3137872237
 C    2.2166893888   -0.3217999145    1.4334646679
 O    2.7888302060    0.9173300826    1.2181894504
 C    0.7064829627   -0.6128159697    1.2796165929
 C   -0.0718810593   -1.2348902105    2.2912286268
 N   -0.7095478089   -1.7332844057    3.1199542923
 H    0.7240323936    2.1352214752    0.4697826152
 H   -0.2572263971    1.9250826699   -1.0061561059
 H   -1.0104406046    1.7900257859    0.5900176598
 H   -0.7160387598   -0.4576309067   -0.3486247706
 H    2.0684486763   -2.1975955641    0.0869174658
 H    2.6423819197   -0.8372646183    2.2892611454
 H    2.7505437625    1.0724652655    0.2638203933