16

 C    0.0087037748    1.4559561187    0.0525733051
 N   -0.0105180795    0.0125143562    0.0129514808
 C   -0.0552323504   -0.7948032124   -1.1330431164
 C   -0.0298152327   -2.1215404564   -0.7908559272
 C    0.0376084760   -2.1717060897    0.6422367324
 C    0.0489484844   -0.8460806130    1.0699864833
 N    0.1104877313   -0.8260453661    2.4222148476
 N    0.1424000023   -2.1056358747    2.9155861154
 C    0.0978105354   -2.9059142407    1.8558350455
 H    0.9575681696    1.8370009039    0.4494977272
 H   -0.1173675853    1.8399098610   -0.9610284101
 H   -0.8097469761    1.8454615117    0.6691965341
 H   -0.1038157798   -0.3233935897   -2.1026265694
 H   -0.0597178383   -2.9453259165   -1.4865023650
 H    0.1435718712   -0.0571524839    3.0659404935
 H    0.1111867770   -3.9748108684    2.0112880632