16

 O   -0.0017499752    0.0731302937   -0.2166231345
 C    0.0099240921    1.2573255653   -0.0310094286
 C   -1.1914151478    2.2465012937    0.0582559820
 C   -0.4385752403    3.5744021858    0.2423071659
 C    0.7974911792    3.5493209170   -0.6592602726
 C    1.7755905147    3.9418485565    0.4745407792
 C    2.5991678483    2.6331468472    0.3817756027
 C    1.1366612571    2.2396884936    0.1476847815
 N    0.6485946797    3.2216129219    1.2602232170
 H   -1.8030222172    2.1972425902   -0.8476310486
 H   -1.8230825367    1.9946219536    0.9157051043
 H   -1.0261333745    4.4758241994    0.4289618164
 H    0.9015913244    3.6983594313   -1.7394033195
 H    2.1185649621    4.9355985642    0.7671019592
 H    3.2758042351    2.5306622914   -0.4685538148
 H    3.0492642791    2.2782643554    1.3112630604