16

 C   -0.0424814460    1.3323797588   -0.0344373060
 O    0.0026475046   -0.0795621909   -0.0032780473
 C    0.6381557381   -0.6169311680    1.0618631878
 C    1.2507242489    0.0078509955    2.1251478573
 N    1.7493618353   -0.9909266359    2.9425752673
 C    1.4672011727   -2.2142814615    2.4222553880
 C    0.7683182608   -2.0361316934    1.2382850347
 C    0.2823213718   -3.0448310413    0.3784121919
 C   -0.1343094114   -3.9026768570   -0.3579423269
 H    0.9682341925    1.7629741346   -0.0640278115
 H   -0.5807579114    1.6101728647   -0.9419119000
 H   -0.5723006573    1.7336891363    0.8408169897
 H    1.3753835416    1.0473884365    2.3706666154
 H    2.2490001997   -0.8309782267    3.7984920745
 H    1.7710216212   -3.1253761452    2.9102440373
 H   -0.5034362508   -4.6549993666   -1.0088368722