17

 C   -0.3143389964    1.4394397929   -0.0610616671
 C    0.0793948366   -0.0285842571   -0.1124351031
 C    1.4106216048   -0.3811299673   -0.8145678749
 O    1.9669905915   -0.8956715619    0.4206552216
 C    0.7664273980   -0.6424474501    1.1343290783
 C    0.8411825618    0.0018796775    2.5305234705
 O    0.1134271383   -1.1343470999    3.1008447638
 C    0.0918497514   -1.8033553291    1.9002468963
 O   -0.3466314234   -2.8817695574    1.6673234746
 H    0.5147114064    2.0661845690    0.2848526813
 H   -0.6045847049    1.7907440340   -1.0566543992
 H   -1.1665232187    1.6024432898    0.6066997268
 H   -0.7578695328   -0.6417600246   -0.4539802973
 H    1.3555255679   -1.1557810061   -1.5859100233
 H    1.9893149075    0.4705288753   -1.1910275681
 H    1.8538978758    0.0642430470    2.9339367140
 H    0.2939036662    0.9331050980    2.6876427358