22

 C   -0.3597501774    1.5663879803   -0.0930492739
 C   -0.0716258333    0.0782785214   -0.1611477125
 C    0.8018392977   -0.5786041731   -1.2298912015
 C    2.1038778097   -0.2167296847   -0.4336846684
 C    3.0052188638    0.9858739425   -0.4701320153
 C    2.5887500410   -1.6699191108   -0.3825591027
 C    1.0736569610   -1.7514139629   -0.2262489527
 C    0.2328924936   -2.9593566586    0.0668492965
 N    1.0591436739   -0.4921697725    0.7046084550
 H    0.4898066245    2.1891164990   -0.3757351566
 H   -1.1903478260    1.8158128606   -0.7629685190
 H   -0.6582170053    1.8427389678    0.9240788233
 H   -1.0033068321   -0.4635816316    0.0462524770
 H    0.6746861955   -0.6444017046   -2.3179542598
 H    2.4690954344    1.9360081889   -0.4871804878
 H    3.6586174529    0.9819578469    0.4090766373
 H    3.6426191428    0.9424575351   -1.3606863056
 H    3.0147945766   -2.0806265557   -1.3030174562
 H    3.1808574250   -1.9470775227    0.4959397916
 H    0.5549095925   -3.4269635175    1.0030128337
 H   -0.8284908018   -2.7096402134    0.1607793725
 H    0.3359845911   -3.6978774043   -0.7356099652