17

 N   -0.0196325314    1.4857546099   -0.0161088254
 C    0.0561276361    0.0306296656   -0.0311180734
 C    0.8220564990   -0.4615097091    1.2348712219
 N    0.2496629983    0.0243411107    2.4860592286
 C    0.8475309600   -2.0108103686    1.2335358381
 C    1.5368418856   -2.5994239729    2.3791478875
 N    2.0723318044   -3.1022361300    3.2699448453
 C    2.2071117569    0.0516520039    1.1267182590
 N    3.2673865227    0.4818628943    0.9677976949
 H    0.8615216307    1.8913395994   -0.3165127626
 H   -0.7353482020    1.8159460699   -0.6526520529
 H   -0.9618281364   -0.3704368860    0.0337681753
 H    0.5256462218   -0.3964720457   -0.9321920745
 H    0.0366277173    1.0123111974    2.3621624466
 H   -0.6337515197   -0.4488903632    2.6573176354
 H   -0.1886291811   -2.3701051639    1.2260750973
 H    1.3177200278   -2.3708304916    0.3131024590