15

 C    0.0324646690   -1.2011146469   -0.0062907267
 C    0.0344659373    0.0008895261    0.0308216597
 C    0.0485912321    1.4322226130    0.0655400809
 C    0.5293489370    2.2289026607    1.2524608844
 O    1.5250795689    1.5444502055    1.9848984989
 C    2.4169247513    1.5637876090    0.8363369327
 C    1.3551465096    2.2550044112   -0.0282264527
 C    1.5783064323    3.2467558018   -1.0162007620
 C    1.7809167774    4.0827934597   -1.8581611713
 H    0.0209335683   -2.2626278834   -0.0301455400
 H   -0.7568707172    1.9270564337   -0.4717255360
 H   -0.0580526859    2.9887991779    1.7553917506
 H    3.2807442514    2.2043345488    1.0337601291
 H    2.7308105650    0.5607590374    0.5331127934
 H    1.9571858736    4.8215120955   -2.6002076511