20

 C   -0.1974416739    1.5416073398    0.0125170820
 C    0.0985992736    0.0376873780   -0.0685827932
 C    0.7421188701   -0.5076552476    1.1839978819
 C    0.1310464515   -0.4772578995    2.6256501840
 N    1.1119014411   -1.5812493749    2.9696780420
 C    0.9245052801   -2.0230041891    1.5317091990
 C    2.3973474637   -0.8391417992    2.8486237549
 C    2.1558125642   -0.0496426894    1.5416670714
 O    2.8818457584    0.7074986207    0.9542844298
 H    0.7243780094    2.1084959328    0.1638827960
 H   -0.6669692492    1.8946741177   -0.9100510868
 H   -0.8796075708    1.7684440929    0.8393542113
 H   -0.8278580834   -0.5146546332   -0.2702558031
 H    0.7688900938   -0.1550129021   -0.9156363493
 H    0.2204706176    0.4299573015    3.2300359763
 H   -0.8932899418   -0.8566708223    2.6625711708
 H   -0.0002881586   -2.5960978587    1.4275815892
 H    1.7636121829   -2.5759956669    1.0991120296
 H    2.5598994502   -0.1816143380    3.7074830040
 H    3.2465246512   -1.5237182526    2.7683740303