18

 O   -0.0198973879   -0.0999827248   -0.0102769291
 C    0.0015756193    1.1086608287   -0.0103416275
 C   -1.2789963598    1.9341244203    0.0025891642
 C   -1.5003857403    2.8080204504    1.2556042290
 C   -0.4154286281    3.8733262326    1.5081618244
 C    0.9000832853    3.3108927994    1.9973069544
 C    1.6571058700    2.4430671716    1.3269768039
 C    1.3229891387    1.8809402507   -0.0409882317
 H   -1.2616335028    2.5897804080   -0.8798582463
 H   -2.1122074676    1.2362284857   -0.1148959978
 H   -2.4682752935    3.3090131059    1.1371916233
 H   -1.5866543055    2.1640418739    2.1381618383
 H   -0.2584775382    4.4464728080    0.5815914702
 H   -0.7940192173    4.5897151608    2.2435293396
 H    1.2375537571    3.6399988776    2.9768617170
 H    2.5753423682    2.0801538490    1.7792442970
 H    2.1004680041    1.1918534611   -0.3744337343
 H    1.2466944283    2.6957096612   -0.7741240447