18

 C   -0.0877629648    1.5005904338   -0.0897456621
 C    0.0004965208   -0.0180653704    0.0516117196
 O    0.6180637210   -0.5599551910   -1.1124658197
 C    1.4926823725   -1.6437075181   -0.7658618468
 C    1.2795013149   -1.9071776988    0.7303578788
 C    0.8574755476   -0.5244007689    1.2438048012
 O    1.9556868516    0.3590615735    1.3790046744
 C   -1.3653377836   -0.5924545787    0.1849413083
 N   -2.4218439997   -1.0491497860    0.2899228763
 H    0.9203280255    1.9090805727   -0.1493930761
 H   -0.6393030848    1.7496993690   -0.9986913035
 H   -0.6053020763    1.9386612584    0.7676933927
 H    1.2505915170   -2.5094950417   -1.3894069425
 H    2.5236733649   -1.3364471882   -0.9758788567
 H    0.4713353410   -2.6262838040    0.8940582072
 H    2.1758511854   -2.2815990022    1.2316989483
 H    0.2649457579   -0.5705765272    2.1658011338
 H    2.5254402391    0.0213110879    2.0767347867