16

 O    0.4857464104    0.5046569285   -0.8588933204
 C   -0.2213638599    0.2833651077    0.3471423028
 C   -1.4666393210   -0.5146752042    0.0770749240
 C   -1.7109741621   -2.0214855149   -0.2316116850
 C   -3.0988584306   -1.3488268642   -0.0561123021
 O   -2.5420106074   -0.6135502737    1.1186075635
 C   -2.5823785800   -0.1933195212   -0.9024286348
 N   -2.7978625896    0.6623887413   -1.7981415951
 O   -4.0793659101    0.5185301301   -2.3699523197
 H   -0.0941638977    1.0034686456   -1.4470499277
 H    0.4511876430   -0.2606616925    1.0166794402
 H   -0.5110612250    1.2197445613    0.8469426295
 H   -1.4324564872   -2.4000119027   -1.2172764924
 H   -1.4416577556   -2.6873160326    0.5902453628
 H   -4.0896009240   -1.7845454009    0.0370192515
 H   -4.0952258730    1.2366261925   -3.0119652270