16

 O    0.3000991428    1.0837773711    0.7466490261
 C    0.0589845482    0.0345465094   -0.1814979091
 C   -1.3623329395   -0.4521627547   -0.1538544375
 C   -2.1812178064   -0.4783086770    0.9714318904
 N   -3.3844335338   -0.9895712979    0.6146364464
 C   -3.3818791761   -1.3040035635   -0.7245220299
 C   -4.5609405870   -1.8607925687   -1.3461339569
 O   -5.5984813968   -2.0823056844   -0.7470497371
 C   -2.1267078809   -0.9717703795   -1.2219844532
 H   -0.3099320086    1.7983502844    0.5340737976
 H    0.3293120063    0.3281864942   -1.2078067181
 H    0.7529510055   -0.7632918324    0.1087017199
 H   -1.9721265332   -0.1620489890    1.9809485436
 H   -4.1956584956   -1.1275341691    1.1963651370
 H   -4.4558977879   -2.0784221447   -2.4293518491
 H   -1.8068381971   -1.0944535183   -2.2467538800