17

 C   -0.1032743580    1.3847332017   -0.5279379842
 C    1.1277249903    1.7204950916    0.3514689217
 N    1.3341888038    0.2718431353    0.6212009756
 C    1.3942208509   -0.1929184537    2.0105541240
 C   -0.0393272638   -0.5177417015    2.4007248515
 O   -0.9340981861    0.5846553232    2.2063422089
 C   -0.8808998508   -0.4336997680    1.1956252665
 C    0.0062797653   -0.0605890266    0.0258268078
 H   -1.0238692013    1.9143519178   -0.2823420167
 H    0.0822276016    1.4534835984   -1.6008588093
 H    1.9769987911    2.1917032606   -0.1555687979
 H    0.8729060059    2.3025426981    1.2438848985
 H    2.0129924125   -1.0969135293    2.1015897215
 H    1.8368091462    0.5773538300    2.6522010187
 H   -0.2660914089   -1.1701347975    3.2413304139
 H   -1.7904342410   -1.0147615295    1.0621837259
 H    0.0222744024   -0.8737775706   -0.7109809264