23

 C   -0.0461262799    1.6153165186    0.0596804207
 C    0.0126274530    0.0862396101    0.0625391876
 O    0.7057280722   -0.3864402376    1.2206026537
 C   -1.3695583265   -0.5625523613   -0.0555860006
 C   -2.1728641322   -0.1753667434   -1.3271497493
 C   -3.0416127982   -1.3888079414   -1.5579673379
 C   -2.6404347593   -2.4309176623   -0.8329036432
 C   -1.4021725865   -2.1280875318   -0.0164280213
 C   -0.1654725424   -2.8349337197   -0.6024228423
 H    0.9568208469    2.0274505667    0.1997691139
 H   -0.4526464676    2.0031614838   -0.8791795939
 H   -0.6830662242    1.9808515552    0.8754707562
 H    0.6375025076   -0.2432423263   -0.7760186500
 H    0.1892109512   -0.1290586232    1.9925516108
 H   -1.9598630687   -0.2180413188    0.8070277510
 H   -2.7491288197    0.7462182168   -1.1893141092
 H   -1.5133946286    0.0038675312   -2.1903442558
 H   -3.8681858969   -1.3909939000   -2.2603037240
 H   -3.0865963059   -3.4199698277   -0.8579488155
 H   -1.5127928523   -2.4701316945    1.0196171688
 H    0.0180308931   -2.5267785750   -1.6373705123
 H    0.7239922523   -2.6167534477   -0.0068299439
 H   -0.3172547574   -3.9195830117   -0.6090956835