14

 O   -0.0946895863    0.0166002978    0.0041134811
 C    0.0074909402    1.2101378279    0.0096402129
 O   -1.0970811092    2.0442111098    0.0295138734
 C   -0.6641270212    3.3845180442    0.0312161214
 C   -1.5164205523    4.3912417400   -0.7049277311
 C   -1.4957382393    4.3826492926    0.8018984494
 C    0.8052370380    3.3537336203    0.0108604951
 C    1.2056615710    2.0785333757   -0.0019442459
 H   -1.0133086690    5.1924126336   -1.2345182027
 H   -2.3925550229    3.9888173048   -1.1995141158
 H   -2.3580300217    3.9744776698    1.3157285232
 H   -0.9781516123    5.1778087574    1.3265773118
 H    1.4152676255    4.2474125138    0.0075632114
 H    2.2080435195    1.6788580724   -0.0180416341