20

 C    0.7932330803    1.2591084039    0.2085359000
 C   -0.1548435057    0.1345979321   -0.1671902333
 O    0.3988355637   -0.5576795951   -1.2461636682
 C   -0.2284902595   -1.8058289118   -1.5301786620
 C    0.4640479311   -2.9471046757   -0.7514344267
 C    1.2255509486   -2.4254399247    0.4809064837
 C    0.3586112580   -1.6692094264    1.4572963067
 N    0.3160458735   -1.9949678980    2.6808347332
 O   -0.4708813212   -0.6886732635    0.9684780730
 H    1.7586972460    0.8537344183    0.5236308397
 H    0.9533544226    1.9108298715   -0.6539901860
 H    0.3696009035    1.8447920352    1.0272021263
 H   -1.1459435871    0.5278290263   -0.4391774798
 H   -1.2959449838   -1.7525362153   -1.2841743830
 H   -0.1405549833   -1.9548545535   -2.6097003911
 H   -0.2785593942   -3.6935227119   -0.4499560795
 H    1.1832132579   -3.4598826147   -1.3980056770
 H    1.6703413364   -3.2525550587    1.0358712377
 H    2.0396922052   -1.7778786551    0.1406375317
 H   -0.3247214321   -1.3753118826    3.1819811746