22

 C    0.1442634459    1.4606650182    0.4169178403
 C   -0.1047404087    0.3816962882   -0.6332266890
 N   -1.5133185405   -0.0059486116   -0.6404787521
 C   -1.8570156058   -1.0169258845   -1.3063104034
 C   -3.2584209319   -1.5678085794   -1.4463501099
 C   -3.0193016089   -3.0217586205   -1.8848552217
 C   -4.1451556616   -3.6673106175   -2.6868728295
 C   -1.6995760416   -2.8735319273   -2.6596281442
 O   -0.9876972410   -1.8029045275   -2.0243799025
 H    1.1951150709    1.7683314560    0.4196228720
 H   -0.4748968336    2.3407840588    0.2189877050
 H   -0.1097061040    1.0929796787    1.4159425255
 H    0.1804914407    0.7555942930   -1.6273709708
 H    0.5392973553   -0.4892256376   -0.4451318750
 H   -3.8240831338   -1.4551753830   -0.5211300398
 H   -3.7892162567   -1.0125121058   -2.2312018327
 H   -2.8198183386   -3.6247634579   -0.9902398608
 H   -4.3767105331   -3.0797483076   -3.5825714089
 H   -3.8756026987   -4.6787652278   -3.0093638750
 H   -5.0600958320   -3.7431321779   -2.0914196805
 H   -1.0672203678   -3.7646937318   -2.6316681585
 H   -1.8838089945   -2.6091676752   -3.7105355385