19

 C   -0.1420867552    1.5663393399   -0.0166943013
 C    0.0342683698    0.0485648607    0.0158614152
 C    0.9372263904   -0.5195035335   -1.0784134054
 C    2.3222042233   -0.6095533040   -0.5323736608
 C    2.2869255298   -0.1071340625    0.9061922064
 C    0.8376031287   -0.5552265775    1.1998333262
 C    0.9237369352   -2.0195674882    0.7300827595
 N    1.4781696523   -1.8303039277   -0.6370795771
 H    0.8152113450    2.0952145169   -0.0088716203
 H   -0.6748214485    1.8722019597   -0.9236057456
 H   -0.7274847367    1.9130388761    0.8414708301
 H   -0.9577771395   -0.4193337517   -0.0282969635
 H    0.7163898997   -0.4071137611   -2.1337070139
 H    3.2118442809   -0.5748668997   -1.1492265644
 H    3.0168951443   -0.6094824274    1.5492273206
 H    2.4455472252    0.9712715373    0.9864906875
 H    0.4522063806   -0.3687252237    2.2014082302
 H    1.6040626525   -2.6355342750    1.3260269103
 H   -0.0475192377   -2.5203426587    0.6720738662