19

 C   -0.4370342512    1.5421380002   -0.0111757765
 C    0.0816040270    0.1158253789   -0.0760354411
 O    1.1557197174    0.0428009890   -1.0513622973
 C    2.1294530977   -0.7213591578   -0.4839215319
 C    3.2873780390   -1.0229678526   -1.3733666447
 N    1.9849723255   -1.1003779093    0.7203422205
 C    0.7250908791   -0.5074175495    1.2069801280
 C    1.0157529470    0.4513261248    2.3647360378
 H    0.3382264083    2.2354645402    0.3243890935
 H   -0.7786384283    1.8627140277   -0.9992805945
 H   -1.2843494137    1.6090934972    0.6781653218
 H   -0.7149761668   -0.5428349319   -0.4440866238
 H    3.7459503654   -0.0932130341   -1.7246919902
 H    4.0242913984   -1.6129881448   -0.8296830120
 H    2.9538000855   -1.5742268396   -2.2582091728
 H    0.0815954503   -1.3102493104    1.5839021988
 H    1.6743706970    1.2671755831    2.0520472532
 H    0.0953159347    0.8830704832    2.7701048536
 H    1.5214246377   -0.0950011944    3.1649797577