20

 C    0.0619234829    1.5997528651   -0.0313808791
 C    0.0869106870    0.0878932226   -0.1258945235
 C    1.2815590551   -0.6066824230   -0.8364290655
 C    1.2116092520   -1.7222505839    0.2426917766
 C    0.4093898448   -0.7449955846    1.1456319182
 C    0.3791272322   -2.9198315262   -0.2071921813
 N   -0.9360617567   -2.6834406993   -0.7694034791
 C   -1.5119402000   -1.5753837351   -0.9455032803
 O   -1.1746563066   -0.2805246504   -0.7067421334
 H    0.9945187862    1.9681395122    0.4046426423
 H   -0.0583856614    2.0451342060   -1.0236889051
 H   -0.7709287801    1.9321162834    0.5958404269
 H    1.1312745820   -0.8927394662   -1.8806476369
 H    2.1892473486   -0.0029323001   -0.7571754554
 H    2.1679416339   -2.0753762510    0.6388653483
 H    1.0510496218   -0.1834309023    1.8294536357
 H   -0.4444487608   -1.1426244439    1.7003003209
 H    0.9465491883   -3.4922235960   -0.9550500128
 H    0.2434042610   -3.6037459606    0.6429440742
 H   -2.5103726302   -1.5701735468   -1.3844294006