11

 C   -0.0172664219    1.4599513489   -0.0033987085
 C    0.0032867066   -0.0312427879    0.0115641857
 N   -0.0931509403   -0.7572527084   -1.0938697419
 N   -0.0309833126   -2.0242330934   -0.6138789492
 C    0.0970223545   -2.0084850254    0.7265126088
 N    0.1227411308   -0.7658985131    1.1617386645
 H    0.9040031614    1.8633814735    0.4281449742
 H   -0.1197812503    1.8243742959   -1.0267532469
 H   -0.8500452986    1.8408889048    0.5958436336
 H   -0.0816410408   -2.8045190932   -1.2473910026
 H    0.1658751811   -2.9039199415    1.3261765125