19

 C   -0.1494537394    1.4615036764    0.1626610432
 C   -0.0268377858   -0.0120911221   -0.0436653659
 C    0.1164127032   -0.7582849504   -1.1922274415
 C    0.1809716111   -2.1303877128   -0.8183432771
 C    0.0694305837   -2.1968294710    0.5532490549
 N   -0.0512865109   -0.8998566194    1.0077499185
 C    0.1027121637   -3.3489747701    1.4805718854
 C   -1.1512293245   -3.8339399786    2.1300490526
 N   -0.5022253652   -4.6296398184    1.0770912925
 H    0.6586323922    1.8617561062    0.7880454725
 H   -0.1052791279    1.9748928760   -0.8005002897
 H   -1.0980631257    1.7376807697    0.6406289890
 H    0.1707300308   -0.3573271716   -2.1932638661
 H    0.3168911743   -2.9754242271   -1.4765396942
 H   -0.1734737152   -0.6464885599    1.9735269680
 H    1.0298196610   -3.4863280271    2.0373899081
 H   -1.1122117186   -4.2711928686    3.1239025257
 H   -2.0740527232   -3.3120955801    1.8921603395
 H   -1.0027746437   -4.4875948613    0.2025264948