21

 C   -0.0087477431    1.4982190227    0.0627782641
 C   -0.0125139149   -0.0176047240   -0.0248555987
 C    0.7308836932   -0.6201486641   -1.2271766174
 C    0.8934668661   -2.0490828859   -0.6943167921
 C    1.3668091799   -1.7553266556    0.7364226563
 O    0.7264089245   -0.5312464768    1.1109551788
 O   -0.3587013590   -2.7259881688   -0.7391742590
 C   -1.3542076412   -2.1497049622    0.1032426054
 C   -1.4343811024   -0.6193229042   -0.0093621980
 H    1.0159657705    1.8794713087    0.0278849872
 H   -0.5727161057    1.9362998373   -0.7666579431
 H   -0.4654644069    1.8287586271    1.0006740535
 H    0.1651146929   -0.5879391019   -2.1598727540
 H    1.7014629279   -0.1336734213   -1.3709273771
 H    1.5922064839   -2.6720872326   -1.2562199420
 H    1.0931237932   -2.5551259365    1.4338214539
 H    2.4576850127   -1.6286926514    0.7675237102
 H   -2.2975949359   -2.6194029111   -0.1884449847
 H   -1.1618786888   -2.4182361238    1.1516001768
 H   -2.0040349128   -0.2279140063    0.8407876753
 H   -1.9583768039   -0.3232372292   -0.9255201953