14

 C   -0.0196144042    1.4866303661    0.0077703770
 C   -0.0025060671   -0.0100507875   -0.0061657749
 N    0.1282775809   -0.6270578723   -1.1911332538
 C    0.1365162638   -1.9494101442   -1.1374211957
 C    0.0161246289   -2.6266416197    0.0779908603
 C    0.0271654585   -4.1192685460    0.1225320336
 O   -0.0704847890   -4.7824095984    1.1200616604
 N   -0.1113499761   -1.9486248676    1.2251234366
 N   -0.1209702631   -0.6304084180    1.1848213804
 H    0.9060181026    1.8759001071   -0.4278188798
 H   -0.8428654671    1.8576258085   -0.6108405898
 H   -0.1301764117    1.8543766222    1.0274944253
 H    0.2407822449   -2.4906420132   -2.0768691301
 H    0.1374943287   -4.5867154269   -0.8823766796