13

 N   -0.0230355156    1.3575013841    0.1113297145
 C   -0.0266678672    0.0016912747    0.0404411313
 C   -1.2140173042   -0.7649321001    0.0270040472
 N   -1.1543770471   -2.0755568653   -0.0000636282
 C    0.0821857913   -2.6116027677   -0.0120501527
 C    0.1398172407   -4.1044678691   -0.0370440194
 O    1.1480169427   -4.7607956085   -0.0520116959
 N    1.2244989686   -1.9216419993   -0.0083177809
 N    1.1750601291   -0.6045997821    0.0139184046
 H    0.8631494919    1.8142124276   -0.0392288515
 H   -0.8548273327    1.8758323699   -0.1129742970
 H   -2.1947788034   -0.2916010000    0.0379384551
 H   -0.8741745240   -4.5577037642   -0.0401090672