17

 O    0.0175288745   -0.0585783870   -0.2857567253
 C   -0.0392256134    1.1415363986   -0.0888812424
 C   -1.3641906946    1.8691799846    0.1190005454
 C   -1.4800245768    2.6841156979    1.4167559826
 O   -0.8413615063    3.9467845311    1.3705858289
 C    0.5687245329    3.9059533840    1.3878320405
 C    1.1885744437    3.3522285231    0.1013156846
 N    1.0954936682    1.9066789357   -0.0335512315
 H   -1.5551257649    2.5421433520   -0.7266543230
 H   -2.1314668922    1.0920053149    0.1055432045
 H   -2.5353210812    2.9051096188    1.6010146755
 H   -1.1066924592    2.0942355752    2.2693071167
 H    0.8906665528    4.9449308166    1.5149609258
 H    0.9346921513    3.3207173482    2.2472926877
 H    0.7318974734    3.8672463617   -0.7555937798
 H    2.2530930207    3.6042565766    0.0975665941
 H    1.9402719110    1.3858640478   -0.2143578243