19

 C    0.0544453921    1.5358910006    0.0075067191
 C    0.0203358895    0.0257356331    0.0461034971
 C    1.0036159930   -0.8644483542   -0.8000351487
 C    0.5099104554   -1.9613434465    0.2276970320
 C    0.5192209525   -0.8107775939    1.2824809262
 C    1.2661421949   -3.2345899537    0.3973074823
 O    2.0133498365   -3.4711597132    1.3145372092
 C   -0.9847668331   -2.0018373378   -0.1499032184
 C   -1.3013862854   -0.7098919813   -0.2497205275
 H    1.0572744259    1.9152505353    0.2275554518
 H   -0.2381305751    1.9145719769   -0.9783656545
 H   -0.6330785029    1.9638227641    0.7457264981
 H    0.7644036127   -1.0250884255   -1.8533975486
 H    2.0567404048   -0.5975702179   -0.6646344683
 H    1.5265133407   -0.5439636985    1.6144581286
 H   -0.1604277571   -0.9112206191    2.1310483049
 H    1.1109592178   -3.9791844792   -0.4194508163
 H   -1.5903348096   -2.8889144496   -0.2703827456
 H   -2.2501106126   -0.2425561397   -0.4760930715