16

 C   -0.3018088886    1.5603593426    0.3880904865
 C    0.0147385748    0.2653737891   -0.3332695815
 O    0.5514709121    0.2042502410   -1.4157101461
 N   -0.3695011584   -0.8763988071    0.3648145210
 C   -0.1770326281   -2.1591708696   -0.1063293563
 N   -0.5556787622   -3.1514046555    0.5900126325
 C   -0.3532315192   -4.5000227496    0.0943633564
 C    0.2960304202   -4.6390233914   -1.2207281467
 N    0.8076511508   -4.7104629568   -2.2545289329
 H    0.0339143327    2.3948180164   -0.2258383238
 H   -1.3782716986    1.6505672330    0.5682948683
 H    0.2022679406    1.5966323850    1.3596564167
 H   -0.8155489140   -0.7932355981    1.2672550271
 H    0.3081230071   -2.1921026092   -1.0842256626
 H    0.2412267839   -5.0590034794    0.8281501997
 H   -1.3249721031   -5.0079511205    0.0495218817