16

 C    0.0363065095    1.5498259502    0.0086045642
 C    0.0314599253    0.0948618454    0.0224538128
 C    0.0209598116   -1.1090970788    0.0396367538
 C   -0.0100811835   -2.5526647159    0.0496612366
 C    0.3027240513   -3.3269304519    1.3494294305
 N   -0.7320938067   -2.9558366619    2.3100394833
 C   -1.0093846647   -4.0584841860    1.3198996986
 C   -1.3882445766   -3.3392736537    0.0476646784
 O   -2.2685285686   -3.4370874658   -0.7486987606
 H    1.0549712375    1.9469141853   -0.0646685005
 H   -0.5320491488    1.9377097520   -0.8440191670
 H   -0.4151993985    1.9564619251    0.9201662747
 H    0.5646221616   -2.9727495122   -0.7869048110
 H    1.2689306924   -3.7080464274    1.6523405194
 H   -0.5278861756   -3.4243874822    3.1932790086
 H   -1.2833829562   -5.0496599819    1.6568378381