17

 O   -0.0468357686    1.3800859242    0.0771388270
 C    0.0229217347   -0.0157167687    0.0213332499
 C    0.2633288470   -0.7054290136   -1.3496913981
 N   -0.9335589261   -1.5972093555   -1.1594214517
 C   -0.8787945704   -2.1463631044    0.2315335870
 C    0.4543054744   -2.1934497858    0.9746627359
 C    0.8621413989   -0.7034226490    1.1064639314
 C   -1.3367491114   -0.7603637566    0.0244204555
 H    0.8501210776    1.7290199732    0.1111586659
 H    0.0556298975   -0.0304568528   -2.1831193688
 H    1.2148170834   -1.2243309480   -1.5194715810
 H   -1.5915850256   -2.9529731449    0.3664327860
 H    0.3302098443   -2.6705430196    1.9508925810
 H    1.1981892082   -2.7815575661    0.4264787014
 H    1.9370639382   -0.5412249038    0.9617015064
 H    0.5835894169   -0.3002052459    2.0862884723
 H   -2.3273019489   -0.3424427029    0.1567818701