16

 C   -0.0923118676    1.4506318967   -0.0801722106
 N    0.0398011108    0.0028057617   -0.0655247472
 C   -1.1613844282   -0.7920242882    0.1228602586
 C   -1.0703005517   -2.2022539317   -0.4480098626
 O   -2.0335778690   -2.8067611983   -0.8247061608
 O    0.1590724994   -2.7493001461   -0.5156331598
 C    1.2567898641   -2.0904292546    0.1277884020
 C    1.2721785841   -0.5701316870    0.0208234210
 O    2.3246848660    0.0400191933    0.0349282795
 H    0.8997102146    1.8745339152   -0.2312264971
 H   -0.7585324908    1.7615276105   -0.8917252349
 H   -0.4998887030    1.8214783553    0.8688130069
 H   -1.4381202637   -0.8713347658    1.1871162088
 H   -1.9997024543   -0.3084084706   -0.3830082686
 H    1.2813553578   -2.3734801017    1.1886671547
 H    2.1625686917   -2.4684612988   -0.3446843300