14

 C    0.1967853244    1.3461277964    0.0048202247
 O   -0.0196313016   -0.0749356567   -0.0011971245
 C   -1.3058815175   -0.4594169171    0.0132247144
 O   -2.2485861295    0.2818646607    0.0297989690
 C   -1.3637546454   -1.9905420820    0.0055550018
 C   -2.7130655942   -2.5192417232    0.0148731719
 C   -3.8258919809   -2.9848207005    0.0223452839
 C   -5.0864211774   -3.5096144761    0.0307774313
 N   -6.1561477868   -3.9620069303    0.0378782164
 H    1.2780414980    1.4787519115   -0.0064072090
 H   -0.2570893930    1.8047224916   -0.8766734833
 H   -0.2374650342    1.7942734515    0.9014239075
 H   -0.8159198086   -2.3479815328   -0.8750217583
 H   -0.8006695033   -2.3568329830    0.8728394843