19

 C    0.3037753313    1.5169730101   -0.3443645446
 C   -0.0319300877    0.0658036600   -0.0035327580
 O   -1.4129223382   -0.0980593517    0.2676584162
 C    0.3746742200   -0.9089801350   -1.1268201898
 C    1.7914656772   -1.3849870445   -0.7295284976
 O    2.0972235374   -0.7898020764    0.5376986786
 C    0.8561874912   -0.4886141567    1.1571472762
 C    1.0388803965    0.4046565413    2.2903883683
 C    1.1244809343    1.1443623312    3.2338925679
 H    1.3726364365    1.6303249112   -0.5465065089
 H   -0.2602310221    1.8294431058   -1.2275951042
 H    0.0528685201    2.1825448898    0.4878666043
 H   -1.6600052437    0.5531517670    0.9340000355
 H   -0.3385057065   -1.7363304708   -1.1378623726
 H    0.3518620620   -0.4313011209   -2.1085185486
 H    1.8349080677   -2.4797896503   -0.6485585311
 H    2.5674294469   -1.0664090628   -1.4309174049
 H    0.3611965705   -1.4097241264    1.5117206956
 H    1.2221986965    1.7912044990    4.0707468176