23

 C    0.0113544183    1.1669753933   -0.5697490054
 O   -0.0662008967   -0.1584143512   -0.1029800138
 C    0.5476524060   -0.3928892858    1.1591496229
 C   -0.0260821198   -1.7205814160    1.6698845100
 C    0.2918972471   -1.9847166204    3.1495227896
 C    1.6736494524   -2.6126130852    3.4048181351
 O    2.6953268215   -2.2130644661    2.5100242205
 C    2.8357983204   -0.8189911952    2.2977317985
 C    2.0795116825   -0.3635832873    1.0464207286
 H    1.0331258872    1.4651115530   -0.8468063382
 H   -0.6174179861    1.2306877400   -1.4618261370
 H   -0.3643796649    1.8842604536    0.1778068180
 H    0.2308053846    0.4031061123    1.8586920730
 H   -1.1099909726   -1.6654344083    1.5294351321
 H    0.3351708673   -2.5424855721    1.0414563272
 H    0.1925956682   -1.0460039135    3.7089743374
 H   -0.4565033473   -2.6615624016    3.5772143650
 H    1.9775598560   -2.4182043699    4.4470322148
 H    1.6150772751   -3.6992320830    3.2810581369
 H    2.5279469471   -0.2456374405    3.1857354435
 H    3.9066790146   -0.6346885059    2.1542870423
 H    2.3751829459   -1.0171945731    0.2172473048
 H    2.4099475632    0.6512161231    0.7929536643