20

 C   -0.0294454510    1.6401280609   -0.0748095441
 C    0.0417287919    0.1083226457    0.0496739125
 C    0.8223810997   -0.2908232607    1.3151221256
 C   -1.3922891465   -0.4942272553    0.0589687572
 C   -2.2469590172   -0.0368413110    1.2226506015
 O   -3.1966934139    0.6959748154    1.1162703783
 C    0.7479122220   -0.4874942778   -1.2044008562
 C    2.1203847614   -0.0176228861   -1.3815724489
 N    3.2053911995    0.3605273127   -1.5070581072
 H    0.9736177089    2.0724530266   -0.1314305764
 H   -0.5808330072    1.9399683314   -0.9721739478
 H   -0.5388264342    2.0810733253    0.7867771177
 H    0.3824232091    0.1534692680    2.2121880559
 H    0.8385135803   -1.3781610320    1.4494815656
 H    1.8581542518    0.0553467750    1.2526799630
 H   -1.9191065964   -0.2230481948   -0.8615067323
 H   -1.3177749240   -1.5896839204    0.1093825204
 H   -1.9449604657   -0.4323338453    2.2181461974
 H    0.7673026418   -1.5815723650   -1.1368506230
 H    0.1788532097   -0.2346062026   -2.1063664292