23

 C   -0.0035816243    1.5598532487    0.1565743427
 C   -0.0595310244    0.0370967855   -0.0017715614
 C    0.6784337683   -0.5444443329   -1.2266047715
 C    0.5793993213   -2.0761498846   -1.2300776631
 C    0.1439112773    0.0551019714   -2.5402947466
 C    0.7880958199   -0.4885987165   -3.8195618247
 O    2.0831206337   -0.1195394863   -1.2099800051
 C    2.9189131083   -0.5417804220   -0.2515056335
 O    4.0682309595   -0.2071446100   -0.2115156197
 H    1.0277784159    1.9231598200    0.1487092246
 H   -0.5468800851    2.0763754361   -0.6393510226
 H   -0.4577000754    1.8552871926    1.1068778014
 H    0.3463702208   -0.4345354909    0.9013818162
 H   -1.1035476407   -0.2939736646   -0.0632280769
 H   -0.4427507767   -2.3770850889   -1.4794430040
 H    1.2540324799   -2.5115363663   -1.9703052341
 H    0.8168882145   -2.5063755310   -0.2533406642
 H   -0.9404828832   -0.1084861041   -2.5644597461
 H    0.2990386934    1.1370501215   -2.5013953098
 H    1.8757290745   -0.3881540715   -3.7777230081
 H    0.5473002138   -1.5420387502   -3.9901569459
 H    0.4304800261    0.0719980057   -4.6881919963
 H    2.4568919325   -1.2174240621    0.4892617888