18

 C   -0.0962154256    1.3825276849   -1.0725336462
 C   -0.3492598758    0.3289412604   -0.0162270882
 C   -1.6652463672    0.4986079163    0.7626015645
 C   -1.4079070793    0.3931757371    2.2555215354
 O   -1.4337212785    1.3280856258    3.0198294433
 C   -1.1378151383   -1.0001846900    2.8277785036
 O   -1.4628032567   -2.0210685561    2.2757355429
 C    0.2417198119   -1.0221235707   -0.1960785841
 N    0.7782010306   -0.1134340466    0.8332532533
 H    0.8482932619    1.1983184915   -1.5949070694
 H   -0.8971623591    1.3872916081   -1.8200143974
 H   -0.0533736946    2.3823108128   -0.6257590744
 H   -2.0960792492    1.4846728999    0.5752319753
 H   -2.3896753151   -0.2657516852    0.4641634412
 H   -0.6776891109   -0.9709592591    3.8364900819
 H   -0.2716442069   -1.8953639149    0.1948131466
 H    0.8404260037   -1.1975255566   -1.0864359796
 H    1.6546609592    0.3059370824    0.5344450613