19

 C    0.1296813185    1.4597411467    0.0056739581
 C   -0.0539455569   -0.0141907366   -0.0106447865
 C   -1.1510316096   -0.8220117367   -0.0219276855
 N   -2.5240847182   -0.5089683576    0.0235305270
 C   -0.6644454297   -2.1770617846   -0.0059590385
 N   -1.5229401163   -3.2917949485   -0.0816209100
 C    0.6957747554   -2.1021000067    0.0159895637
 C    1.7755654620   -3.1221582559    0.0167455927
 O    1.0800412168   -0.7854372251    0.0129322295
 H    0.8794335202    1.7719884536   -0.7299562090
 H   -0.8100860820    1.9626168726   -0.2435130022
 H    0.4552142894    1.8365506548    0.9842377638
 H   -2.7003236824    0.4809497427   -0.0969128874
 H   -3.0368631904   -1.0184396646   -0.6896489701
 H   -2.2592774722   -3.2314868974    0.6150143761
 H   -1.0317674206   -4.1686279588    0.0425547445
 H    2.2896929354   -3.1973752979   -0.9504977060
 H    2.5348101244   -2.8922498855    0.7726988810
 H    1.3649186862   -4.1101494045    0.2477952292