20

 C    0.2000076794    1.4655603196    0.1915904098
 C   -0.0776255879   -0.0371011972    0.1197022866
 C    0.4832211140   -0.7728763036    1.3539910072
 O    1.8942425652   -0.6726227218    1.4365520956
 C   -1.5804123674   -0.3089277238   -0.0243585643
 O   -2.2233782469    0.1517978803    1.1529666351
 O    0.4701942774   -0.6797614108   -1.0557808594
 C    1.7055990524   -0.3695178239   -1.4918486683
 N    2.3264843784   -1.1933285749   -2.2260039610
 H    1.2183674638    1.6752081657    0.5245322360
 H    0.0272147601    1.9419638894   -0.7783093183
 H   -0.4921966111    1.9020168492    0.9153436660
 H    0.0717530986   -0.3186765849    2.2585486137
 H    0.1572248239   -1.8210165797    1.3211845285
 H    2.2732262405   -1.3141327532    0.8266733779
 H   -1.9475310695    0.2089194570   -0.9227329112
 H   -1.7266624266   -1.3879442591   -0.1751624609
 H   -3.1653526648   -0.0198040552    1.0710580399
 H    2.0642901836    0.6162663666   -1.1865723099
 H    3.2134396370   -0.7862700497   -2.5179932330