19

 C    0.0784193047    1.4988270639   -0.2316549485
 C   -0.1209684652    0.0178475945    0.1191912989
 C    0.7017420640   -0.4061620738    1.3020308136
 C    2.0729371935   -0.9456957448    1.2052607917
 N    0.9949135419   -1.8691867042    1.6286723498
 C    0.7778723941   -1.5434961278    3.0890203912
 C    0.3712060490   -0.0742990737    2.7600671583
 C   -0.2779338662   -2.3560083146    3.6795262982
 N   -1.1214639355   -2.9772551498    4.1672183432
 H    1.1233831181    1.7089962868   -0.4816825528
 H   -0.5377295756    1.7813588895   -1.0897733511
 H   -0.2008809207    2.1481783764    0.6050195695
 H   -1.1800627265   -0.1767816670    0.3293845460
 H    0.1465331718   -0.6129775859   -0.7360814850
 H    2.4512306722   -1.1830677051    0.2159160075
 H    2.8385342722   -0.6626621321    1.9258022580
 H    1.6873402033   -1.6612362252    3.6880653002
 H    0.9484348001    0.7190838813    3.2410527347
 H   -0.6921549451    0.1023965916    2.9275233465