20

 C    0.1323907457    1.3330295896   -0.2541167320
 N    0.0030498884   -0.0736189666    0.0958833585
 C    0.6265397808   -0.3519051857    1.3853455654
 C   -1.3840662322   -0.5705489992    0.0524133904
 C   -2.1757754721   -0.1166864663   -1.1488219029
 C   -2.4079070609   -1.0982124586   -2.0221122696
 C   -1.8308305522   -2.4152792502   -1.5854557131
 C   -1.3366521511   -2.1078851978   -0.1653174894
 O   -0.9867986309   -2.9237024402    0.6464212217
 H    1.1900839390    1.6105019840   -0.2119190611
 H   -0.2199715689    1.5101578136   -1.2731634267
 H   -0.4191166722    2.0090284784    0.4281303134
 H    0.1713460461    0.2325735096    2.2085892202
 H    0.5294063990   -1.4108506754    1.6275399827
 H    1.6899636597   -0.0981180264    1.3362006396
 H   -1.9162382486   -0.3378856309    0.9958100495
 H   -2.5309271415    0.9006869885   -1.2579648764
 H   -2.9716515526   -0.9847886372   -2.9412599356
 H   -2.5538745700   -3.2389472585   -1.5636718097
 H   -0.9942758956   -2.7540973106   -2.2108627149