18

 C    0.0018594581    1.4987477828   -0.0429070801
 C    0.0777505439    0.0075712696    0.0111940209
 C    0.3640358647   -1.0160253962   -1.0269208261
 C    0.5056912387   -2.0672971488    0.1148835596
 C   -1.0339096437   -2.0675054852    0.2098646590
 C   -1.3991381659   -1.8166216466    1.6678543727
 O   -0.2630816141   -1.1212697217    2.2142867481
 C    0.6179819822   -0.8968959419    1.1329018765
 N   -1.0517570412   -0.7895693178   -0.6037537087
 H    0.9960145164    1.9475380176    0.0569260165
 H   -0.4339347950    1.8267378459   -0.9906161373
 H   -0.6262707448    1.8816434500    0.7689758567
 H    0.7076149251   -0.9522903704   -2.0499275435
 H    1.1328991150   -2.9535546373    0.1686323355
 H   -1.5928726996   -2.8546658681   -0.2964173955
 H   -2.2998385416   -1.1944018496    1.7459962519
 H   -1.5581434265   -2.7425816857    2.2347072649
 H    1.6078970483   -0.6393166966    1.5105897489