18

 C    0.0504043318    1.5106967900   -0.0603859332
 C    0.0326110808    0.0561252344   -0.0083242406
 C    0.0158222381   -1.1464752671    0.0330788210
 C   -0.0201979167   -2.6012264708    0.0912750549
 C   -1.4489169922   -3.1780186093   -0.0152406216
 O   -2.1097427909   -2.7821322070   -1.1945044868
 C   -1.4042951176   -4.7200590350    0.1192885966
 C   -2.7308317171   -5.3274173847    0.0658115880
 N   -3.7780624820   -5.8139963611    0.0366217882
 H    0.8857458827    1.8769335330   -0.6672527575
 H   -0.8743749099    1.9011949815   -0.4988617843
 H    0.1523897992    1.9443874009    0.9404026116
 H    0.5902414605   -3.0289592385   -0.7192640997
 H    0.4354163374   -2.9536935234    1.0262625761
 H   -2.0555498272   -2.7730865680    0.8007635152
 H   -1.5436046395   -2.9784276045   -1.9497368034
 H   -0.7904307431   -5.1418567727   -0.6870281253
 H   -0.9256307940   -5.0032114875    1.0638761009