19

 C    0.3697151657    1.6307814439    0.1507119857
 C    0.1950845497    0.1218980668   -0.0248557178
 C    1.1499858991   -0.4888452631   -1.0745200252
 O    1.6169682840   -1.7297088923   -0.5371635114
 C    1.7575466693   -1.5443423238    0.8585705839
 C    2.9988834519   -0.8418708157    1.2172791243
 C    3.9889774258   -0.2272005974    1.5188282119
 C    0.5031601150   -0.7092118355    1.2700949155
 O    0.6429666020    0.0177099133    2.4633413514
 H    1.4059900291    1.8861900452    0.3978629826
 H    0.1125058912    2.1581363896   -0.7736853042
 H   -0.2701519730    2.0082609698    0.9518300434
 H   -0.8398907448   -0.0785014509   -0.3174031718
 H    0.6731250157   -0.7148609269   -2.0308482376
 H    2.0008436683    0.1831382608   -1.2606513726
 H    1.7567147789   -2.5359477924    1.3201323831
 H    4.8854608993    0.2822238325    1.7760151997
 H   -0.3147136452   -1.4108029296    1.4507556668
 H    1.5135353178    0.4365602958    2.4557994722