21

 C    0.0662290584    1.5495468623    0.0403500079
 C    0.0001815982    0.0176194119    0.0084432547
 C    0.6477678775   -0.5366360975   -1.2815292610
 C    0.7010262705   -2.0580439402   -1.3119198731
 N    2.0260021400   -2.6844142897   -1.1203409877
 C    1.0206605699   -2.7746015530   -0.0484884861
 C    1.1989146130   -1.9652787925    1.2070965837
 N    2.0987802630   -0.8003753607    1.1713647842
 C    0.6465509968   -0.5805802732    1.2488736812
 H    1.1083332474    1.8858519268    0.0616621293
 H   -0.4113334939    1.9846272339   -0.8440211239
 H   -0.4371038246    1.9541939294    0.9252409061
 H   -1.0581125596   -0.2844903884    0.0243856113
 H    0.0895793065   -0.1626105348   -2.1464587514
 H    1.6685135281   -0.1527318118   -1.3553741501
 H    0.0141255476   -2.5506346044   -1.9964650902
 H    2.0632097459   -3.5703466713   -1.6186681952
 H    0.5451673656   -3.7391892123    0.1176868684
 H    1.1686979873   -2.5400216805    2.1300660617
 H    2.5352187710   -0.6744210262    2.0797321053
 H    0.2329296312   -0.2365713679    2.1960818850