19

 C    0.0005395880    1.4592330206   -0.0081280342
 C   -0.0237131399    0.0052958035    0.0280251814
 C   -0.0489960975   -1.1956626145    0.0701839183
 C   -0.0609656065   -2.6534972637    0.0778414289
 O    0.7573792375   -3.1153815118    1.1316811952
 C    0.8172910096   -4.5372415058    1.1504106626
 C   -0.5880339453   -5.1302961370    1.2687374824
 C   -1.4624689662   -4.5236780636    0.1696331191
 O   -1.3934046154   -3.1025855764    0.2064009433
 H    0.6254448526    1.8621468694    0.7961420080
 H    0.4007093486    1.8275047097   -0.9589442656
 H   -1.0065413015    1.8724387608    0.1132917052
 H    0.3475358711   -3.0443875703   -0.8771156211
 H    1.3052562498   -4.9024418373    0.2300075916
 H    1.4509933704   -4.8062196582    1.9989924038
 H   -0.5557876233   -6.2218925213    1.1786883663
 H   -1.0076864336   -4.8772688107    2.2476920593
 H   -1.1334206082   -4.8879257010   -0.8191410277
 H   -2.5169906201   -4.7826170823    0.2919171033