21

 C    0.2076189965    1.3714739540    0.0556595481
 O    0.2684194600   -0.0331549637    0.0609547890
 C    0.5245802341   -0.5756237557   -1.2214054962
 C    0.5854369551   -2.0795078419   -1.0975652278
 C   -0.6563646311   -2.7176986157   -0.4991485750
 C    1.2714495619   -2.9514205077   -2.1431655157
 C    2.5718932894   -2.3221424162   -2.6283899120
 O    3.0171352770   -2.0870111598   -1.2655935546
 C    1.8709081305   -2.7774985916   -0.7603863739
 H    1.1545345273    1.8208378017   -0.2837036512
 H   -0.5996514822    1.7453067511   -0.5951803307
 H    0.0114712074    1.6954872393    1.0808333451
 H   -0.2787175448   -0.2857871699   -1.9222642758
 H    1.4708870924   -0.1775138806   -1.6123886185
 H   -1.5224730324   -2.5774362636   -1.1564167021
 H   -0.5208616980   -3.7946722324   -0.3551076236
 H   -0.8862004984   -2.2637288289    0.4674112295
 H    0.7749584213   -3.7998183060   -2.5960259542
 H    3.2337220147   -3.0414014009   -3.1244784156
 H    2.5237323372   -1.4011416636   -3.2211770185
 H    2.0152690322   -3.4525240980    0.0761650637