18

 C   -0.0636035063    1.5509917674    0.0033112746
 C    1.2567140163    0.8014236184   -0.0097108790
 C   -0.0420002155    0.0581348195    0.0057275051
 C   -0.4886195816   -0.9731088032    1.0304698259
 C   -1.9822225520   -1.2647932626    0.8025991348
 C   -1.9990294551   -1.2675102803   -0.7441102583
 C   -1.6561871052   -2.5038359048    0.0277841476
 N   -0.1855145852   -2.1001459266    0.0111030542
 C   -0.5107397708   -0.9767068614   -1.0054156043
 H   -0.3503944145    2.0632286419    0.9162909738
 H   -0.3701991640    2.0599908987   -0.9050314659
 H    1.8366718763    0.8053552289   -0.9269954629
 H    1.8564739323    0.8085936236    0.8947304788
 H   -0.0607610949   -1.0443747908    2.0308819913
 H   -2.8523681059   -1.0183021455    1.3964274786
 H   -2.8818831907   -1.0230705869   -1.3197506305
 H   -2.0363943910   -3.5169141504    0.0336947986
 H   -0.1047173725   -1.0515250559   -2.0146304627