24

 C   -5.3630285971   -1.0108809428   -2.0504873905
 C   -4.3971646874   -1.9464388074   -1.3187830622
 C   -2.9273057557   -1.5315759585   -1.4733365183
 C   -1.9911185939   -2.4423587524   -0.7051922809
 C   -1.3817126032   -3.6414970472   -1.3492406991
 N   -0.5495341090   -2.5078625360   -0.9602302791
 C    0.0554215068   -1.6482259154   -1.9491526527
 C    1.2908577459   -2.0979988430   -2.6702615045
 C    0.0183442385   -1.8429582353   -3.4511746819
 H   -6.4021737512   -1.3289694784   -1.9207661595
 H   -5.2796510391    0.0156982110   -1.6765735423
 H   -5.1537531502   -0.9874903761   -3.1258118337
 H   -4.6540815839   -1.9766111271   -0.2517174928
 H   -4.5223815447   -2.9718323060   -1.6891792971
 H   -2.6557410167   -1.5204943895   -2.5341437130
 H   -2.8058635470   -0.5003018462   -1.1123338543
 H   -2.2253129979   -2.5096993291    0.3580368107
 H   -1.2151859967   -4.5603999599   -0.7925630689
 H   -1.6061678534   -3.7893555177   -2.4040905023
 H    0.0549846773   -0.6154559462   -1.6113530094
 H    2.1206721904   -1.4071968681   -2.7702916273
 H    1.5844303524   -3.1339104083   -2.5363169069
 H   -0.4893314373   -2.7084427266   -3.8610706575
 H   -0.0442103468   -0.9595956638   -4.0783927066