15

 O    0.4192424060    1.2333091260   -0.4874967335
 C    0.1373568851   -0.0317610195    0.0290397645
 C    0.1237799203   -0.2917712683    1.5749782930
 C   -1.2728785415   -0.9120137651    1.4475158044
 O   -2.2966141230    0.1273903141    1.6188222344
 C   -2.4114365742    0.3440644367    0.2679194625
 O   -3.1832989436    1.0516066826   -0.2974004269
 C   -1.2972818164   -0.6362707886   -0.1074329808
 O   -1.4605755002   -1.4956144334   -1.1721013921
 H   -0.1873427214    1.8777538952   -0.1061152287
 H    0.8188898109   -0.7240520002   -0.4729500041
 H    0.9050500237   -0.9791730503    1.9040553070
 H    0.1429558351    0.6016058209    2.2026354189
 H   -1.5556333981   -1.8394969157    1.9394018000
 H   -2.4000796928   -1.6133297546   -1.3529537386