16

 C   -0.0116995174    1.5886877580    0.0311569394
 C    0.0015172401    0.0699636753   -0.0054877953
 C    0.6723131827   -0.5888414435   -1.2548567052
 O    1.0909640519    0.3108345764   -2.2441993983
 C    1.7650312662   -1.0945481100   -0.2872382669
 O    2.8096648377   -1.6605006845   -0.4073042045
 N    1.0655843139   -0.5718799215    0.8168295119
 C    1.2472003538   -0.6234317028    2.1888738493
 O    2.1576758013   -1.1780361580    2.7448050767
 H    0.9717776123    1.9926441097   -0.2166248623
 H   -0.7298814668    1.9707338665   -0.6998229825
 H   -0.3072463962    1.9512902494    1.0202595434
 H   -0.9864414327   -0.3433990087    0.2177300807
 H    0.0751667553   -1.4130363782   -1.6693034664
 H    1.8896224250   -0.0479353344   -2.6481066127
 H    0.4347249529   -0.0885219836    2.7205524129