18

 C    0.0891902992    1.5801467622   -0.0929157306
 C   -0.0343899404    0.0743541171    0.0064647990
 C   -1.3793112409   -0.5175745649   -0.4024899493
 N   -1.9036153641   -1.5949335977    0.4274140139
 C   -1.1933434355   -2.0904665257    1.3387365058
 O    0.0776787984   -1.7692871953    1.7270611153
 C    0.6576153866   -0.6252067913    1.1478947996
 C    1.2051650677   -0.7650835224   -0.2533392017
 O    1.0439224911   -1.9833225421   -0.9090266885
 H    1.0878549219    1.9226798272    0.1974114570
 H   -0.0885234931    1.9173345750   -1.1206246795
 H   -0.6375616361    2.0796624971    0.5573971315
 H   -2.1274695887    0.2833947827   -0.3984706780
 H   -1.3334695907   -0.8930706551   -1.4319420166
 H   -1.5564507144   -2.9088166023    1.9566973149
 H    1.2019204905   -0.0566334571    1.8945542595
 H    2.1310066839   -0.2408568512   -0.4887304370
 H    1.2395074344   -2.6889594964   -0.2814976752