17

 C   -0.0195270141    1.4788670743    0.0456879753
 C   -0.0516514103   -0.0177356066   -0.0307686823
 C    0.7922005716   -0.7849684333   -1.0820126386
 C    0.1235323782   -2.1525311503   -0.7978492013
 C   -0.3824723891   -1.7952151799    0.6880645390
 O    0.3785668784   -0.7025856766    1.1928981166
 C   -1.3957581591   -0.8694293765   -0.0550480109
 C   -1.3125525246   -1.8272569484   -1.2334565529
 O   -2.0865839078   -2.2650204481   -2.0342850247
 H    1.0094287378    1.8247743657    0.1915690642
 H   -0.4015090270    1.9157305386   -0.8820251363
 H   -0.6264593186    1.8403224449    0.8798246193
 H    0.6542832955   -0.4474080456   -2.1127326229
 H    1.8504557853   -0.7462097768   -0.8155778019
 H    0.6303186462   -3.0741275529   -1.0695859441
 H   -0.6265616331   -2.5863893786    1.3922205517
 H   -2.3006737195   -0.4506610400    0.3768831899