19

 O   -0.0059704772    1.3608664335   -0.5426147411
 C   -0.0140018498   -0.0084111948   -0.1896185613
 C   -1.3976014911   -0.4551623701    0.2022628793
 C   -2.4532082751    0.3535878539    0.1300246033
 C   -3.8570207899   -0.0336641829    0.5025451249
 C   -4.0445157525   -1.5148294144    0.7309282509
 O   -3.6965809999   -2.3766146019   -0.3592928565
 C   -2.8863519563   -2.4136597541    0.8184812428
 C   -1.4776688441   -1.8834892752    0.6851649708
 H    0.8742618481    1.5825368786   -0.8575552180
 H    0.3349531452   -0.6390228234   -1.0272394090
 H    0.6779557573   -0.2068141609    0.6495054832
 H   -2.3031830672    1.3698080544   -0.2181175590
 H   -4.1646441854    0.4992983080    1.4150091704
 H   -4.5567376514    0.3004896104   -0.2765367288
 H   -4.9647932423   -1.8009833050    1.2417501478
 H   -2.9824245586   -3.3360684932    1.3929574374
 H   -0.9116559574   -2.5434344366    0.0105523836
 H   -0.9821217023   -1.9750109063    1.6638327495