19

 C    0.0151537413   -1.2041165822    0.1259093921
 C    0.0330428372   -0.0097843222    0.0030912419
 C    0.0203455798    1.4392404729   -0.1551273976
 O    1.3162581404    1.9574512788    0.0692690891
 C    1.3767750042    3.3825420379    0.0377078324
 C    2.7326483629    3.8264095740    0.6291739435
 C    3.2417021424    4.9758943957   -0.2751161094
 C    2.3934018197    4.8380846993   -1.5159803337
 C    1.3864081847    3.9833256241   -1.3523119867
 H    0.0066477343   -2.2601620879    0.2368104809
 H   -0.3423192130    1.6896955935   -1.1656229899
 H   -0.6997204844    1.8821424699    0.5550625063
 H    0.5256893230    3.7741410594    0.6227152976
 H    2.6576547665    4.1076071495    1.6815726263
 H    3.4018071149    2.9641950554    0.5635071202
 H    3.0871343976    5.9581800907    0.1915639341
 H    4.3146557646    4.9062125838   -0.4872812096
 H    2.5876277036    5.4080119834   -2.4186843899
 H    0.6314120502    3.7527182341   -2.0953799877