22

 C   -0.1755180759    1.5773677476   -0.0437966725
 C    0.0321988520    0.0595820154    0.0254421314
 C    0.8438345100   -0.5386645297   -1.1299355331
 C    2.0788472727    0.1178112119   -1.6211844267
 N    2.1901042162   -0.9734345313   -0.6448586732
 C    2.2781643559   -0.4936915946    0.7574899307
 C    0.8243861204   -0.4699921131    1.2693169511
 C    0.6226782046    0.2916963639    2.5701454919
 O    0.4072254190   -1.8124289527    1.5381356882
 H    0.7615330560    2.1351033111    0.0494477751
 H   -0.6297499363    1.8572294299   -0.9994990068
 H   -0.8419550947    1.9181850172    0.7540934782
 H   -0.9515689222   -0.4180540697    0.0513487685
 H    0.3431579219   -1.2449194086   -1.7872290886
 H    2.4508508439   -0.1136905755   -2.6161345173
 H    2.3108077924    1.1248665905   -1.2831546574
 H    2.8821330483   -1.1891944776    1.3466387522
 H    2.7422661007    0.4988523133    0.8216229860
 H    0.9188817567    1.3388936473    2.4744969716
 H   -0.4274565181    0.2506232700    2.8747442179
 H    1.2179727927   -0.1682881810    3.3639232326
 H    0.6903794439   -2.3576239843    0.7948673103