18

 O    0.3695072072    0.5671479298   -1.1488244030
 C   -0.0037073453   -0.3197218106   -0.1113846474
 C    0.1755407980    0.1278299469    1.3623584701
 C   -1.2788933691   -0.3701379539    1.6330881506
 N   -2.1628668178    0.4391036779    2.4222020394
 C   -2.5987785081    0.0861314148    3.6594290364
 O   -2.2442733594   -0.9002334083    4.2713847870
 C   -1.5439645404   -0.3297309905    0.1001265361
 O   -2.1111445173    0.9102502890   -0.2683476083
 H    1.2343003278    0.9368690440   -0.9472446787
 H    0.3919965382   -1.3259496083   -0.2942041110
 H    0.9828521444   -0.3216531979    1.9431362181
 H    0.2330488498    1.2175938138    1.4336681859
 H   -1.2894120197   -1.3823852707    2.0390852091
 H   -2.5546539555    1.2454825174    1.9577917486
 H   -3.3267565010    0.8182957921    4.0617963057
 H   -2.1157916309   -1.1569675653   -0.3344565221
 H   -1.4785350507    1.3186411599   -0.8779549965