16

 O    0.4766631573    1.5639200561   -0.0543094451
 C    0.1450401432    0.1918749220    0.0401666810
 C    0.4791569457   -0.5505589097   -1.1822683663
 C    0.7632421714   -1.1530408670   -2.1823528519
 C    0.7892881015   -0.4585931244    1.2775131219
 C   -0.0239890983   -0.5164901822    2.5279802342
 N    0.2465236991   -1.7411169619    1.7670555533
 C    2.2206537327   -0.2911736511    1.3384040317
 C    3.4056487831   -0.0866482574    1.3518107590
 H    1.4376067523    1.6169848323   -0.1388368831
 H   -0.9423924654    0.1670419372    0.1833224526
 H    1.0138111887   -1.6854023738   -3.0667844116
 H    0.4772875416   -0.4584899437    3.4887300927
 H   -1.0157102757   -0.0722881693    2.4966536940
 H   -0.5579042073   -2.0036537274    1.1999892400
 H    4.4567913499    0.0639788305    1.3783639076