17

 N    0.0255499251    1.3383307429    0.3801519768
 C   -0.0506230565    0.1019358811    0.0525091900
 N   -1.2386642369   -0.5557801778   -0.0545611646
 C   -2.5069570130    0.1379329831    0.1188278828
 C   -3.6334777318   -0.8580267450    0.2066455530
 C   -4.9791037901   -0.5130761491   -0.3053342995
 N   -4.1509108471   -1.5021774164   -1.0181228979
 C    1.1134256012   -0.7303858853   -0.2186954852
 N    2.0618976199   -1.3553253737   -0.4350971599
 H    0.9934589307    1.6403659365    0.4519268348
 H   -1.2476108866   -1.4695712577   -0.4772282744
 H   -2.4402878878    0.7410279189    1.0304370911
 H   -2.6821433412    0.8429468654   -0.7080784325
 H   -3.5648260513   -1.5429029304    1.0495967493
 H   -5.8613932904   -0.9179617816    0.1807850553
 H   -5.1185392748    0.4678343839   -0.7524752647
 H   -3.7389626593   -1.0619922449   -1.8391114745