23

 C   -0.0725454242    1.5581201334    0.0053005501
 C   -0.0234388828    0.0222652485   -0.0074937231
 O   -1.3579032092   -0.4945397429    0.1034014496
 C    0.6199799905   -0.4527697663   -1.3299121521
 C    0.6112261050   -1.9725398007   -1.5752621256
 C    1.6066287074   -2.7524884036   -0.7503347256
 C    1.6545295093   -2.7593122292    0.5813755461
 C    0.7241547845   -1.9889874953    1.4872527306
 C    0.7063296388   -0.4662127759    1.2575543281
 H    0.9332561706    1.9897478099   -0.0254781663
 H   -0.6220264419    1.9371547182   -0.8649630785
 H   -0.5763877112    1.9144094097    0.9083767077
 H   -1.8641306496   -0.1643887844   -0.6467495678
 H    0.0686601993    0.0315084934   -2.1490085699
 H    1.6470912383   -0.0728930521   -1.3859321634
 H   -0.4051361796   -2.3400410372   -1.3816607879
 H    0.8062467829   -2.1510553442   -2.6374712775
 H    2.3289108293   -3.3523643586   -1.2994914598
 H    2.4152953812   -3.3655582231    1.0683191031
 H   -0.3025010655   -2.3604771443    1.3804279724
 H    1.0081153541   -2.1709039984    2.5286693582
 H    1.7327224718   -0.0824841879    1.2389353548
 H    0.2038309210    0.0021069712    2.1119855366