10

 N   -0.0329569565    1.3466308861    0.0088129322
 C    0.0608230017   -0.0128890697    0.0011830779
 O    1.1136266951   -0.6199709529   -0.0113501999
 C   -1.2276953007   -0.6928089714    0.0098693219
 C   -2.2583831185   -1.3291968558    0.0163531662
 C   -3.4212342846   -2.0319072090    0.0237382987
 C   -4.4550647332   -2.6555738083    0.0303075350
 H    0.8183681830    1.8843223013    0.0037224714
 H   -0.9207828949    1.8172667327    0.0194092012
 H   -5.3639660316   -3.2051683430    0.0360786655