19

 O    0.1313433644   -0.0983751114   -0.0585360708
 C    0.0890247849    1.0942535742    0.1115398837
 C    1.2808601049    2.0181535232    0.0051073822
 C    1.1341790711    3.0683022357   -1.1237090476
 C    2.1506489300    4.1658247051   -0.7451056684
 C    2.1056525772    4.2355380105    0.7876870407
 C    0.8290092728    4.8474923856    1.4000594534
 O    0.2867037213    3.5430271962    1.7013020733
 C    1.4975229010    2.8841551684    1.2597810789
 H   -0.8631827059    1.6112149153    0.3566440945
 H    2.1717044794    1.4019056492   -0.1594090409
 H    1.3113739025    2.6422042494   -2.1139083682
 H    0.1146649333    3.4709689296   -1.1186983447
 H    3.1545243336    3.8700610541   -1.0698105530
 H    1.9276816116    5.1276991973   -1.2177416348
 H    3.0441344102    4.5578015833    1.2390951686
 H    0.9863134559    5.4372809242    2.3114264514
 H    0.1850746900    5.4140697741    0.7153477775
 H    1.9799409220    2.3445272658    2.0811144442