18

 C    0.7738455522    1.1470772587   -0.4573640226
 C    0.0214107318   -0.1262490206   -0.0939555926
 O   -0.2406238607   -0.9075448047   -1.2646427598
 C    0.4266013343   -2.1189929556   -1.3302692512
 C    0.9014601962   -2.6355401878   -2.6572153431
 C    1.5277082593   -1.4807543867   -3.4358085708
 O    2.4118489760   -1.1464012418   -2.3296471153
 C    1.9062890950   -2.2427188678   -1.5740610100
 H    1.7244158371    0.8980300283   -0.9346681098
 H    0.1847736338    1.7495573136   -1.1556820863
 H    0.9641168884    1.7491481445    0.4377735402
 H    0.5927371173   -0.7188575829    0.6315588375
 H   -0.9478374332    0.1109394328    0.3626120117
 H    0.0349861958   -2.9038557526   -0.6776171987
 H    0.6157980020   -3.5943572275   -3.0685187512
 H    2.1146018854   -1.8045530150   -4.3011281084
 H    0.8688151734   -0.6500804473   -3.7043168836
 H    2.6083090560   -2.8045056777   -0.9668569861