14

 C   -0.0239924520    1.4979254784    0.0056195322
 C    0.0030979563   -0.0077712464    0.0039897101
 N   -0.0302507117   -0.6088567958   -1.1582653077
 C   -0.0079880944   -1.9921670735   -1.2344457163
 O   -0.0356740056   -2.6354742974   -2.2602186550
 N    0.0515077439   -2.6774303642    0.0077374836
 C    0.0858899937   -2.0571735165    1.2075043333
 C    0.0632244987   -0.6998571457    1.2564773608
 H    0.8699800023    1.8971060375    0.4982415632
 H   -0.0713474597    1.8700338735   -1.0175312422
 H   -0.8895973127    1.8655521267    0.5684215287
 H    0.0668889243   -3.6846885416   -0.0649026976
 H    0.1306751275   -2.6930055958    2.0848876039
 H    0.0894072993   -0.1700718994    2.1981721029