18

 N    0.1067315793    1.2606766455   -0.6860879273
 C   -0.0286440306    0.0466676388   -0.0568780315
 C   -1.2240174285   -0.5825019790    0.0589465769
 C   -1.4550019856   -1.9385101714    0.5474123759
 O   -2.5819471933   -2.3486035078    0.7761654581
 C   -0.2532798270   -2.8785974231    0.6772287444
 C    0.7764556595   -2.4828597247    1.7428305859
 O    1.1447613216   -1.1105677667    1.7399222499
 C    1.2839447418   -0.5104232291    0.4776725857
 H    0.8479881297    1.8712067575   -0.3785585015
 H   -0.7403625551    1.7412191598   -0.9495805266
 H   -2.1293638527   -0.0537733781   -0.2287301483
 H   -0.6401427108   -3.8722781195    0.9168969770
 H    0.2368748931   -2.9460509105   -0.3018298705
 H    0.3707204278   -2.6629873336    2.7427685853
 H    1.6727911218   -3.1123546298    1.6252113148
 H    1.7380908076   -1.1899882494   -0.2598580385
 H    1.9890791614    0.3199085809    0.6075434105