19

 C   -0.1161886927    1.5958103598    0.0472536906
 C    0.0620210088    0.0819210122    0.0285068915
 O   -1.1881131463   -0.6063948493    0.0023809596
 C    0.9919114170   -0.4268811294   -1.0933578724
 O    1.4633489199   -1.7027594952   -0.6722152945
 C    1.5993745838   -1.6759489471    0.7329048216
 C    2.8047247181   -0.8834732174    1.2855266055
 O    1.9510091818    0.2287474046    1.6509580706
 C    0.7616673901   -0.4922444054    1.2679087611
 H    0.8317267002    2.0917809099    0.2684769409
 H   -0.4821341842    1.9593185058   -0.9204729452
 H   -0.8459649443    1.8745481765    0.8121731490
 H   -1.6139346753   -0.4257675147   -0.8419419823
 H    0.4713392806   -0.5574181434   -2.0473499515
 H    1.8245276776    0.2759324303   -1.2460450890
 H    1.4443857183   -2.6846003508    1.1154203282
 H    3.2884593432   -1.3248631503    2.1653257866
 H    3.5650892024   -0.6074757823    0.5464977506
 H    0.0679355309   -0.6442648338    2.0987678592