17

 C    0.0788528497    1.5483444343   -0.0262300412
 C   -0.0820932906    0.0728026123    0.1210876923
 C   -1.3709664216   -0.7626535681    0.0398732694
 C   -0.7070281637   -1.8046868384    1.0190253791
 N   -1.3396693707   -1.7677506611    2.3314580420
 C   -0.5282398431   -3.1621282653    0.4839025504
 N   -0.4105000051   -4.2523916650    0.1162434274
 C    0.5640606643   -0.9171697865    0.9960194045
 O    0.9700667924   -0.7874844122   -0.3600489308
 H    1.1001063867    1.8465996561    0.2240871767
 H   -0.1247723890    1.8590784058   -1.0569553290
 H   -0.6158608393    2.0798748842    0.6313588062
 H   -2.2332516231   -0.2961638653    0.5196623993
 H   -1.6284188114   -1.1246317679   -0.9567059746
 H   -2.2766751984   -2.1580337176    2.2757505682
 H   -0.8230823316   -2.3536112396    2.9826855182
 H    1.3109390444   -0.8329536156    1.7776653519