14

 O   -0.1066979026    0.0427206683   -0.2033432672
 C    0.0050364899    1.2135224480   -0.0182635143
 O   -1.0697454726    2.0978816402    0.0406127576
 C   -0.4930777936    3.4257333956    0.2819527491
 C    0.7750432064    3.4869635046   -0.5608024278
 N    1.7434979934    4.0169096731    0.5276640253
 C    2.5679083453    2.7194305219    0.3887644230
 C    1.1421033957    2.1810144431    0.2076516089
 C    0.6472271334    3.2098043435    1.2694693267
 H   -1.2963595146    4.1573506940    0.3366470381
 H    0.9262238648    3.6946234125   -1.6195719194
 H    3.2295225022    2.7139576179   -0.4806423219
 H    3.1051999297    2.4444010651    1.2994279083
 H    0.6488269426    3.0930997221    2.3526814837