18

 C   -0.8456503669    0.3420675251   -0.7803187397
 C    0.0015776427    0.4553959857    0.4875421095
 N    0.3518371772   -0.8749744241    0.9808753083
 C    0.1506696702   -1.1673392197    2.1766795253
 C    0.3608785530   -2.4005317423    3.0255957707
 C   -0.2064142737   -1.5135951537    4.1686122757
 O   -0.3684747194   -0.4036902721    3.2198370821
 C   -1.4511936659   -1.9211064368    4.7859464120
 C   -2.4747110185   -2.2755609040    5.3057396873
 H   -1.8008657318   -0.1476680040   -0.5671082459
 H   -1.0544873407    1.3338282165   -1.1937595866
 H   -0.3245217305   -0.2504027500   -1.5376474635
 H    0.9386470468    0.9751832321    0.2497575486
 H   -0.5208133971    1.0577985483    1.2419406254
 H   -0.2584289676   -3.2560464440    2.7551250592
 H    1.3984639164   -2.7143737350    3.1464587872
 H    0.5318665423   -1.2352143993    4.9266491582
 H   -3.3821474365   -2.5820250127    5.7653470963