16

 N    0.0075027590    1.1568380218    0.4136454529
 C   -0.0129873559   -0.0411867093    0.0551908615
 O    0.9800891557   -0.8690824885   -0.4523623451
 C    0.0524250903   -1.9769856870   -0.5999855920
 C    0.0386408747   -2.8558784505   -1.7969600698
 C    0.4620715434   -3.3952732105   -0.4343969998
 C   -1.0443802443   -1.1372293280    0.0083062608
 C   -2.1610112516   -1.4385183343    0.9025995924
 O   -2.3646427153   -1.0276075687   -0.4582333384
 H    0.9294690179    1.5769392545    0.2881131541
 H   -0.9296516082   -3.1389222537   -2.1959122725
 H    0.8167799660   -2.7022422551   -2.5361296928
 H    1.5185012574   -3.5878073575   -0.2832004061
 H   -0.2041316045   -4.0675772121    0.0962616940
 H   -2.4078536205   -2.4764756761    1.1195063423
 H   -2.4454214741   -0.7082197549    1.6571227486