19

 C   -0.0438687108    1.5429314635   -0.0106293303
 C    0.1027981528    0.0241425941    0.0094001593
 C    0.9349731678   -0.5426583763   -1.1741459751
 N    1.4810782099   -1.7647210762   -0.6054518678
 C    2.0943738980   -2.9027998202   -1.0295142468
 N    2.4294627457   -3.6682440463   -0.0101636317
 C    2.0237867815   -2.9895945391    1.1205284421
 C    1.4330990481   -1.8032869588    0.7697704431
 C    0.7987422195   -0.5469881623    1.2833091396
 H    0.9344036875    2.0330168720    0.0494110733
 H   -0.5361519843    1.8860404697   -0.9267830896
 H   -0.6437428238    1.8889133616    0.8368397349
 H   -0.8921194822   -0.4322099341   -0.0509182838
 H    0.3281813303   -0.7459911002   -2.0606295185
 H    1.7415807400    0.1447524139   -1.4614509130
 H    2.2600177439   -3.1275871968   -2.0723592793
 H    2.1775503608   -3.4022498241    2.1058159596
 H    1.5524423850    0.1599387918    1.6573139008
 H    0.0864891607   -0.7144237122    2.0957935033