21

 C   -0.0636864264    1.5278230698    0.0287896704
 C    1.4128972739    1.8840365907   -0.0464289453
 C    2.1888234131    0.8854194879    0.3876526889
 C    1.3325372576   -0.2605108718    0.8768578807
 C    1.7050288122   -1.7352121913    0.7389009386
 C    0.4787316859   -2.5455406028    1.2156892764
 C   -0.8264287869   -2.0952771391    0.5338952331
 O   -1.0634624863   -0.6927625626    0.6264360612
 C    0.0371179646    0.0000507324    0.0865260473
 H   -0.5253241950    1.9207899688    0.9463660095
 H   -0.6527435866    1.8955775219   -0.8166380315
 H    1.7652220749    2.8498352952   -0.3906250942
 H    3.2710626519    0.9094362117    0.4547742567
 H    1.1013850294   -0.0833936343    1.9415506382
 H    1.9330918900   -1.9707128750   -0.3092952337
 H    2.5902490601   -2.0004847736    1.3277545324
 H    0.6183916955   -3.6164701923    1.0291728394
 H    0.3700941995   -2.4202160919    2.3001345544
 H   -0.8036089455   -2.3903072164   -0.5297157210
 H   -1.6894895804   -2.5819734926    0.9967667702
 H    0.2149537586   -0.3552178047   -0.9459307316