18

 O    0.0041189644   -0.0539445648    0.0943030052
 C   -0.0097636099    1.1394545986    0.0651559095
 C   -1.0887856079    2.2440253073   -0.0292808352
 C   -0.8149752826    3.0038524415    1.2930701685
 C    0.7597240659    3.0401251647    1.2676586680
 C    1.0282382745    2.2766198402   -0.0516665566
 C   -0.0491805913    2.9031404548   -0.9662880031
 C   -0.0861315978    3.0637373284   -2.4257087559
 N   -0.0184884489    4.2445125186   -1.5177888008
 H   -2.1170395997    2.0413902588   -0.3225410956
 H   -1.2496425686    4.0066907604    1.2806923355
 H   -1.2127443773    2.4729428876    2.1614519390
 H    1.1432945178    4.0609100357    1.2098708902
 H    1.2075442599    2.5476329116    2.1339256742
 H    2.0551598753    2.1116826130   -0.3682025675
 H    0.8084296559    2.9018014817   -3.0206235324
 H   -1.0196608256    2.8641413633   -2.9458208818
 H   -0.9362054441    4.6802534585   -1.4503794510