19

 C   -0.1719584591    1.5127082315   -0.0166458645
 C   -0.0249372599   -0.0043609606    0.0198846221
 C    1.1485642907   -0.5583578233   -0.8382818388
 C    1.2502246969   -2.0701459449   -0.5426658435
 C    2.4060146176   -1.9305104227    0.4402190637
 C    2.1380680622   -0.3966718342    0.3823993418
 C    0.8044903281   -0.5482073236    1.2163238838
 C    1.0097110345   -2.0651410242    0.9756670930
 O    0.4935106302   -3.1289021789    1.6814992466
 H    0.7894851011    2.0135658182    0.1429863139
 H   -0.5639948221    1.8487446238   -0.9830149391
 H   -0.8594524807    1.8628171300    0.7610993086
 H   -0.9986545196   -0.4859090817   -0.1412421802
 H    1.3540619145   -0.1946928062   -1.8459572601
 H    0.9893297125   -2.9213077455   -1.1588264047
 H    3.2943300612   -2.5304261314    0.5822088274
 H    2.8641238918    0.4009239745    0.5118786479
 H    0.6829571221   -0.1920285400    2.2395330427
 H   -0.4091755019   -3.2866343008    1.3822625296