20

 C   -0.0078146660    1.5698744487    0.0698594293
 C   -0.0093834567    0.0415742334    0.0008373502
 C    0.6711183791   -0.5816011761    1.2313865209
 N   -1.3824634050   -0.4193232813   -0.2024415818
 C   -1.6242952179   -1.7422354229   -0.5610320277
 C   -0.7667751959   -2.6690228273   -1.0877059717
 O   -1.4426093671   -3.8279417917   -1.3814208017
 C   -2.7298872356   -3.6326063032   -1.0256195832
 C   -2.9117767732   -2.3862728613   -0.5196364706
 H    1.0114092281    1.9536733005    0.1717387603
 H   -0.4586017929    2.0003459305   -0.8280304698
 H   -0.5792544674    1.9188799713    0.9391802910
 H    0.5472342218   -0.2591519859   -0.8965730409
 H    1.7237459786   -0.2854192524    1.2899692164
 H    0.1768611318   -0.2495365349    2.1520858791
 H    0.6234022880   -1.6730489310    1.1948733055
 H   -2.0161318006   -0.0836923526    0.5110565979
 H    0.2833079838   -2.6704193233   -1.3188384018
 H   -3.3969747534   -4.4628521235   -1.1912850349
 H   -3.8380066895   -1.9590389171   -0.1669205466