18

 C   -0.0821063848    1.5275048381   -0.2588402064
 C    0.0603986135   -0.0026859561   -0.2672214554
 C   -1.2764895593   -0.7014735234   -0.2643565386
 C   -1.5232399269   -1.9317356048    0.4967181591
 O   -2.0081548833   -0.6722745554    0.9656626935
 C    1.2547616543    2.2262252396   -0.2732081248
 C    1.5160398360    3.4480053718    0.4966549499
 O    2.0091803549    2.1833891324    0.9425768566
 H   -0.6629194001    1.8554769634   -1.1318012564
 H   -0.6404002230    1.8290611712    0.6337572335
 H    0.6256334138   -0.3225057548   -1.1533493822
 H    0.6343883081   -0.3124226297    0.6125097267
 H   -1.8993685495   -0.5211924273   -1.1438947545
 H   -2.2868953218   -2.6342100166    0.1651792829
 H   -0.7152575674   -2.3682690698    1.0827994893
 H    1.8611333585    2.0555345279   -1.1660923978
 H    2.2736272687    4.1540057298    0.1587402695
 H    0.7192528783    3.8781399138    1.1024714450