15

 O    0.0198894664    0.0233294923    0.3805611136
 C    0.0167932533    1.1614335264    0.0062017822
 O   -1.1535265431    1.7735701570   -0.3161900267
 C   -1.2019163973    3.1054765862   -0.8746708486
 C    0.1330222414    3.8442801221   -0.7459368145
 O    1.1273417599    2.9198016029   -1.1980044708
 C    1.2601517537    2.0552161251   -0.0732508899
 C    1.1891944577    3.0070245171    1.1189482849
 C    0.5116744376    4.0750927858    0.7119693074
 H   -1.4631472286    3.0009965829   -1.9328784262
 H   -2.0145586100    3.6273599550   -0.3583819618
 H    0.1464367678    4.7333613345   -1.3820091126
 H    2.1590061691    1.4469127645   -0.1680264769
 H    1.5586999021    2.7713865985    2.1068178837
 H    0.2062879700    4.9349382595    1.2923425862