19

 C   -0.2123327440    1.5492395578    0.1261766981
 C    0.0306126767    0.0500059241    0.0496771993
 C    1.1407641357   -0.5315654293   -0.9330219447
 C    1.9767014865    0.4088344760   -1.6565279631
 C    2.6643987615    1.2024354321   -2.2441002683
 C    1.7703182928   -1.2726781384    0.2651679492
 C    2.1846720814   -0.2799789145    1.3265673486
 C    0.7385382016   -0.6727699860    1.2038152676
 O    0.0567112308   -1.3244032333    2.2181036903
 H    0.7107922037    2.1013079295    0.3224903165
 H   -0.6275776386    1.9287539930   -0.8128844911
 H   -0.9261108596    1.7803985433    0.9249191055
 H   -0.9078220752   -0.4719589689   -0.1604390066
 H    0.6842639548   -1.2323818508   -1.6375384474
 H    3.2755308706    1.8924577703   -2.7711063864
 H    2.1732618636   -2.2765338912    0.2262566157
 H    2.6858071645   -0.7305225188    2.1775982184
 H    2.5514548244    0.7051534904    1.0511275890
 H    0.0095138388   -0.7365697152    2.9794729496