17

 C    0.0937599161    1.7146792754   -0.1172003540
 C   -0.0325799837    0.1965530847   -0.0434214443
 C    1.1253638529   -0.5767917263   -0.7700601309
 N    1.7455014103   -0.8477652273    0.5441777459
 C    0.5003055857   -0.4880787210    1.2579373913
 C    0.6869402389    0.3450312412    2.4455078464
 N    0.8171184520    1.0113439356    3.3808123085
 C   -1.4048025478   -0.2750854697   -0.4702587032
 O   -2.0318502344   -1.1503901104    0.0694548283
 H    1.1166471252    2.0267511295    0.1073690442
 H   -0.1590966843    2.0685093143   -1.1225632665
 H   -0.5733131685    2.2061398581    0.5976028557
 H    0.7747635756   -1.4668223663   -1.3083125625
 H    1.7458426239    0.0257764449   -1.4409489316
 H    2.0593479393   -1.7995825767    0.6956937804
 H   -0.1509689946   -1.3316488213    1.5182755361
 H   -1.8029183066    0.2435538552   -1.3718488638