15

 O    0.1520510739    1.4372914582    0.1876156447
 C    0.0376106900    0.0623753977   -0.0086449182
 C   -1.3193609694   -0.6572504667    0.0115568059
 C   -2.1306588104   -0.3754540888   -1.1960573226
 C   -2.1060300603    0.8841545142   -1.8912496221
 C   -2.1109393540    1.9344663422   -2.4790253230
 N   -1.0086539068   -1.3740867529   -1.3023122362
 C    0.2053709271   -0.5730535392   -1.4059694191
 N    1.0160760491   -0.5743286120   -2.3612886195
 H   -0.4179214301    1.8745296287   -0.4584803323
 H    0.7249318674   -0.4158620025    0.6971840469
 H   -1.7349199868   -1.2006837182    0.8524474507
 H   -3.0893354293   -0.8856829899   -1.2379722969
 H   -2.1220300078    2.8521477006   -3.0149966022
 H    1.7907203771    0.0647557184   -2.1686088359