14

 O    0.0599905590   -0.0091256231   -0.0139459556
 C   -0.0529747722    1.1970584458    0.0048636183
 C   -1.3330097698    1.9073306300    0.0464409453
 C   -1.2399372742    3.2486274144    0.0614632264
 C   -1.9557600394    4.5903317567    0.0991449005
 C   -0.5187983012    5.2366392619    0.0712293534
 N   -0.0192092204    3.8545973149    0.0374282730
 N    1.1758984163    3.2643691724    0.0015381136
 N    1.1723768220    1.9923004344   -0.0146174573
 H   -2.2604353917    1.3507056085    0.0638290932
 H   -2.5731654833    4.8088179627   -0.7732730764
 H   -2.5265690429    4.7828346294    1.0086540842
 H   -0.2730984217    5.8120909295   -0.8236000384
 H   -0.2259353006    5.7856930626    0.9684141598