19

 C   -0.2409192037    1.4423973955    0.0689784880
 N    0.1082919583    0.0334248088    0.0105238633
 C    1.2042127443   -0.4132535808   -0.8944914788
 C    1.8942003167   -1.1366978020    0.2712170660
 C    2.4630145133   -2.5226428447    0.2190031576
 C    2.2160183432   -0.1260571162    1.3355610216
 C    0.7723002027   -0.5714187538    1.1609879080
 C    0.0284329574   -1.1897024732    2.2147496383
 N   -0.5634322983   -1.6927092817    3.0731300890
 H    0.6095577824    2.1132858425    0.2807840025
 H   -0.6794055242    1.7414677170   -0.8879667809
 H   -0.9964889663    1.5915911192    0.8462169016
 H    0.8334359186   -1.0751298164   -1.6838377222
 H    1.7905357154    0.3962146843   -1.3486658286
 H    3.4273457602   -2.5272831881   -0.3024202765
 H    2.6274859946   -2.9205761395    1.2248069846
 H    1.7913632602   -3.2068123252   -0.3093453391
 H    2.7119996862   -0.5200009780    2.2167802741
 H    2.4904429591    0.8935481623    1.0785322213