16

 C   -0.0866589542    1.4533710543   -0.0700036159
 C   -0.0343879505   -0.0140537827    0.1816346831
 C   -1.0128135759   -0.8804896812    0.5067442237
 C   -2.3252378929   -1.2204177852   -0.1657175455
 O   -1.6718815656   -2.4048153991   -0.7300978112
 C   -0.5533758685   -2.2767826675    0.2027656535
 C    0.9115785700   -2.0998757842   -0.2713478458
 O    1.7342869558   -2.9187094035   -0.5918762809
 N    1.1454100566   -0.7343264751   -0.0808028083
 H    0.5571650852    2.0034830590    0.6274793317
 H    0.2540231848    1.6921595113   -1.0845259371
 H   -1.1061295873    1.8234661082    0.0577761487
 H   -3.1504009347   -1.5182020651    0.4927295428
 H   -2.6947177163   -0.5377559597   -0.9381130989
 H   -0.5935377389   -3.0664078337    0.9621951407
 H    2.0559761723   -0.3284131458   -0.2307959705