15

 O   -0.0133789057    1.4264102259    0.0066492947
 C    0.0049309049    0.0133480603    0.0023439384
 C   -1.3992879242   -0.5018945112    0.0123986405
 C   -2.4967883561    0.2871693701    0.0234397087
 N   -3.8042340125   -0.1839795736    0.0327253913
 N   -4.0121301628   -1.4342410645    0.0310339424
 N   -2.9481247683   -2.2684990180    0.0202056987
 C   -1.5872163618   -1.9427071463    0.0100082547
 N   -0.6090572481   -2.7709986170   -0.0002103461
 H    0.8958722335    1.7369389889    0.0011910940
 H    0.5178913379   -0.3979387231   -0.8816445358
 H    0.5324305570   -0.4031775661    0.8752304701
 H   -2.4084663246    1.3653712140    0.0256866703
 H   -3.2230853614   -3.2411819893    0.0197958345
 H   -0.9225056478   -3.7425799001   -0.0003027265