13

 N    0.0613633846    1.3920491682    0.1579268230
 C   -0.0410010281    0.0231712674    0.0533627997
 C   -1.1972590057   -0.6807741509    0.0343201348
 C   -1.1752021715   -2.1203340725   -0.0071114210
 N   -2.2150870992   -2.8494748642   -0.0207851973
 O    0.0893634011   -2.7321434533   -0.0427814793
 N    1.2717427138   -2.0219721735   -0.0267304642
 C    1.1934395175   -0.7423422690    0.0217467895
 H    0.9018441239    1.8168403549   -0.2018847142
 H   -0.7726748471    1.9249507280   -0.0360082908
 H   -2.1743672509   -0.2139656482    0.0523442153
 H   -1.9618605028   -3.8372919427   -0.0560262064
 H    2.1554550244   -0.2362954343    0.0421627509