22

 C    0.4488998439    1.3141474982    0.2563170722
 C   -0.0646803134   -0.1134170657   -0.0046250198
 C   -1.5937394719   -0.1087676313   -0.0844120877
 C    0.5872837529   -0.6981554700   -1.2886137577
 C    1.9906995070   -1.1794890711   -0.8649378653
 C    1.8648731119   -1.4163669203    0.6254893922
 C    0.4678170385   -1.0768226765    1.0884937016
 N    2.7674585678   -1.8009481272    1.4351515450
 O    3.9792363278   -2.0496234521    0.7565752023
 H    1.5396946768    1.3463723448    0.3453735406
 H    0.1590045929    1.9883321874   -0.5569419092
 H    0.0321408781    1.7138564615    1.1872206819
 H   -1.9434341380    0.5358273520   -0.8986794377
 H   -1.9844740121   -1.1163172034   -0.2640616353
 H   -2.0391258981    0.2633037200    0.8449752469
 H   -0.0074678927   -1.5507433744   -1.6371038531
 H    0.6147190396    0.0285382803   -2.1060941785
 H    2.3203639024   -2.0829731806   -1.3867360061
 H    2.7686537455   -0.4294527329   -1.0471232019
 H    0.4488800489   -0.6599099202    2.0984875780
 H   -0.1441996669   -1.9897006387    1.1010294993
 H    4.5621217492   -2.3115724500    1.4767223622