16

 C   -0.0033043292    1.5550909940    0.1414699170
 C   -0.0373033436    0.0342224918   -0.0254612124
 C    0.7000009896   -0.4732372792   -1.2903099941
 C    0.1031332826    0.0669590433   -2.5951684491
 O    2.0665921022   -0.0735249809   -1.2917380312
 C    0.6266893592   -1.9570793341   -1.2984928396
 N    0.5849097039   -3.1118900962   -1.2731891127
 H    1.0221173865    1.9294993600    0.0856272160
 H   -0.5921365520    2.0638029440   -0.6269229994
 H   -0.4186655423    1.8356971182    1.1133313145
 H    0.4294725180   -0.4455076547    0.8441699633
 H   -1.0700549599   -0.3308826505   -0.0547594517
 H    0.2181834560    1.1520914259   -2.6237810356
 H    0.6309672232   -0.3596779719   -3.4501978497
 H   -0.9570467101   -0.1859939182   -2.6694655568
 H    2.4947359858   -0.4474624215   -0.5128292885