15

 O   -0.8528785797    1.1013689452   -0.2146659981
 C    0.3028026425    0.8147029871   -0.0369610091
 C    1.4118405503    1.8244513347   -0.0585457390
 C    1.7482850695    2.4974665062    1.3335886466
 O    3.1010668633    2.8985842861    1.1336069845
 C    3.4100857660    2.4394216085   -0.2069774181
 O    2.6968569635    1.2262129429   -0.3029262262
 C    2.6542106153    3.3558142067   -1.1658530232
 C    1.3815294793    2.9747246766   -1.0527527858
 H    0.6362986136   -0.2215067076    0.1852047528
 H    1.1016511195    3.3524855763    1.5481995093
 H    1.6950100208    1.7671336588    2.1481055171
 H    4.4840846524    2.3017721117   -0.3049243249
 H    3.0727166902    4.2033552876   -1.6893420537
 H    0.4763600237    3.4116169894   -1.4475961922