15

 C   -0.0200414790    1.5448408219    0.0135384348
 C    1.4623812684    1.9874082336   -0.0062924985
 C    2.2219481313    0.7931144527    0.5926593558
 C    1.4952739389   -0.4168584143   -0.0157774310
 C    0.0009792426   -0.0141956023   -0.0003020409
 H   -0.5115711747    1.9079637444    0.9218080702
 H   -0.5793906741    1.9598986791   -0.8295293176
 H    1.7942144517    2.1468655640   -1.0396304332
 H    1.6323032747    2.9239824519    0.5327279978
 H    3.2939786064    0.8084334434    0.3742993830
 H    2.1108811551    0.7875827274    1.6848969469
 H    1.8355057348   -0.5622821554   -1.0484154844
 H    1.6876826306   -1.3516019846    0.5187912689
 H   -0.4893660064   -0.4073405887    0.8959753627
 H   -0.5388599803   -0.4282000530   -0.8564725544