19

 C   -0.0495743736    1.5156196455   -0.0817209353
 C   -0.0363977370    0.0070898919    0.0165343900
 C   -1.1402937121   -0.7282489541   -0.7091694693
 O    1.2624656298   -0.5948467545   -0.0937286448
 C    0.6387129219   -0.6365502752    1.1738356437
 C    1.1765861338   -0.0347684887    2.4860071207
 C    0.5547003769   -1.2325523402    3.2702182768
 C    0.2076132041   -1.8938623678    1.9176941402
 O   -0.2011896720   -2.9696759876    1.5877353467
 H    0.8105133568    1.9520923112    0.4301124197
 H   -0.0149035842    1.8230171226   -1.1326168141
 H   -0.9667461220    1.9249493958    0.3549029116
 H   -1.0810210461   -0.5232970976   -1.7836940224
 H   -1.0576314596   -1.8044777843   -0.5493233057
 H   -2.1221914554   -0.3931138372   -0.3585912974
 H    2.2682354717   -0.0193392418    2.5179877284
 H    0.7975278350    0.9548793244    2.7464850463
 H    1.2361971407   -1.8151883544    3.8943180156
 H   -0.3330178887   -0.9855368982    3.8594073393