15

 C    0.0152147337   -1.1750733210   -0.0202714656
 C   -0.0014766070    0.0289783928   -0.0269392317
 C   -0.0446868621    1.4469873507   -0.0116642274
 C    0.2609017164    2.3190887396   -1.2146571356
 C    1.0864300096    2.4801327081    0.0204193571
 N    0.4911636894    3.2186665667    1.1982340305
 C   -0.8696369742    3.7028100232    0.8767190898
 C   -0.6694513512    2.2665400049    1.1467731552
 H    0.0370455695   -2.2363726087   -0.0183479933
 H    0.7790022379    1.7788020128   -2.0003327354
 H   -0.4385027472    3.0584061868   -1.5870643482
 H    2.1560457435    2.3179611298    0.0408334365
 H   -1.2795348729    4.2950287778    1.6900748669
 H   -1.1138268232    4.0833528571   -0.1076147544
 H   -1.0185813521    1.7725216093    2.0471274957