21

 C   -0.0853536440    1.5782053196   -0.0558675765
 C    0.0638914786    0.0746631450    0.0556859942
 C    1.3526542552   -0.6943134484   -0.2242914905
 C    2.6244880240    0.0819272967   -0.1187014045
 C    2.8307314420    0.5272053590    1.1218227640
 C    1.7457607240    0.0594906837    2.0772862622
 O    1.1835241890    1.0812394888    2.8943167290
 C    0.7495609093   -0.6917060368    1.1711710939
 C    0.0545902202   -1.8873855286    1.7784167455
 H    0.8472676899    2.1073440160    0.1577868178
 H   -0.3872760837    1.8578122219   -1.0714079550
 H   -0.8607889636    1.9488106381    0.6247429283
 H   -0.8170653908   -0.4528093433   -0.3064413147
 H    1.3048985933   -1.5645992944   -0.8711079425
 H    3.2645330425    0.2768361824   -0.9727084530
 H    3.6490234706    1.1555595877    1.4548940488
 H    2.1642687461   -0.6476848218    2.8068886401
 H    0.8305983847    1.7601475483    2.3108279397
 H   -0.5662797948   -1.5814709414    2.6287141040
 H   -0.5942127416   -2.3899614476    1.0540326178
 H    0.7789950390   -2.6240587148    2.1455867611