20

 C   -0.0595809535    1.5496363931    0.0413440245
 C   -0.0100019656    0.0276303717    0.2245864886
 C   -1.3832156576   -0.6144838428    0.0578639303
 C   -2.0500415970   -0.7900328024   -1.3673256612
 C   -1.0691663733   -1.9921375764   -1.6060846062
 C   -1.5540695997   -2.1729909427   -0.1241461003
 C   -2.9201787709   -1.8240339822   -0.6721932474
 N   -4.0980996671   -2.2500063245   -0.5441547927
 O   -4.9991159136   -1.4935948203   -1.3430862075
 H    0.9216798085    2.0006049690    0.2174610192
 H   -0.3728475862    1.8168290249   -0.9734242815
 H   -0.7685088676    2.0102123382    0.7379719976
 H    0.7266093749   -0.3974239475   -0.4634827039
 H    0.3508060744   -0.2056791393    1.2347630884
 H   -2.0716010034   -0.1928969335    0.7982382013
 H   -2.3525408557   -0.0190556982   -2.0714541756
 H   -1.3959810683   -2.7511666970   -2.3187620584
 H   -0.0181268470   -1.7421413621   -1.7489304047
 H   -1.2912996343   -2.9623396414    0.5776290929
 H   -5.8378246170   -1.9242986665   -1.1479049337