16

 C   -0.0641087607    1.3889716403    0.0858846509
 O    0.0015985398   -0.0218069646   -0.0008372575
 C    0.6359348485   -0.5540745236   -1.0814480079
 C    1.2313233334    0.1466185890   -2.1274029564
 N    1.8335595995   -0.4696433514   -3.1477605946
 C    1.8446079719   -1.8059357035   -3.1199468495
 N    2.5149413810   -2.4520017080   -4.1302450576
 N    1.2876919684   -2.5820114734   -2.1714165036
 C    0.6955830821   -1.9485599173   -1.1704788490
 H    0.9366224156    1.8390839509    0.1303150239
 H   -0.6112874653    1.8221192759   -0.7621209252
 H   -0.5993619945    1.6137543187    1.0096530230
 H    1.2282190086    1.2320580830   -2.1614021907
 H    2.6729426963   -1.9102227405   -4.9641105069
 H    2.2743951151   -3.4209239417   -4.2612826684
 H    0.2355802205   -2.5525908439   -0.3911273903