21

 C    0.0666743842    1.5411233453   -0.1593545211
 C    1.5940823174    1.5281140643    0.1470739863
 C    1.4307773090    0.0943036117    0.6782089852
 C    0.0079719991    0.0072434678    0.1045972543
 C    2.4275848189   -1.0236351486    0.7715129804
 C    3.8931177630   -0.6302410032    0.7993930536
 O    3.9923029822    0.4401038719    1.7354915080
 C    2.9790189107    0.2786345153    2.7247184948
 C    1.8291868803   -0.4282751886    2.0319094351
 H   -0.5023913718    2.1136229911    0.5771956560
 H   -0.2287059425    1.8740083126   -1.1565821526
 H    2.2119863596    1.5798255084   -0.7547652101
 H    1.9609967971    2.2770127001    0.8520893039
 H   -0.7749416744   -0.3459882450    0.7820964426
 H   -0.0436614020   -0.5817179034   -0.8170203992
 H    2.1565643378   -2.0142569066    0.4215193033
 H    4.5096102696   -1.4909349873    1.1072467560
 H    4.2804768565   -0.2561299534   -0.1548325587
 H    3.3382734086   -0.3274024725    3.5728265695
 H    2.7370019330    1.2795231252    3.0998515271
 H    1.1059154136   -0.9687230651    2.6336249055