16

 N    0.1944023236    1.4843928457    0.0192563979
 C    0.0234151368    0.0850310123   -0.0298681747
 C   -1.0595617783   -0.7553637717   -0.0458072226
 O   -2.3723729749   -0.3993877392   -0.0134163376
 C   -0.5997981909   -2.1102946840   -0.1034335526
 N   -1.4892133244   -3.2215201876   -0.1321772197
 C    0.7800115133   -2.0455917437   -0.1209920786
 O    1.7323037055   -3.0137736326   -0.1713239753
 N    1.1556968882   -0.7454761825   -0.0774642638
 H   -0.2156829358    1.8862866695    0.8565390468
 H   -0.2410123768    1.9464303785   -0.7730005035
 H   -2.8591340565   -1.2359487694   -0.0379524595
 H   -1.4107334579   -3.8381141515    0.6689504132
 H   -1.4343835321   -3.7765015604   -0.9790172085
 H    1.2771445722   -3.8622470214   -0.1954388448
 H    2.1005368679   -0.4031908121   -0.0786054065