16

 C   -0.0682427844    1.4620932021    0.0160222330
 C    0.0028345334    0.0096117642    0.0157221746
 C    0.0741969608   -1.1967644011    0.0172039697
 C    0.0921824396   -2.6033881518    0.0099108834
 C    1.1585751957   -3.4177277980    0.1518726400
 N    0.7879580222   -4.7609826675    0.0912257302
 C   -0.5787922123   -4.9139717991   -0.0990370040
 O   -1.1676893237   -5.9642266351   -0.1878579714
 C   -1.1331339490   -3.4833630980   -0.1658300782
 H    0.5365126995    1.8939401415   -0.7899074675
 H   -1.0989065350    1.8062952431   -0.1243624603
 H    0.2938044947    1.8816934562    0.9618568218
 H    2.1941220017   -3.1480974933    0.2971005002
 H    1.4133033996   -5.5454412654    0.1723417696
 H   -1.8823982222   -3.3387139049    0.6195003576
 H   -1.6411655504   -3.3265983228   -1.1231140187