19

 C   -0.1168934055    1.3421011799   -0.0501053866
 N   -0.2925706813   -0.0853777044   -0.2109483359
 C    0.5105019276   -0.6832185721   -0.9724342076
 O    0.4293030406   -2.0147526001   -1.1550946079
 C    1.3162751018   -2.5736753644   -2.1307139300
 C    1.3384382599   -4.0646359571   -1.9608847722
 C    0.2562309260   -4.9072655794   -2.5834938094
 C    1.6515902421   -4.9365503456   -3.1520193149
 H    0.0587358291    1.5760112481    1.0064129727
 H    0.7162187921    1.7622636378   -0.6383160653
 H   -1.0373530270    1.8618483083   -0.3403096220
 H    1.3274317012   -0.1938687220   -1.5284916134
 H    0.9681099792   -2.3112934061   -3.1401814785
 H    2.3222470132   -2.1501818234   -2.0006269591
 H    1.7193638137   -4.3939064660   -0.9989383299
 H   -0.0964166328   -5.7713516804   -2.0325250454
 H   -0.5146293297   -4.3975789130   -3.1515713706
 H    1.8218613314   -4.4523067518   -4.1081765042
 H    2.2612242085   -5.8179728183   -2.9898570400