16

 O   -0.0460638625   -0.0406000427   -0.0130480738
 C   -0.0528971909    1.1608060205    0.0030257441
 C   -1.1910460620    2.1259346647    0.0312471053
 C   -0.7035617481    3.3378209133    0.8369293317
 C   -0.6722106933    3.3722844364   -0.6602585095
 N    0.7856209061    3.2416219860   -0.9939317589
 C    1.3775327812    4.2031682408    0.0276328093
 C    0.8248445327    3.2243687429    1.0937005690
 C    1.1125468639    2.1379191235    0.0189812418
 H   -2.2271379798    1.8204699706   -0.0047452947
 H   -1.3711741110    3.9172008641    1.4588873133
 H   -1.2830491057    3.9947416537   -1.2985890861
 H    2.4670545284    4.2097984398   -0.0547984086
 H    0.9819305879    5.2220461156   -0.0140161896
 H    1.1758711003    3.1602361122    2.1239475528
 H    2.1178050327    1.7401956488   -0.0837257459