17

 C   -0.1147201835    1.5318519033    0.0341031257
 C    0.1222650421    0.0583012242   -0.0066587301
 O   -0.7666117717   -0.8067897940    0.7261342736
 C    0.6433250126   -0.9133854899    0.9749009456
 C    1.2294702185   -1.8148231602   -0.1249981405
 C    0.6684835185   -0.7988238333   -1.1490576629
 C    0.1296019597   -0.9589354225   -2.5119595106
 N    1.4511680698   -0.3257837516   -2.2857340242
 H    0.7705362282    2.0831032569   -0.3003509971
 H   -0.9552683639    1.8133631095   -0.6109120606
 H   -0.3533285598    1.8463183530    1.0532058199
 H    0.9801872379   -0.7701542647    1.9954409286
 H    2.3219519795   -1.8338289483   -0.1434023868
 H    0.8316577505   -2.8317836142   -0.1536575141
 H    0.1709068601   -1.9272792630   -3.0028512455
 H   -0.7076449006   -0.3336355623   -2.8126655961
 H    1.3709994622    0.6849566872   -2.3778359050