14

 C    0.0310547792    1.5307819750    0.0266984764
 C   -0.0894998123    0.0468458618    0.1176672808
 C   -1.3356947837   -0.8401359718   -0.0731528599
 C   -0.7243143923   -1.8009773716    0.9835213631
 O   -1.1193100754   -2.7511872943    1.5784078787
 C    0.5242808435   -0.9067308759    1.1058644932
 O    1.0140178532   -0.7729744220   -0.2492324902
 C    1.4236078421   -0.6977547102    2.1919207831
 N    2.1180082652   -0.5377704514    3.1027233669
 H    1.0105537773    1.8567558079    0.3838587840
 H   -0.0849496250    1.8548830037   -1.0128014834
 H   -0.7470976164    2.0159538666    0.6227062786
 H   -2.2696458198   -0.4125171568    0.3034920975
 H   -1.4796099357   -1.2299791011   -1.0822667887