16

 C    0.0899133985    1.5716118165   -0.0183699177
 C   -0.0592944518    0.0423435841   -0.0141609553
 O   -1.4192941846   -0.3335262630   -0.0013342337
 C    0.6845822192   -0.6240037640   -1.1796305196
 C    2.0034175446   -1.0762590751   -0.5821881175
 O    3.0057375245   -1.4332956760   -1.1109012811
 O    1.8963265197   -1.0430947050    0.8103882388
 C    0.6713170493   -0.5473961038    1.1891671354
 N    0.1923287757   -0.5715784078    2.3499672192
 H    1.1406462928    1.8774684426   -0.0652187392
 H   -0.4345462524    1.9797847997   -0.8865374735
 H   -0.3501255228    1.9887476680    0.8909597257
 H   -1.6964573894   -0.3219970421    0.9250949882
 H    0.1317457791   -1.5094713944   -1.5091892904
 H    0.8582075138    0.0142125585   -2.0467481296
 H    0.8133564937   -1.0199826783    3.0232624503