16

 O    0.0426259868    0.1011274833    0.6565518504
 C   -0.0205868451    1.2365891844    0.2533680700
 C   -1.3496568808    1.8796741302   -0.1472750149
 O   -1.3116644830    3.2869695519   -0.3014984933
 C   -0.2249472319    3.7930868440   -1.0192435369
 C    1.0354523220    4.1951737885   -0.3112278823
 N    1.1699993515    3.3490785170    0.8897788110
 C    1.1901812534    2.1235132535    0.0094153864
 C    1.0218323083    2.9854879834   -1.2567105493
 H   -1.6756690019    1.3814987134   -1.0761083637
 H   -2.0989233668    1.6657427598    0.6185674884
 H   -0.5251824547    4.4397488669   -1.8403306603
 H    1.4891392389    5.1758721471   -0.3886999296
 H    2.0883503924    3.4627201296    1.3057201609
 H    2.1103752001    1.5426708938    0.0763988556
 H    1.4493569507    2.7883966034   -2.2319942624