14

 N   -0.0816092492    1.4950742205    0.0314872562
 C   -0.0769279917    0.0634429014    0.0001716151
 C   -1.3286923925   -0.7688294554    0.0673012106
 C   -2.4152282759   -0.1499916979   -0.8015408040
 O   -1.5062255161   -0.0357403467   -1.9378457786
 C   -0.4908187325   -0.7474935296   -1.2207228154
 C    0.2807901839   -1.7391400483   -1.8904027207
 N    0.9399178675   -2.5375374625   -2.4092343016
 H    0.8551191618    1.8418038485   -0.1523742301
 H   -0.6674425223    1.8468629724   -0.7218213366
 H    0.7454188615   -0.3810452199    0.5531159324
 H   -1.4686252694   -1.5728798397    0.7768657156
 H   -3.2301582702   -0.8394578579   -1.0407884773
 H   -2.8195466650    0.8193319451   -0.4925110656