21

 C    0.1879230299    1.4617118841   -0.5139764658
 C    0.2400672823   -0.0275013558   -0.2628116749
 C    1.5442457307   -0.7384490046   -0.0964197896
 C    0.6388493475   -0.5534058481    1.1058817659
 C    0.8831920657    0.1937451268    2.4291788129
 C    0.2107385910   -0.9938165722    3.2050698593
 C   -1.0096501797   -0.7019075431    4.0720469029
 C   -0.0614525443   -1.6581762837    1.8360803295
 O   -0.6404633468   -2.6526547431    1.4909787280
 H    1.0058246414    1.9807374920   -0.0040796603
 H    0.2730868131    1.6779093862   -1.5844390528
 H   -0.7545579643    1.8938592433   -0.1608246802
 H   -0.5524654392   -0.6057206661   -0.7321604057
 H    1.6460303849   -1.7483194183   -0.4802124320
 H    2.4541194309   -0.1454982060   -0.1119507632
 H    1.9302633986    0.3734985916    2.6828876986
 H    0.3323369372    1.1343242433    2.5211497069
 H    0.9438804539   -1.5820745401    3.7694207187
 H   -1.7460542587   -0.1013112114    3.5271300101
 H   -1.4964040990   -1.6340909797    4.3739898145
 H   -0.7301073949   -0.1523308250    4.9766029872