15

 C   -0.0209011417    1.5018165359    0.0364738349
 C    0.0059573734    0.0105640829   -0.0115943003
 C    0.2928149091   -0.9909320215   -1.1806331459
 C   -0.6311897458   -2.0125112125   -0.5346237708
 C    0.8494952783   -1.9971632572   -0.1844686128
 C    0.5661950859   -1.0030475446    0.9801399513
 C   -0.9190427031   -1.0184715841    0.6289323001
 H    0.9499714565    1.9315669140   -0.2384047014
 H   -0.7741273745    1.9136554337   -0.6460772916
 H   -0.2633813520    1.8508615703    1.0466181649
 H    0.5381292504   -0.8438224422   -2.2244309592
 H   -1.2232093874   -2.7924832300   -0.9943057428
 H    1.5998803298   -2.7632213264   -0.3266954062
 H    1.0453483460   -0.8360150180    1.9361630354
 H   -1.7787873450   -0.8653436305    1.2683529044