18

 C    0.4708134490    0.8701909328    0.1033193555
 O   -0.2062324019   -0.1190604008   -0.6575205464
 C   -1.4642617615   -0.4945897172   -0.1300449051
 C   -2.3870170458   -0.9043994945   -1.2879784368
 O   -2.2083095224   -2.3188306639   -1.4846199367
 C   -1.5993009838   -2.8769058654   -0.4083549915
 O   -1.2962733082   -4.0340071742   -0.3547591130
 C   -1.3752495133   -1.8067206791    0.6721106977
 N   -0.1597466574   -1.9609298840    1.4503965456
 H    1.4165962520    1.0660146926   -0.4070419823
 H   -0.1100473167    1.8036694270    0.1433372531
 H    0.6708187170    0.5316833526    1.1264193677
 H   -1.8957131628    0.3285134763    0.4510435678
 H   -3.4399830982   -0.7100786252   -1.0563966116
 H   -2.1128036673   -0.3936902769   -2.2121991588
 H   -2.2402883316   -1.8604070534    1.3475418029
 H   -0.1468663199   -2.9025853295    1.8348708616
 H    0.6283459527   -1.9168011675    0.8090958105