14

 C   -0.6745783215   -0.5438130679   -1.1801734076
 C   -0.2209150574    0.1632046809   -0.3215880059
 C    0.3244458900    1.0185943270    0.7231933725
 C    1.5912719586    1.7693001669    0.3589723538
 C    2.2269654026    1.6788543948   -0.8839517279
 N    3.3377422826    2.3575551139   -1.1576402099
 N    3.8533192061    3.1435991003   -0.2161857036
 C    3.2188648274    3.2029068641    0.9540928254
 N    2.1048482111    2.5540963683    1.3008760355
 H   -1.0813701300   -1.1709393315   -1.9349275927
 H   -0.4217999223    1.7607781121    1.0348518853
 H    0.5366804836    0.4294609643    1.6246774965
 H    1.8373923334    1.0494378873   -1.6759473793
 H    3.6668757858    3.8539214397    1.6996048179