19

 C   -0.0089201747    1.5075350074    0.0427109105
 C    0.0290705146    0.0219919092   -0.0539009331
 C    0.0199634018   -0.7949727805   -1.1075965930
 C    0.0027124416   -2.2409265279   -0.5719038554
 C    0.9285270926   -2.0358199950    0.6683667426
 C    0.0323810367   -0.8923500987    1.2060785659
 O    0.4778067097   -0.3137368351    2.4055193817
 C   -1.3172557275   -1.6450274034    1.2321258452
 C   -1.3323137185   -2.4528030544    0.1736553740
 H    0.8138353166    1.8817841386    0.6631624879
 H    0.0560474997    1.9786710904   -0.9416547561
 H   -0.9400818832    1.8526776403    0.5157169062
 H   -0.0298164684   -0.5282688289   -2.1556253816
 H    0.2792266717   -3.0165321496   -1.2848481776
 H    0.9621107082   -2.8970793106    1.3405287087
 H    1.9356505354   -1.7006544451    0.4084275985
 H   -0.1959046963    0.2978225104    2.7192704121
 H   -2.0878769631   -1.4786129310    1.9743869328
 H   -2.1281898871   -3.1042626761   -0.1624640193