15

 C    0.1576192719    0.9943216072    0.3911389257
 O   -0.1899832648    0.0196636558   -0.5784853648
 C   -1.3859883375   -0.6146476723   -0.3039579186
 C   -1.5675798281   -1.9745965315   -0.8752872892
 C   -1.4110497468   -1.8219728186    0.6403433955
 C   -0.2136920648   -2.2686727540    1.2839134812
 C    0.7816680723   -2.6457326244    1.8454470772
 H    1.0992738832    1.4421565979    0.0666975814
 H   -0.6080172607    1.7819867750    0.4574666625
 H    0.2922768792    0.5425981198    1.3815362896
 H   -2.2527228419    0.0469851338   -0.2464256880
 H   -2.5395097683   -2.2619501172   -1.2590258381
 H   -0.7152775567   -2.3876281769   -1.4011350250
 H   -2.3190637636   -1.9387734331    1.2256475159
 H    1.6629772866   -2.9816575016    2.3322161047