17

 C   -0.0646148998    1.5552221895   -0.0454610377
 C    0.0920101778    0.0343928382   -0.0156218305
 N    0.7740412182   -0.4777801974   -1.1952875152
 N    0.0960865817   -0.6360139714   -2.3408431508
 C    0.9990144649   -1.0546193511   -3.2291448039
 C    2.2757007484   -1.1650126558   -2.6600782568
 C    2.1034714772   -0.7803324227   -1.3349844966
 C    3.0267742682   -0.6878851153   -0.2730501072
 C    3.8148754066   -0.6063041568    0.6346558119
 H    0.9119054833    2.0477496070   -0.0552438716
 H   -0.6194222695    1.8620083679   -0.9356413266
 H   -0.6116284621    1.8924822917    0.8401547161
 H    0.6698291453   -0.2824211829    0.8557326804
 H   -0.8845573874   -0.4542300605    0.0218822075
 H    0.6931394781   -1.2665551853   -4.2429170019
 H    3.1972111432   -1.4812136171   -3.1196555989
 H    4.5153782559   -0.5384127979    1.4298847516