18

 C   -0.0807078366    1.2443700112   -0.3790135364
 C    1.2903857252    0.9759086679    0.1368096439
 N    0.3064415623   -0.0958401877    0.0497568479
 C   -0.2083296525   -0.6388341226    1.2888790818
 C   -1.0645408784    0.1819372753    2.2996221482
 C   -2.3814008483   -0.0433725666    1.4795826800
 O   -3.1386255931   -0.5650094928    2.6097880936
 C   -1.7968231262   -1.1132176010    2.7695909559
 C   -1.5688380230   -1.3597354306    1.2473182835
 H   -0.7367989315    1.8308248459    0.2598005942
 H   -0.2586689152    1.3623088238   -1.4442180341
 H    2.1354216316    0.8996702864   -0.5418458666
 H    1.5303818499    1.3742713846    1.1217062248
 H    0.5946623672   -1.2241479087    1.7503314756
 H   -0.8240226412    1.0435994431    2.9226034090
 H   -2.8947593858    0.6036618838    0.7707256980
 H   -1.5857867077   -1.7591009166    3.6208671148
 H   -1.8808676469   -2.2282766853    0.6689038858