15

 O    0.1966507515   -0.2062258878   -0.0530455844
 C    0.0683794281    0.9863665347   -0.1355520690
 C    1.2081124647    1.9802316046    0.0499303256
 C    1.2635705468    2.9693990159   -1.0825427586
 C    1.9621242215    2.7266329850   -2.4359573375
 C    2.3138571167    3.9130280830   -1.6201897416
 O    1.3232741654    4.9549713203   -1.8493290284
 C    0.3451178993    4.1533411647   -1.2744590494
 O   -0.7765310170    4.4434517249   -1.0136914275
 H   -0.9155966572    1.4556153980   -0.3541920992
 H    1.0301704985    2.5141720667    0.9939490218
 H    2.1435006339    1.4220222645    0.1447148262
 H    2.6636808547    1.8972108858   -2.4153252752
 H    1.4272316703    2.8610359546   -3.3705288937
 H    3.2736749028    4.2188475350   -1.2296310292