15

 C   -0.0813486354    1.5400261796    0.0317581581
 C    0.1463766715    0.0612324998    0.0112571892
 O   -0.7088590174   -0.7756215325    0.8264881974
 C    0.6964095699   -0.7961665302    1.0705587169
 C    1.3880369434   -1.9911233681    0.4314537223
 N    1.1197561735   -1.7921389853   -0.9844598509
 C    0.4474895640   -0.6431752541   -1.3072610830
 O    0.1567370722   -0.2577955632   -2.4181016553
 H    0.8199183551    2.0738425232   -0.2850724664
 H   -0.8819712731    1.7988297107   -0.6669881731
 H   -0.3595383886    1.8706963226    1.0348728808
 H    1.0243604773   -0.4235658946    2.0363572951
 H    2.4642805132   -1.9799103979    0.6481139986
 H    0.9703160775   -2.9357595030    0.8000575958
 H    1.2996756469   -2.4924820771   -1.6856161555