17

 C   -0.1086993387    1.5257750545    0.3538131719
 C   -0.0686542237    0.0487671955   -0.0763887308
 C   -1.4193301149   -0.5653103327   -0.2095111960
 C   -2.1162386413   -1.0832564309   -1.2626300878
 C   -3.3748122879   -1.5122043862   -0.7497964939
 C   -3.3667681260   -1.2270067976    0.5883831756
 O   -2.1680256604   -0.6453795518    0.9233648986
 C   -4.3148932271   -1.4191750757    1.6066652192
 C   -5.1359786151   -1.5897232810    2.4720044994
 H    0.9050116433    1.9237890570    0.4568307182
 H   -0.6429738480    2.1331168792   -0.3828910544
 H   -0.6186789145    1.6347770022    1.3146068860
 H    0.4409808048   -0.0515256291   -1.0398608240
 H    0.5197629240   -0.5238032792    0.6522398317
 H   -1.7682953560   -1.1506295155   -2.2816533150
 H   -4.1867358760   -1.9730830471   -1.2892726939
 H   -5.8594683623   -1.7410918716    3.2341043352