20

 O    0.0303460880    1.3846713510   -0.3428627418
 C    0.0334607111    0.0334741746    0.0869757813
 C   -1.3680949266   -0.5241702800   -0.1256067168
 C   -1.4806892033   -1.9996828658    0.2714656093
 C   -2.8825704254   -2.5718349453    0.0861148314
 C   -3.3141041477   -3.0490338520   -1.2936666205
 C   -3.0517840462   -4.0543729346   -0.2128316763
 C   -3.9013089696   -1.9649130122    0.9082584302
 N   -4.7072124360   -1.4725812505    1.5771638682
 H    0.9012496679    1.7568592124   -0.1770772658
 H    0.7645121034   -0.5651921051   -0.4828089722
 H    0.3082493346   -0.0482181267    1.1515373208
 H   -2.0762063336    0.0769871106    0.4555394475
 H   -1.6386002199   -0.3973741467   -1.1804045402
 H   -0.7904216730   -2.6033077284   -0.3306279043
 H   -1.1784072277   -2.1316074953    1.3179545826
 H   -4.3397565617   -2.8716134076   -1.5932350606
 H   -2.5840021099   -2.9379190316   -2.0878815201
 H   -2.1416488909   -4.6421631011   -0.2581462223
 H   -3.8987845937   -4.5637840458    0.2305973294