23

 C   -0.7610053594    1.0614150556    0.5826680517
 O    0.0680687547    0.0259718151    0.0907394934
 C    0.8931550004   -0.5770292988    1.0555351725
 C    2.0732660110    0.2648209032    1.5007841791
 C    2.9940291086    0.6413466486    0.3443893592
 O    4.0448133632    1.4395274045    0.8716513680
 C    0.2290336712   -1.5232720371    2.0302136576
 C    1.0671902631   -2.0648741297    0.8861982002
 C    0.4148868443   -2.8162671150   -0.2525978267
 H   -0.1844478062    1.9338353507    0.9197875373
 H   -1.4055684886    1.3692037941   -0.2443773366
 H   -1.3875976133    0.7167942425    1.4171155398
 H    1.7330613402    1.1848493646    1.9914607265
 H    2.6499008376   -0.2873042790    2.2505541332
 H    3.3846688718   -0.2741014675   -0.1281411631
 H    2.4193278271    1.1828083441   -0.4207082029
 H    4.6106660348    1.7077793978    0.1421583267
 H    0.6050299056   -1.5872704438    3.0459152475
 H   -0.8459772142   -1.6409574691    1.9378937337
 H    2.0499046860   -2.4371948893    1.1668262402
 H   -0.5276310735   -2.3456081302   -0.5399927135
 H    1.0602528837   -2.8307680834   -1.1377471710
 H    0.2124029220   -3.8547512580    0.0311870173