16

 O    0.0123105789    1.5117675415    0.0876117314
 C    0.0386663212    0.1093880287    0.0255405922
 C   -1.3140355404   -0.6541638477    0.0234406609
 C   -1.9489447541   -0.3697481204   -1.3381322514
 C   -1.5227963868    0.7880648855   -2.1607369655
 N   -0.7596984080   -0.4727522209   -2.2842990640
 C    0.3214789143   -0.7055276917   -1.2934620602
 C   -0.4017427857   -1.8289998995   -0.4816361620
 O   -0.2978659097   -2.9982971300   -0.3006280993
 H    0.9220158208    1.8269273245    0.0942068253
 H    0.6739127557   -0.2944174697    0.8269081740
 H   -1.9484009809   -0.7277766895    0.9025153270
 H   -2.8317305070   -0.9427459472   -1.6042209619
 H   -2.1054535565    0.9792851325   -3.0580099172
 H   -1.0789342942    1.6542075975   -1.6947595253
 H    1.3111237823   -0.8148746135   -1.7304134041