15

 O   -0.4140100812    0.5506014464   -1.0613587525
 C   -0.0478506743    1.0782904852   -0.0397724360
 C    1.2083515892    1.8752898850    0.0813192668
 C    1.4813112373    2.5030202139    1.4426948633
 C    1.7170554998    1.5080839434    2.4924638913
 N    1.8974277362    0.7116337209    3.3098008121
 C    2.3775851939    1.4007859903   -0.7729161189
 C    1.6356107419    2.6286556486   -1.1733544814
 H   -0.6467648848    0.9980932995    0.8943101011
 H    2.3581103168    3.1560106345    1.3841742393
 H    0.6417690563    3.1385465402    1.7507288047
 H    3.3687226440    1.5008032625   -0.3442316221
 H    2.2031093250    0.4965754080   -1.3439975645
 H    0.9561596179    2.5557129661   -2.0145565640
 H    2.1045358518    3.5961851155   -1.0309417993