19

 O    0.0571836938    0.0583770025    0.5039689906
 C   -0.0198912499    1.1609366056    0.0356323928
 C   -1.3452136990    1.8894310978   -0.1484973165
 C   -1.3264873770    3.0486004931   -1.1487325859
 C   -0.0741033706    3.8928884779   -0.9038147509
 C    1.1428446879    3.0151278596   -1.0500171664
 C    1.8392447047    2.8648675119   -2.3773916314
 C    2.5172858892    3.5746039703   -1.2187438092
 O    1.1275741889    1.8271559121   -0.2610736518
 H   -2.0920712492    1.1311306800   -0.3930901145
 H   -1.6068971435    2.2666774602    0.8494054034
 H   -1.3082428756    2.6619102495   -2.1745158092
 H   -2.2366632505    3.6474724170   -1.0480674584
 H   -0.0049414264    4.7242140674   -1.6114866038
 H   -0.1030114718    4.3259725323    0.1050304649
 H    2.2030263200    1.8764814900   -2.6319299636
 H    1.4853688026    3.4551137870   -3.2161089763
 H    2.6294536703    4.6526487643   -1.2588766638
 H    3.3206368959    3.0477894915   -0.7173019700