19

 C   -0.1260663914    1.5462995015    0.0316816527
 C    0.0050169220    0.0221061099   -0.0179816226
 C    0.7280837939   -0.4745147330   -1.2747241067
 C    0.8371718786   -2.0033890456   -1.2417705572
 C    1.3825495816   -2.5360350144    0.0629548971
 N    2.1032649143   -3.5763465708    0.1014889621
 O    0.9689823970   -1.9134802470    1.2096700094
 C    0.7632210345   -0.4932536838    1.2033287665
 H    0.8581965441    2.0285837238    0.0198298601
 H   -0.6867279184    1.9161026683   -0.8322984021
 H   -0.6491543816    1.8757872987    0.9356445063
 H   -1.0006425523   -0.4212438393   -0.0010097355
 H    0.2010629669   -0.1539941944   -2.1796959667
 H    1.7299442356   -0.0252278838   -1.3165805737
 H   -0.1664815550   -2.4326522945   -1.3673861704
 H    1.4556356283   -2.3967206371   -2.0499132771
 H    2.3357512011   -3.7973547933    1.0727612264
 H    1.7436752042    0.0034138643    1.2652192042
 H    0.2222061765   -0.2803860595    2.1294270570