16

 O    0.0050861194    1.4129633415    0.0110425927
 C   -0.0138971618    0.0099323676    0.0030524153
 C   -1.4658393412   -0.4493890880    0.0117746238
 O   -2.4291087421    0.2753911961    0.0232882766
 N   -1.6209329248   -1.8353808221    0.0056031876
 C   -2.8607476939   -2.6320857990    0.0112083093
 C   -1.9691368991   -3.9071978024   -0.0011267203
 C   -0.7673206910   -2.9459400696   -0.0068845671
 O    0.4288015573   -3.0283410919   -0.0161013817
 H    0.9251828801    1.6919983226    0.0022216126
 H    0.4753385672   -0.4271553593   -0.8818470307
 H    0.4891887728   -0.4372996993    0.8750426453
 H   -3.4621549602   -2.4797904502    0.9093518713
 H   -3.4755305359   -2.4717185451   -0.8764121875
 H   -2.0287391588   -4.5372177311    0.8878178859
 H   -2.0429108979   -4.5298704596   -0.8941695732