18

 O   -0.1619652936   -0.0192190656    0.3023861184
 C   -0.0526918033    1.1692149974    0.1166708378
 C   -1.2051483479    2.1788636223   -0.0012491563
 C   -0.5361294440    3.5659835877   -0.0280815968
 C    0.9408444609    3.2460064272   -0.1393722017
 C    1.2057692517    1.9403945944   -0.0435753099
 N   -0.9814723997    4.3777576760   -1.1602337278
 C   -2.1634982968    5.2052025323   -0.9310487162
 C   -0.8129879087    5.8230610070   -1.0232499040
 H   -1.7282846150    2.0030821720   -0.9465177325
 H   -1.9238161479    2.0395161930    0.8094246811
 H   -0.7137800928    4.0981449631    0.9266201201
 H    1.6736269156    4.0347829841   -0.2729466693
 H    2.1782835169    1.4652816528   -0.0675514405
 H   -2.8604182465    5.2712466537   -1.7609145033
 H   -2.6270368548    5.1707000798    0.0537270448
 H   -0.3791001364    6.2035523364   -0.0994130242
 H   -0.5043917677    6.3496812268   -1.9212670298