21

 C    0.4830540210    1.4325397998   -0.0847091517
 C   -0.2146459877    0.0658009290    0.0827052807
 C   -1.7301628946    0.2761130964    0.2297353290
 C    0.1264996608   -0.8970562597   -1.0928391167
 C    1.3184384413   -1.7766084396   -0.6037365499
 C    1.2009513769   -1.6604006489    0.9100945354
 C    0.3809933263   -0.6773621671    1.2660050497
 C    1.2887288678   -3.1454993073   -1.1073544002
 C    1.2581076287   -4.2748012278   -1.5191986059
 H    1.5594619836    1.3126196948   -0.2432562990
 H    0.0700410943    1.9782961107   -0.9406045562
 H    0.3455610412    2.0551111980    0.8061275361
 H   -2.1501883643    0.7379006495   -0.6709678219
 H   -2.2464831218   -0.6747532596    0.3949545653
 H   -1.9565476783    0.9352309741    1.0754007199
 H   -0.7263526456   -1.5522619260   -1.2900670963
 H    0.3575609324   -0.3676069443   -2.0209494291
 H    2.2719577578   -1.3268121573   -0.9207336819
 H    1.7654400516   -2.3014741450    1.5767846262
 H    0.1743543637   -0.3776429475    2.2889962754
 H    1.2327410050   -5.2717957721   -1.8831472889