19

 O    0.1006636240    1.2656641897    0.5114671182
 C    0.0415290761   -0.0472497826   -0.0049361795
 C   -1.4067840946   -0.5315284056   -0.0959188862
 C   -1.7482700866   -2.0436960891   -0.3208802530
 C   -2.7232540579   -2.0192392034    0.9049579521
 C   -2.6244022094   -3.0599527525    2.0218991802
 O   -3.3709991906   -2.6575770446    3.1508806480
 C   -2.1060002578   -0.6673409483    1.2544158238
 O   -1.9938491344   -0.0655334259    2.2964621934
 H   -0.3351585145    1.2469859573    1.3735397729
 H    0.5046414870   -0.0225096004   -0.9968904077
 H    0.6230808295   -0.7547606243    0.6095362152
 H   -1.9742201268    0.1232038361   -0.7663597409
 H   -2.1895314250   -2.3008184110   -1.2834663275
 H   -0.8828232952   -2.6882573791   -0.1406249115
 H   -3.7685592874   -1.9045346561    0.5978279201
 H   -3.0335777042   -4.0209621022    1.6931213979
 H   -1.5628958641   -3.2250798415    2.2714744389
 H   -3.0276216581   -1.7957006266    3.4205471955