17

 C   -0.0471977647    1.5669524702   -0.0568823165
 C    1.5177524863    1.3985453151    0.0265465133
 C    1.1925614838    0.1642048692    0.9512285211
 C   -0.0316687520   -0.0092911069   -0.0269500428
 C    0.7200683728   -0.2682643558   -1.3117466862
 N    0.7230174929   -1.0339564693   -2.3805164995
 N    1.8080065926   -0.5692211844   -3.0687462653
 C    2.4642704247    0.4635154915   -2.4382139981
 C    1.7708601451    0.6815098828   -1.2823750429
 H   -0.4717150375    1.9966481072    0.8551983628
 H   -0.4582586680    2.0536087451   -0.9441055860
 H    2.1686476323    2.2075384128    0.3517845044
 H    1.9259387785   -0.6440325644    0.9946088656
 H    0.8829853290    0.4638510286    1.9567717100
 H   -0.9082923179   -0.5989462134    0.2306374414
 H    2.0406066271   -0.9948417110   -3.9484630074
 H    3.3371620749    0.9156329925   -2.8823170441