21

 C    0.1014650012    1.3372548462    0.3219631569
 C   -0.0001899353   -0.1599387316    0.0110503019
 C    0.7312448535   -0.5576447713   -1.2663971140
 C    2.2993056685   -0.5734725323   -1.2810113197
 O    2.8714668768   -0.3056705507   -0.0175388069
 C    2.2852951772   -2.0617864728   -1.7569287675
 C    2.1936897596   -3.0835912316   -0.6147520068
 O    0.7526054979   -2.9569233244   -0.5462674325
 C    0.7320736934   -2.0531623506   -1.6702828347
 H    1.1444398522    1.6314373565    0.4665783965
 H   -0.3139899384    1.9440235252   -0.4912935730
 H   -0.4493444658    1.5864674594    1.2345965737
 H    0.3921543833   -0.7446842701    0.8467066848
 H   -1.0543575454   -0.4473857867   -0.0958278324
 H    0.3690785504    0.0499583270   -2.1049003892
 H    2.7173047327    0.0976673089   -2.0423360879
 H    3.8296008260   -0.3117328440   -0.1087462629
 H    2.8644575801   -2.3220845959   -2.6422147312
 H    2.4877470501   -4.1032369871   -0.8935209525
 H    2.6812678506   -2.8004119332    0.3238183757
 H    0.0443666914   -2.3845142509   -2.4534965983