23

 O   -0.0962586957    1.5215965549    0.4628794830
 C    0.0215180661    0.1501789797    0.2049568420
 C   -0.5578879642   -0.8451244111    1.1794704034
 C   -1.2400745757   -0.5817708759   -0.1519166427
 C   -2.5661579909    0.1396166484   -0.2115816176
 C   -2.8489747855    0.8229247204   -1.5661922876
 C   -4.3849631969    1.0340047392   -1.6088447468
 C   -4.9724675264    0.1240446561   -0.4892521650
 C   -3.8007594668   -0.7607789139   -0.0254252236
 H    0.4930186236    1.7375829764    1.1927820272
 H    0.9332674993   -0.1322473419   -0.3218360517
 H   -0.0440859255   -1.7869869062    1.3399080248
 H   -1.0396807069   -0.4339440227    2.0612459549
 H   -1.1260027186   -1.3593599063   -0.9049421374
 H   -2.5746746959    0.9099701711    0.5688222991
 H   -2.2816647700    1.7495649980   -1.6835001508
 H   -2.5367959437    0.1523132900   -2.3769533389
 H   -4.6462031253    2.0815036315   -1.4321406497
 H   -4.7905798335    0.7759365503   -2.5913657192
 H   -5.3234728432    0.7380218999    0.3474633012
 H   -5.8310252419   -0.4612951052   -0.8302296265
 H   -3.7075629113   -1.6423443108   -0.6744518272
 H   -3.9164840311   -1.1263228219    0.9994669492