16

 C   -0.2533108424    1.3934459663    0.3928491143
 N   -0.0663094362   -0.0450192057    0.1549708435
 C    0.4926853223   -0.4043349515   -1.1322037122
 C    1.9263206254    0.1037016906   -1.4136730703
 O    2.6136426179    0.5711175615   -0.5468662521
 C    0.5829829136   -1.9515442382   -1.2040919594
 O    1.0644748420   -2.5596681216   -2.1161913851
 C   -0.4361213123    0.0123790377   -2.2792475376
 O   -0.0904441629    0.0663292422   -3.4274891492
 H    0.6712256870    1.9796320104    0.3277443333
 H   -0.9753017012    1.8002892069   -0.3216400911
 H   -0.6794510812    1.5228959791    1.3909106020
 H    0.5419325227   -0.4096009718    0.8819941027
 H    2.2605011251   -0.0172765158   -2.4603660496
 H    0.1521908578   -2.4349011791   -0.3008771570
 H   -1.4727971176    0.2285640989   -1.9485985122