17

 C   -0.2100108804    0.4306343801   -0.8959358767
 N   -0.0172961350   -0.4422259604    0.2422549427
 C   -1.1392755759   -0.7052155783    1.1629419827
 C   -0.1282388225   -0.7207041308    2.3344910459
 C    0.8475735157   -0.0100913662    1.3428461092
 C    2.2666413537   -0.5311572207    1.2997314649
 O    3.2298308939    0.0570274228    1.7201467611
 C    2.4172292532   -1.8897512188    0.7218544909
 N    2.5913346814   -2.9550211877    0.3070843777
 H    0.7385399718    0.5692157919   -1.4244719906
 H   -0.9159352945   -0.0310993279   -1.5930670856
 H   -0.6002984967    1.4260490240   -0.6159257268
 H   -1.8462090417    0.1364935158    1.2352794024
 H   -1.6980855302   -1.6224552218    0.9547717864
 H   -0.3807621948   -0.1620754846    3.2342862608
 H    0.1994644095   -1.7267066877    2.6020486838
 H    0.8952922127    1.0765866203    1.5093843411