21

 C   -0.2210174597    1.5417413819   -0.0875078381
 C    0.1132735785    0.0485991957    0.0391019145
 C    0.7841095369   -0.5091700274   -1.1870070706
 C    0.0197815202   -1.0138800863   -2.3875297971
 C    0.9539173717   -1.9508067653   -1.6752138166
 C    2.3959103811   -1.6631057979   -2.1061152940
 C    2.2580313441   -0.1964211009   -1.5645964728
 C    2.5008877204    0.9547856578   -2.5017721155
 O    3.1352891269    1.9424894559   -2.2224314673
 H    0.6819165476    2.1343404874   -0.2669818910
 H   -0.9081423525    1.7207811246   -0.9209688387
 H   -0.6917818530    1.9178772630    0.8257884464
 H    0.7628265978   -0.1076238874    0.9106763297
 H   -0.8036466575   -0.5225315039    0.2330075343
 H   -1.0364589992   -1.1812463102   -2.1994163260
 H    0.2339320177   -0.6834198541   -3.4005148804
 H    0.6062898581   -2.8680508202   -1.2150587984
 H    3.1516303047   -2.2215638670   -1.5514723814
 H    2.6012317119   -1.7696936425   -3.1772398769
 H    2.8646281073   -0.0367639008   -0.6697976106
 H    2.0330967170    0.8503971077   -3.5080113296