16

 C   -0.1371830445    1.4461837735   -0.0074735817
 C    0.0285294872   -0.0413348978    0.0183063907
 C   -0.0737900479   -0.9431046172   -1.2260498414
 N    0.7238290342   -2.1528183674   -0.9300766108
 C    0.0542751746   -2.1643788633    0.4122310037
 C    0.6637983842   -0.9050932766    1.0635266236
 O    1.1821056279   -0.6807336913    2.1207950340
 C   -1.0679033898   -1.1411733229   -0.1180344724
 O   -2.3949704413   -0.9235936229    0.1072561458
 H    0.7635710390    1.9376581281   -0.3885659660
 H   -0.9787179532    1.7385246218   -0.6433960370
 H   -0.3271536547    1.8245347964    1.0010643870
 H   -0.1576409552   -0.5004904933   -2.2112452623
 H    0.3397127820   -2.9192231150   -1.4821999278
 H   -0.0549826107   -3.1059174116    0.9429880193
 H   -2.9049006119   -1.6134054603   -0.3339690347