15

 N    0.1961402577   -1.1424696238    0.1375547017
 C    0.0937244029    0.0059164119    0.0369629934
 C   -0.0845050867    1.4205802624   -0.0553179257
 C    0.2440058866    2.2294060084   -1.2500656195
 N    1.0941132358    2.4196482193   -0.0683923186
 C    0.3547486929    3.2432934124    0.9777763318
 C   -0.6729266057    4.2934949621    0.5347920745
 O   -1.7167297629    3.2771442109    0.4660600794
 C   -0.8299075075    2.2789048768    0.9993738065
 H    0.7711905224    1.7222820911   -2.0512771552
 H   -0.4680066607    2.9833772888   -1.5673493474
 H    1.0070284041    3.4502807772    1.8223618193
 H   -0.8997437835    5.0361686697    1.3081052003
 H   -0.5115567146    4.8022244620   -0.4215239320
 H   -1.2213063909    1.7509078007    1.8692796216