16

 N    0.0934263567    1.4287939375    0.1042639543
 C    0.0241104028    0.0437248868    0.0222066763
 C   -1.0473425768   -0.8016072787   -0.1869214646
 N   -0.5840335256   -2.0787860564   -0.2778241595
 N    0.7071397390   -2.0891674863   -0.1309170688
 N    1.0877340871   -0.7931787485    0.0419814283
 N   -2.3866387939   -0.3824868311   -0.2876986407
 C   -3.2324558456   -1.0651852018   -1.2829955481
 C   -3.4209901854   -1.3265684230    0.1650625273
 H    0.5883178072    1.7685632564    0.9210428958
 H   -0.8466475494    1.8098558440    0.0941216214
 H    2.0652100758   -0.5729332659    0.1412331063
 H   -3.9218671901   -0.4194731704   -1.8191418934
 H   -2.7614518422   -1.8474181605   -1.8706576531
 H   -3.0768059778   -2.2835560203    0.5449317955
 H   -4.2507076019   -0.8734464317    0.6999602329