20

 C    0.1008481955    1.3980704447    0.4601059500
 C    0.0730126434   -0.0625671921    0.0423249225
 C    1.0559487639   -0.4611448050   -1.0628370712
 C    1.2482019190   -1.9640767502   -0.8014828943
 C    1.1083183982   -2.0712847674    0.7297339352
 C    2.4439815377   -2.1312552900    1.4709596748
 O    2.2667598001   -1.9672039915    2.8608519628
 O    0.4382788077   -0.8750234821    1.1638242058
 H    1.1106778109    1.6900001612    0.7653433863
 H   -0.2129193521    2.0396018902   -0.3694535142
 H   -0.5766589369    1.5716886207    1.3008634837
 H   -0.9507791738   -0.3313409856   -0.2687421538
 H    0.6779444848   -0.2424995343   -2.0646417426
 H    1.9990648704    0.0812197422   -0.9309832285
 H    0.4669709386   -2.5447408222   -1.3007851757
 H    2.2133853213   -2.3392194988   -1.1537634119
 H    0.4969480519   -2.9322699002    1.0291393234
 H    2.9156730416   -3.1080538279    1.3143020826
 H    3.1195897227   -1.3628038038    1.0556424437
 H    1.6738065550   -1.2104727177    2.9522835117