16

 C   -0.0371019793    1.4287247733    0.0713649830
 N   -0.0146861840   -0.0159905881    0.0317638849
 C   -0.0206880440   -0.7774936103   -1.1556925822
 O   -0.0764524665   -0.3024419803   -2.2676714223
 C    0.0424729987   -2.1907277213   -0.7422292310
 C    0.0850742217   -2.2422234840    0.6054223587
 N    0.1855862656   -3.3005075630    1.4603474450
 C    0.0749917326   -0.8312052763    1.1383626751
 N    0.1383223733   -0.3890144446    2.3324641136
 H    0.8618231799    1.8194089136    0.5578279186
 H   -0.0818696976    1.7763117191   -0.9616599433
 H   -0.9101404188    1.7901839182    0.6229720396
 H    0.0355952025   -3.0037560338   -1.4519065693
 H   -0.0029204521   -4.2166460943    1.0848512121
 H   -0.1570309281   -3.1680699933    2.3994567708
 H    0.2340882761   -1.1445380347    3.0094579667