15

 O   -0.1675083027    1.4803095213    0.0122034251
 C    0.0386944247    0.0780283608    0.0028869489
 C   -1.3520031899   -0.5521095772    0.0120227655
 C   -1.3271362125   -2.0421349677    0.0037684164
 N   -0.2505382232   -2.7573243966   -0.0076891882
 O   -0.6902325923   -4.1065013471   -0.0117825749
 C   -2.0591686171   -4.1593859817   -0.0023483722
 O   -2.7239720868   -5.1543718635   -0.0030455164
 N   -2.4511983075   -2.8271048529    0.0074866178
 H    0.6922882759    1.9105825613    0.0080917202
 H    0.5891728417   -0.2513433404   -0.8889953364
 H    0.6051271003   -0.2607824922    0.8811234670
 H   -1.8981187867   -0.2017349751    0.8967017730
 H   -1.9139427402   -0.1922936981   -0.8588466913
 H   -3.4120455536   -2.5317278811    0.0157226156