13

 N    0.1313806404    1.3498341186    0.1695832299
 C   -0.0735879660   -0.0049196717    0.0535257001
 C   -1.1812708329   -0.7851786834    0.0090723922
 N   -0.6917015448   -2.1073578769    0.0056266402
 C   -0.9484592207   -3.4529703936   -0.0379515457
 N    0.1884446134   -4.1177068322   -0.0384040053
 N    1.2462200810   -3.2168069690    0.0019652364
 C    0.6656993409   -2.0535138842    0.0281663157
 O    1.0810527690   -0.7606366872    0.0649933730
 H    0.9709950386    1.6697641363   -0.2959865725
 H   -0.6722710115    1.9095976977   -0.0764276174
 H   -2.2236337778   -0.5279159855   -0.0148781578
 H   -1.9348190197   -3.8844733290   -0.0641322589