14

 N    0.0043581965    1.2697401193    0.0094137174
 C    1.1232791077    2.0394075460    0.0023759794
 C    2.3728918927    1.4635735099   -0.0132181040
 C    2.4204864810    0.0659247671   -0.0212224760
 N    3.4415136026   -0.7780058702   -0.0359994674
 C    2.8532124954   -2.0271097688   -0.0368245932
 C    1.4696563718   -2.0275318911   -0.0229562481
 C    1.1237680454   -0.6546189387   -0.0121430384
 N   -0.0549899356   -0.0620042768    0.0028337328
 H   -0.9031747799    1.7106630936    0.0208604973
 H    0.9466706192    3.1068920309    0.0098880522
 H    3.2658368909    2.0759773377   -0.0188520146
 H    3.4902868209   -2.9040931627   -0.0479160971
 H    0.8007600114   -2.8730195960   -0.0207896504