13

 O    0.1002315912    1.3843416685   -0.1450576048
 C    0.0683098945    0.0255487147   -0.0375310111
 C   -0.0106081465   -0.8247545474   -1.1237322999
 N   -0.0208697676   -2.1054777651   -0.6343182361
 C    0.0496212827   -2.0947063404    0.7386351209
 C    0.1066194566   -0.7623531075    1.1360859697
 C    0.0556999881   -3.2804409186    1.4961862732
 C    0.0599813071   -4.3052261728    2.1319823288
 H    0.1555405488    1.7592824241    0.7382630473
 H   -0.0586338905   -0.6117099252   -2.1779057240
 H   -0.0722323630   -2.9423569900   -1.1878498879
 H    0.1683041476   -0.4177662826    2.1570565731
 H    0.0644058412   -5.2011923577    2.7011764308