16

 C   -0.2030513957    1.6081009151   -0.0241255389
 C   -0.0096310763    0.0846357650    0.0025542687
 C    1.1951656032   -0.3799829685   -0.9029398402
 C    2.0210666848   -0.5727754959    0.3758593672
 O    3.1843341732   -0.7457372341    0.5909423807
 C    0.7905371671   -0.3932170362    1.2748394272
 C   -1.2601266391   -0.6164424859   -0.2340384569
 C   -2.2949118516   -1.1972225309   -0.4299139762
 H    0.7499232170    2.1171951846    0.1560276399
 H   -0.5878056224    1.9329513165   -0.9948817025
 H   -0.9115156398    1.9223630138    0.7473980645
 H    1.0084686144   -1.3306810915   -1.4104912996
 H    1.5745905213    0.3429368270   -1.6296166416
 H    0.8820466461    0.3202855625    2.0977458324
 H    0.4360701900   -1.3494036150    1.6702528389
 H   -3.2080815121   -1.7109604667   -0.6028593435