21

 C   -0.0343696240    1.5021846927   -0.2226858731
 C    0.0050252561   -0.0035932225   -0.0474645952
 O    0.6500637548   -0.5613870762   -1.2097048026
 C    0.8000559543   -1.9006266602   -1.2156829872
 O    0.4138565563   -2.6183288080   -0.3243858433
 C    1.5219155906   -2.3638732540   -2.4677976085
 C    2.9847322128   -1.8815488581   -2.4635497968
 C    1.4173517914   -3.8830076161   -2.5976213035
 O    1.9939168845   -4.2412963250   -3.8458295433
 H    0.9759265063    1.9116067846   -0.3111137808
 H   -0.5960397579    1.7767787710   -1.1199952648
 H   -0.5191127065    1.9642577292    0.6424591761
 H    0.5649101053   -0.2993431694    0.8453062672
 H   -0.9981365354   -0.4328584915    0.0404270729
 H    1.0166491130   -1.9090355733   -3.3283013371
 H    3.5184359166   -2.2702049431   -1.5890734727
 H    3.4892629420   -2.2455270437   -3.3603685986
 H    3.0357828570   -0.7909053704   -2.4406900369
 H    1.9401451580   -4.3590439927   -1.7556777396
 H    0.3628554925   -4.1873466275   -2.5392058606
 H    1.9879593023   -5.2000392356   -3.9127088817