17

 O   -0.0639370270   -0.0712460006    0.0128699876
 C   -0.0206655722    1.1098254388    0.2061500944
 C   -1.1954552778    2.0581515050    0.0205312806
 C   -1.2758021902    3.0931578833    1.1344870394
 O   -1.4071851749    2.4853167363    2.4371419837
 C   -0.1819700147    3.0921709040    2.9046859123
 C    0.0909807522    3.7087113086    1.5160979708
 C    1.2320777012    3.1073083385    0.7148619355
 O    1.1436498284    1.6772371876    0.6315327213
 H   -1.0873772538    2.5753580056   -0.9427513439
 H   -2.1024329828    1.4528487047   -0.0300779753
 H   -2.0853173619    3.8082776486    0.9442099191
 H   -0.3654523807    3.8164366346    3.7069113356
 H    0.5398787281    2.3426148677    3.2473055041
 H    0.1489971417    4.7985925864    1.4878994078
 H    1.2541781770    3.5332027543   -0.2975697369
 H    2.2014074074    3.3047073767    1.1802613138