21

 C   -0.1294927084    1.3812517534   -0.5390452129
 C   -0.0495701324   -0.0997046786   -0.1574660932
 C   -1.4044757320   -0.6661631185    0.2429653190
 O   -2.3790742026   -0.6842778271   -0.8334312524
 C   -2.6113307309   -2.1151576644   -0.7471781493
 C   -2.3522118400   -2.8643408154   -2.0466286597
 C   -3.3215536193   -2.4512538992   -3.1579151935
 C   -1.5457429432   -2.1905042521    0.3550873202
 O   -1.0204974368   -3.0581754055    0.9846483843
 H    0.8489464530    1.7590031251   -0.8496136235
 H   -0.8306865102    1.5263125122   -1.3655702493
 H   -0.4731981361    1.9892032741    0.3048833392
 H    0.3469557331   -0.6836502791   -0.9962036044
 H    0.6358682488   -0.2479170266    0.6859102309
 H   -1.8009260356   -0.1351877827    1.1219565951
 H   -3.6256449208   -2.3260124702   -0.3751024758
 H   -1.3182393964   -2.6829432193   -2.3623844942
 H   -2.4369563726   -3.9372647022   -1.8351362789
 H   -3.0990164637   -2.9810662730   -4.0886504181
 H   -4.3578656830   -2.6748725308   -2.8822235488
 H   -3.2488952210   -1.3770762801   -3.3495459046