17

 C   -0.1085051460    1.5073829814   -0.0532303470
 C   -0.0268001796    0.0059290225    0.0696505876
 N    1.3180488686   -0.6000848806   -0.0965011841
 C    0.6469743405   -0.6632746632    1.2001036574
 C    1.3082256236   -0.1260014622    2.4969275107
 C    0.8720993961   -1.4396555340    3.1733575091
 O   -0.5529074478   -1.5264319119    3.0560441614
 C    0.2470609183   -1.9335924129    1.9348611473
 H    0.7654384831    1.9784206093    0.4041955252
 H   -0.1440150922    1.8120699025   -1.1046061262
 H   -1.0083575902    1.8878287152    0.4417619056
 H   -0.8640371983   -0.5369210533   -0.3686508560
 H    1.2501521367   -1.4951091425   -0.5770039611
 H    2.3901483576   -0.0308346546    2.3783225673
 H    0.8934741196    0.7823388876    2.9401104226
 H    1.3395701812   -1.9780353749    3.9891096708
 H    0.1027723690   -2.9381108086    1.5504051195