18

 C    0.0566246636    1.5079809395    0.0705227525
 C    0.0280170032   -0.0062012490    0.0061457079
 O    0.7111325901   -0.5039091425    1.1712832975
 C    0.7859264991   -1.8320414586    1.2876055881
 N    0.2791783817   -2.6687147866    0.4116266477
 O    0.5813053361   -3.9372557412    0.9178109908
 C    1.2541028464   -3.7917538710    2.0720621458
 C    1.4310025007   -2.4856337060    2.3871019714
 C    2.1086052363   -1.8462321676    3.5541479426
 H    1.0856962654    1.8780564540    0.0780432243
 H   -0.4545347886    1.9254475776   -0.8018464264
 H   -0.4467854836    1.8690969072    0.9717263976
 H   -0.9955611225   -0.3975162917    0.0006732252
 H    0.5299684814   -0.3884077064   -0.8898731616
 H    1.5453426532   -4.7084608490    2.5627852590
 H    2.9356422547   -1.2045378218    3.2318145477
 H    1.4157641858   -1.2135227720    4.1192333210
 H    2.5111002771   -2.5996897150    4.2358825289