18

 C   -0.0808352552    1.4735531762    0.0590933693
 C   -0.0283677678   -0.0277451505   -0.0421122955
 C   -0.4211430597   -0.7879045596   -1.2963170186
 C   -0.1897227068   -2.1955752904   -0.7965382585
 C    0.9193269908   -2.2443597554    0.1904231171
 N   -0.5017661472   -2.3187823675    0.6650379900
 C   -0.3739680872   -0.8940624227    1.1609329884
 C    1.0526669368   -0.8001538684    0.7200711475
 O    2.1288305884   -0.2472014471    1.3754192378
 H    0.5413327781    1.9466171122   -0.7100136702
 H   -1.1030202179    1.8463951148   -0.0681108718
 H    0.2850631350    1.8122369571    1.0326765836
 H   -1.4659901830   -0.6156727521   -1.5785560649
 H    0.2138446779   -0.5467670080   -2.1572669701
 H   -0.4534528434   -3.0645964693   -1.3898515579
 H    1.6166012725   -3.0601743895    0.3454061662
 H   -0.9036900888   -0.5710006611    2.0472924752
 H    2.7382583675    0.1113994713    0.7196137024