19

 C    0.0647591352    1.4782813621   -0.0713841865
 C    0.0139896260   -0.0160538891    0.0522738606
 C   -1.3124951388   -0.7921311478   -0.1481580925
 C   -0.7362115018   -2.1204716068    0.3700222666
 C   -0.4350570406   -1.7563003225    1.8504910290
 O    0.2131868841   -2.7721977361    2.5917768676
 C    0.6394627297   -0.8408404384    1.2519626987
 C    0.8086891885   -1.7985765481    0.0558653678
 O    0.8747092606   -0.7349166934   -0.8949415548
 H    1.0878491663    1.8455269255    0.0472677372
 H   -0.3009465184    1.7908938017   -1.0553279856
 H   -0.5645604460    1.9462479624    0.6923452069
 H   -2.1485445407   -0.4261146040    0.4558292072
 H   -1.5937815604   -0.7951827658   -1.2032353287
 H   -1.2215620569   -3.0581828704    0.1010371370
 H   -1.2579645986   -1.3047410858    2.4231742917
 H   -0.4200856963   -3.4828666032    2.7346898033
 H    1.4603275768   -0.4081562878    1.8206806832
 H    1.5398728414   -2.5930531126   -0.0636792786