18

 N   -0.0283729179    1.4228188438    0.0832583778
 C   -0.0996453469   -0.0024856552   -0.0509044072
 C   -1.3625848898   -0.7828973488    0.0034605923
 N   -1.5015374489   -1.8164224137    0.9567654057
 C   -2.4907782279   -0.0888854717   -0.7804418899
 C   -1.6050704698   -0.0540499301   -2.0640258977
 C   -0.4859864630   -0.7887543073   -1.3155731465
 C    0.3389470831   -1.8096605357   -1.8557872660
 N    1.0070498519   -2.6454219267   -2.3024484567
 H    0.8196839671    1.7818424324   -0.3440580765
 H   -0.8112280659    1.8881342332   -0.3617417491
 H    0.7009199164   -0.5055998713    0.4851304072
 H   -1.5327599491   -1.4613864744    1.9059435651
 H   -2.3215740573   -2.3891238465    0.7927687112
 H   -3.3505553448   -0.7518033909   -0.9071297068
 H   -2.8546717334    0.8643375390   -0.3803023832
 H   -2.0217335411   -0.6364780663   -2.8861151506
 H   -1.3350241825    0.9371674400   -2.4416400292