17

 C   -0.0716382386    1.5683671050   -0.0116809871
 C   -0.1055952580    0.0398077301   -0.0572713852
 C    0.7667606083   -0.5360812705   -1.1880824238
 C    0.7920130979   -2.0299721860   -1.1928343051
 N    1.2342367573   -2.8169227641   -0.2237584793
 C    1.0224823929   -4.0674178036   -0.7178035807
 N    0.4808391195   -4.1169548463   -1.9230449279
 N    0.3397852451   -2.7986094780   -2.2084888938
 H    0.9473547095    1.9373108577    0.1490371028
 H   -0.4382501280    2.0056518568   -0.9473778009
 H   -0.6961465684    1.9514892897    0.8007539524
 H    0.2443628871   -0.3783526796    0.8919435191
 H   -1.1372072967   -0.3091525538   -0.1868348779
 H    0.4131790161   -0.1716735754   -2.1604702707
 H    1.7940942137   -0.1706124785   -1.0709366798
 H    1.2755908483   -4.9661191076   -0.1751515914
 H   -0.0557512859   -2.5178379560   -3.0908615207