21

 C   -0.1362003532    1.5251325386   -0.0683338370
 C   -0.1291703202   -0.0038145037   -0.1528365032
 C    0.7582852564   -0.5553164934   -1.2875595586
 C    2.2133123298   -0.1985711748   -1.0521007423
 O    2.9041771364    0.4448788716   -1.7998306194
 C    0.6229789572   -2.0761073950   -1.4098077673
 O    0.8633317616   -2.7850901824   -0.2177623047
 C   -0.4758398218   -2.6418426306   -2.2597369231
 C    0.9689778171   -2.7582868195   -2.7078295140
 H    0.8658839446    1.9276546206    0.1144571018
 H   -0.5016441165    1.9731309520   -0.9987838503
 H   -0.7840451563    1.8668070471    0.7444247884
 H    0.2035170264   -0.4392098727    0.7958271098
 H   -1.1478385921   -0.3754131617   -0.3127726119
 H    0.4741270696   -0.1019717387   -2.2436806888
 H    2.6298587554   -0.5946700992   -0.0938527235
 H    1.8113711295   -2.9340749520   -0.1391506058
 H   -0.9534740361   -3.5401058682   -1.8867468577
 H   -1.1294878744   -1.9575843944   -2.7892632436
 H    1.3078183353   -2.1500130167   -3.5394031919
 H    1.4288735414   -3.7383538370   -2.6427129569