20

 C    0.5124198042    1.6057784701   -0.0814026596
 C    0.0055427829    0.1902930452    0.1725052167
 C    0.5416317852   -0.8809665368   -0.8205741300
 C    1.5699193438   -1.3442701860    0.2446836152
 C    0.7631516827   -0.5657640568    1.3282739283
 O    1.4860795402    0.1994785288    2.2729340759
 C   -0.1852542775   -1.4969186414    2.0881803168
 N   -0.0798085557   -1.4508105795    3.4381891894
 O   -0.9649896884   -2.2230237621    1.4944865918
 H    1.5929258445    1.6298742640   -0.2747780218
 H    0.0249606379    2.0288446957   -0.9655689648
 H    0.3057100901    2.2660736596    0.7668432475
 H   -1.0796794815    0.1963305448    0.2948086807
 H   -0.2014153662   -1.6512430683   -1.0239284294
 H    0.9496433449   -0.5039566258   -1.7621175916
 H    1.6947790343   -2.4172402984    0.3987573108
 H    2.5568720898   -0.8904240542    0.1061980850
 H    2.1345376705    0.7323667185    1.8043072455
 H    0.5708253628   -0.8217109416    3.8753090083
 H   -0.6848546545   -2.0361205657    3.9887528054