17

 C    0.2574430209    1.3866277568    0.1570030615
 N    0.1037926557   -0.0533832515    0.0518899831
 C   -0.0612297369   -0.7643827800   -1.1185576831
 C   -0.2337025482   -2.0684200919   -0.7426866601
 N   -0.1820614695   -2.1824404390    0.6255786345
 C    0.0174152407   -0.9608368504    1.0736442246
 C    0.1198863024   -0.6064716788    2.5319784483
 C    1.4123392580   -0.0476971735    2.9306735346
 C    2.4709752918    0.4213393182    3.2533718222
 H    0.9117591059    1.6291719286    0.9959333471
 H    0.7124020593    1.7669669974   -0.7597269924
 H   -0.7089100004    1.8834104211    0.2993790831
 H   -0.0348878573   -0.2759303526   -2.0789953449
 H   -0.3851535525   -2.9297217943   -1.3752198128
 H   -0.6780217313    0.0928093697    2.8190249553
 H   -0.0687715399   -1.5348004224    3.0796032385
 H    3.4116271714    0.8185372227    3.5450640905