21

 C   -0.1858283324    1.4609549068   -0.3141236299
 C    0.2197719887    0.0058641934   -0.1958528667
 O    1.3805961749   -0.3991805897   -0.9842874888
 C    1.9035583336   -1.1555350927    0.1141318452
 C    2.3057289528   -0.2537260675    1.2608506713
 C    2.9243465220   -1.0088856066    2.4290861529
 C    2.9149831432    1.1135298866    1.0128570167
 C    0.8411351461   -0.6076769881    1.0600196848
 O    0.1002630030   -1.1422852876    2.0963924951
 H   -0.4380458833    1.6985685864   -1.3527817860
 H   -1.0788471707    1.6349842672    0.2959608135
 H    0.5958217518    2.1441924515    0.0185161160
 H   -0.6307047463   -0.6270025305   -0.5013469875
 H    2.3075026539   -2.1415467402   -0.0887053371
 H    4.0084778529   -1.0866927931    2.2939543896
 H    2.7370427566   -0.4860696712    3.3728561619
 H    2.5138842258   -2.0162379626    2.5317062116
 H    2.6640143588    1.4817962722    0.0174529070
 H    2.5854095458    1.8467348889    1.7573800433
 H    4.0071991200    1.0485671274    1.0761125918
 H   -0.5086728772   -1.7948243907    1.7314306351