25

 C    0.4153165930    1.3814086391   -0.4591769518
 C   -0.0157053794   -0.0286347293   -0.0091429846
 C   -1.5237176022   -0.0351374191    0.2699219733
 C    0.3695244061   -1.0725815235   -1.0844477644
 C    1.8766933734   -1.3468166658   -0.8840645500
 C    2.1681832924   -0.9973848614    0.6022639360
 C    0.8170772103   -0.5401153152    1.2024037613
 C    0.9628363226    0.4181624117    2.3752746972
 O    1.6031852591   -0.2915243807    3.4304814586
 H    1.4911215839    1.4448219398   -0.6503492816
 H   -0.1009964950    1.6579164102   -1.3850167827
 H    0.1664556085    2.1390266726    0.2912547409
 H   -2.0901015392    0.2351225373   -0.6286056359
 H   -1.8614385703   -1.0264237470    0.5913604422
 H   -1.7954130637    0.6813801312    1.0529663918
 H   -0.2040946933   -1.9903565364   -0.9063890791
 H    0.1259069831   -0.7361671108   -2.0977311875
 H    2.1304201014   -2.3830677423   -1.1236861548
 H    2.4765730511   -0.7209349573   -1.5518255181
 H    2.5821436154   -1.8392820202    1.1607504843
 H    2.9063107935   -0.1908102290    0.6746561583
 H    0.2980367633   -1.4266897880    1.5920577495
 H    1.5602555829    1.2938542212    2.0764459353
 H   -0.0255311692    0.7862207325    2.6953541313
 H    1.7408194621    0.3181293103    4.1611614905