17

 C   -0.0634379489    1.4506182131   -0.0606752870
 N   -0.0014845108    0.0096898786    0.1403346723
 C   -1.1695459871   -0.7138788306    0.0433091098
 N   -2.3622024855   -0.1559578516    0.0014178044
 O   -3.2704807823   -1.2248583620   -0.0485827320
 C   -2.5763830568   -2.3930566564   -0.0213606149
 N   -3.2538427518   -3.6175344599   -0.0640363274
 C   -1.2439979034   -2.1431383274    0.0344196250
 N   -0.1499119219   -3.0254521374    0.0084511902
 H    0.9362259268    1.8697198237    0.0739042903
 H   -0.4442742011    1.7317993413   -1.0525254199
 H   -0.7311546570    1.8882230215    0.6853499398
 H    0.7692311375   -0.4502937452   -0.3255839415
 H   -3.9546225703   -3.6766695790    0.6694404203
 H   -3.7346199376   -3.7513044246   -0.9497502333
 H   -0.4782388377   -3.9856245645   -0.0086174540
 H    0.4444598478   -2.9073256997    0.8237347279