17

 O    0.4587392174    1.1752156921    0.0945379360
 C    0.1605485749   -0.1942815174   -0.0424376658
 C   -1.3560115932   -0.4389802956   -0.0407818663
 C   -1.7429999920   -1.9504217543   -0.0727650428
 N   -2.1658330987   -2.1627987723    1.3138775856
 C   -2.3250024944   -0.9291243589    1.8853540991
 C   -2.9624491687   -0.8011399238    3.2229873810
 O   -3.4369541071   -1.7432370088    3.8100026742
 N   -1.9051379255    0.0923951487    1.2272913222
 H   -0.0812638890    1.4907218352    0.8303918207
 H    0.5898413825   -0.5264921804   -0.9944982240
 H    0.6176827445   -0.7987532382    0.7599101803
 H   -1.7885578305    0.1197727323   -0.8765444863
 H   -2.5565013143   -2.1528074477   -0.7803472367
 H   -0.8957015488   -2.5937968702   -0.3340151835
 H   -2.7657930198   -2.9225573765    1.5947026878
 H   -2.9790395473    0.2327457359    3.6158949387