21

 C   -0.0149320754    1.6513185597    0.1298088039
 C    0.0108491561    0.1300495825    0.0023135094
 C    1.0205096012   -0.4507838600   -1.0244540227
 O    1.6747573547   -1.2353333698   -0.0117487114
 C    0.8955496770   -0.6180182873    1.0334371520
 C   -1.3774887592   -0.5161162965   -0.1124170298
 O   -2.1384792104   -0.3785507486    1.0949086961
 C   -2.2346435476   -0.0471302757   -1.2911389054
 O   -3.4528001985   -0.7596169458   -1.3298117248
 H    0.9980070529    2.0394881197    0.2724041272
 H   -0.4304024860    2.1327109062   -0.7610998436
 H   -0.6042062245    1.9792796900    0.9948905331
 H    0.6058130464   -1.0756485120   -1.8253653974
 H    1.6932208079    0.2950825947   -1.4696781590
 H    1.5080994668    0.0360843349    1.6687427688
 H    0.3823787966   -1.3525177231    1.6629967162
 H   -1.2407658981   -1.5991510227   -0.2158099117
 H   -2.2744010469    0.5627748029    1.2548264009
 H   -2.4131346681    1.0399334259   -1.2127605047
 H   -1.7202408062   -0.2250045365   -2.2419408170
 H   -3.7434068886   -0.8222209785   -0.4105974003