19

 C    0.2212624919    1.5392961968   -0.1173636518
 C    0.0422612910    0.0488246635    0.0498320346
 O    0.8660874061   -0.7385081243   -0.8656378545
 C    1.3352083622   -1.5866224219    0.1971301638
 C    2.6931751298   -1.1715967409    0.7931118928
 N    2.0072765995   -0.1501564269    1.6234113010
 C    2.3587844351   -0.0640928357    3.0221114288
 C    0.6745690280   -0.6794565544    1.2595177895
 H    1.2454965658    1.8242408769    0.1320521579
 H    0.0064169909    1.8295835878   -1.1504768224
 H   -0.4689913178    2.0817964236    0.5384287488
 H   -1.0119032159   -0.2387371218   -0.0785671309
 H    1.1344101046   -2.6450236415    0.0198842128
 H    3.1395143281   -1.9827288305    1.3906160038
 H    3.4394306861   -0.7762304523    0.0963766399
 H    3.3909959979    0.2886644899    3.1208625011
 H    1.7107525550    0.6607630122    3.5258632643
 H    2.2788896945   -1.0281638855    3.5611618445
 H    0.0378945570   -1.0073259950    2.0848425959