19

 C   -0.1154532357    1.5051372584    0.0191079876
 C   -0.0714467849    0.0505654131    0.0638933219
 C   -0.0417269953   -1.1547437799    0.0901869967
 C    0.0276083261   -2.5850652169    0.1028122342
 C   -0.4055812113   -3.4396534148    1.3048949526
 C   -1.3210703804   -2.8030025369    2.3370847154
 C   -2.5283627877   -2.3018148096    1.5051744911
 O   -2.4719113759   -2.9554497021    0.2287089817
 C   -1.2023197848   -3.4942946086    0.0425384588
 H    0.4603830726    1.8911555651   -0.8295822592
 H   -1.1431256389    1.8702505140   -0.0888936889
 H    0.3008689439    1.9510530883    0.9296391416
 H    0.8859975007   -2.9969208321   -0.4239405443
 H    0.2517025901   -4.2438312067    1.6136425577
 H   -1.6236255020   -3.5629692681    3.0639673467
 H   -0.8500376967   -1.9810896110    2.8836456981
 H   -3.4930824767   -2.5463137720    1.9610693173
 H   -2.4744387191   -1.2194427419    1.3579795275
 H   -1.2049710641   -4.3301746983   -0.6479602663