16

 O    0.1090045453    1.3609832338   -0.4019065609
 C    0.0240486140    0.0583677878    0.1331514677
 C   -1.3958144870   -0.5006411725    0.0395536308
 C   -1.8374058285   -1.1283124110   -1.2595640616
 C   -1.6001584946   -2.0239880210   -0.0609761422
 C   -0.4660563659   -2.9042006703   -0.0230324719
 N    0.4460750260   -3.6152972021    0.0113163347
 C   -2.3629204919    0.2312552580    0.8131498997
 C   -3.1315272495    0.8866668746    1.4668005087
 H   -0.4678633889    1.9293450647    0.1212725640
 H    0.7041498731   -0.5651447133   -0.4530285998
 H    0.3557854729    0.0219935891    1.1807900099
 H   -2.8650294334   -0.9958621681   -1.5741356756
 H   -1.1057083250   -1.1577540618   -2.0583418033
 H   -2.4782683855   -2.4116253734    0.4429123444
 H   -3.8234369913    1.4494704056    2.0440232955