22

 C    0.0165607276    1.5911320598   -0.0032962378
 C    0.0228790844    0.0619650407    0.1006704466
 C   -1.3600863700   -0.5724013699   -0.0619361391
 C   -2.0004521781   -0.3766702825   -1.4501063152
 O   -2.8482025463   -1.4973830217   -1.6871366412
 C   -2.7074130733   -2.4633746549   -0.6378204229
 C   -2.7752431029   -3.8597800209   -1.2362674692
 C   -1.3952111988   -2.1031618555    0.0650993037
 H    1.0200154412    2.0015770707    0.1456005362
 H   -0.3346018223    1.9268574432   -0.9847903767
 H   -0.6402682103    2.0358164865    0.7527497690
 H    0.6972373007   -0.3567246718   -0.6587851550
 H    0.4376820237   -0.2329471816    1.0727904982
 H   -2.0331121822   -0.1466807793    0.6952948758
 H   -2.5915547722    0.5442059028   -1.5198379393
 H   -1.2252926291   -0.3357491304   -2.2319575988
 H   -3.5435341531   -2.3368845014    0.0713679586
 H   -1.9473283298   -4.0181694301   -1.9346072732
 H   -2.7205483168   -4.6190812936   -0.4491433210
 H   -3.7135652736   -3.9979895765   -1.7808919275
 H   -0.5476609381   -2.5474186864   -0.4733490757
 H   -1.3585039807   -2.4529183772    1.1004537947