22

 C    0.2997330680    1.3907482783    0.0410377156
 N    0.1150574012   -0.0500751113    0.0027577389
 C    0.0396467580   -0.6974433370    1.2961185888
 C    0.0209085035   -0.6783342906   -1.2166980327
 O    0.0717226138   -0.0560713869   -2.2652160589
 C   -0.1700168043   -2.2005518812   -1.2147254146
 C   -0.1296329816   -2.7739237009   -2.6124081004
 C    1.1620542895   -3.2910111458   -3.1854631031
 C    0.0624144786   -4.2557823095   -2.8090807567
 H    1.2290282531    1.6475436122    0.5658941580
 H    0.3449573207    1.7573756078   -0.9826789362
 H   -0.5329291174    1.8748744621    0.5678050659
 H   -0.7666438323   -0.2578629707    1.8988012258
 H   -0.1571924628   -1.7626112047    1.1992525804
 H    0.9771167054   -0.5704717575    1.8554181570
 H    0.5998535933   -2.6780539506   -0.5966918608
 H   -1.1311101063   -2.4341554038   -0.7352999086
 H   -0.7858884540   -2.2682439171   -3.3112306715
 H    1.3638184487   -3.1178899089   -4.2363130487
 H    2.0459898040   -3.2612505239   -2.5559862175
 H    0.2103465973   -4.8747963073   -1.9294441828
 H   -0.4903850765   -4.7458767428   -3.6030323778