18

 C   -0.1068788757    1.5627120682    0.0787769027
 C    0.0089750837    0.0356924576    0.0138027020
 C    0.7003268376   -0.5189330085    1.2669361822
 O   -1.2928562469   -0.5698165064    0.0071674586
 C    0.7490488557   -0.3966704888   -1.2309265757
 C    1.7814543623    0.1111073146   -1.9884445953
 N    2.0553931491   -0.7541507886   -3.0064044577
 N    1.2480756072   -1.7729005879   -2.9276248994
 N    0.4621861461   -1.5641444603   -1.8554918385
 H    0.8799626780    2.0320276113    0.1266764487
 H   -0.6187008922    1.9540493854   -0.8068869144
 H   -0.6717142952    1.8508578887    0.9693621103
 H    0.1430299869   -0.2204475237    2.1591259157
 H    0.7350720511   -1.6107033270    1.2285136992
 H    1.7234546002   -0.1424768940    1.3399138694
 H   -1.8247066819   -0.1180139740   -0.6581697867
 H    2.3349887077    1.0278888079   -1.8666467235
 H   -0.2654728640   -2.2171088246   -1.6090610076