19

 C    0.1800856176    1.5427243741   -0.0558936181
 C    0.0137382096    0.0186347506   -0.0316501947
 C   -1.4743591410   -0.3795417390    0.0348153082
 C    0.7049667172   -0.6815148379   -1.1880502732
 O    2.1280283007   -0.5138112654   -1.1893383057
 C    1.5926074788   -1.7532891507   -0.7037199324
 C    1.5561256949   -1.8149272085    0.8029417878
 C    0.7304519886   -0.5811965669    1.2067662469
 O    0.6288957707   -0.1496023723    2.3244183833
 H    1.2282449494    1.8118439807   -0.2097321430
 H   -0.4138994409    1.9872477461   -0.8611134525
 H   -0.1495057143    1.9654589142    0.8969642909
 H   -2.0116450220    0.0062242084   -0.8379918650
 H   -1.6068013103   -1.4667641507    0.0574266847
 H   -1.9343047881    0.0377628598    0.9344879866
 H    0.2364834738   -0.7097773238   -2.1695788039
 H    1.8305149025   -2.6308772577   -1.2983772159
 H    1.0548207362   -2.7220461197    1.1635152721
 H    2.5452127565   -1.7793231912    1.2678347338