19

 C   -0.1411421372    1.4416775466    0.0521279846
 C    1.4511215219    1.4750713766    0.0349131027
 C    2.1529335573    0.9762715003    1.2740251784
 C    2.5579816110   -0.2944098425    1.1797510487
 C    2.1939746965   -0.9695167608   -0.1333267657
 C    1.0816846867   -2.0660998461    0.0384196954
 C   -0.1809881117   -1.2187271114    0.1929991883
 C    0.0250362586   -0.0141301341   -0.3347563810
 C    1.4369950890    0.1756263368   -0.8381305520
 H   -0.6616669132    1.6571276895    0.9886047320
 H   -0.5374148252    2.0860983016   -0.7396850847
 H    1.8825611684    2.3939162729   -0.3742981241
 H    2.2979774112    1.6009386971    2.1497612680
 H    3.0673378620   -0.8328352531    1.9737630397
 H    3.0745534405   -1.3599448493   -0.6566578840
 H    1.0566030649   -2.7441579670   -0.8260905910
 H    1.2541918138   -2.6924805384    0.9210222383
 H   -1.0178678137   -1.5182010952    0.8136835872
 H    1.5848301890    0.3017105263   -1.9125257909