18

 O    0.3177745423    1.2315698765    0.5168668307
 C    0.0395733441   -0.0799671752    0.1006535700
 C   -1.4581331530   -0.4310400784   -0.0355449192
 C   -2.4016036696    0.7262765224   -0.4252519041
 C   -2.3122439363    0.2076252011   -1.8801348596
 N   -1.6511698902   -1.0479962476   -1.4074265925
 C   -0.3423197661   -1.3235023420   -1.9999998907
 C    0.5961085205   -0.3365188923   -1.3108838075
 O    1.5364348085    0.2699049157   -1.7596680219
 H    1.0830028688    1.5134044556   -0.0084426731
 H    0.5229684108   -0.8111357272    0.7732210112
 H   -1.7935762820   -1.0814293099    0.7759861649
 H   -3.3945764260    0.6353786603    0.0165542790
 H   -2.0066307006    1.7236503538   -0.2375585961
 H   -3.2526700145    0.0245752584   -2.4080528764
 H   -1.6712132133    0.8287654027   -2.5211565145
 H   -0.0258113429   -2.3534055672   -1.7809566509
 H   -0.3431691105   -1.1947089068   -3.0846590394