19

 C   -0.1322438391    1.6871139379    0.1062937829
 C   -0.1625828655    0.1782478276    0.2328694645
 C   -1.3241919290   -0.4954997882   -0.4916781996
 C   -1.1999762781   -0.3574675739   -1.9980423978
 O   -2.0667216468    0.0625990669   -2.7203398241
 O    1.0947479799   -0.5008439445    0.0495561891
 C    0.4745870869   -0.5476930453    1.3485178735
 C    1.2701220394    0.0697380808    2.4723199948
 O    2.3754244573   -0.7513119337    2.8107216663
 H    0.7762296715    2.1106734505    0.5346790243
 H   -0.1765314851    1.9811888513   -0.9477406218
 H   -0.9989629829    2.1310448485    0.6072398004
 H   -1.3118530724   -1.5679668755   -0.2605001554
 H   -2.2859660254   -0.0798169314   -0.1771680020
 H   -0.2182293029   -0.6884375355   -2.4025745299
 H    0.0689722680   -1.5302535515    1.5991654317
 H    1.5916326071    1.0865583163    2.2123396786
 H    0.6486028842    0.1331767954    3.3723200170
 H    2.9070699529   -0.8462208156    2.0121498875