15

 C   -0.0230259084    1.5020290578   -0.0358759300
 C    0.0047991850    0.0464594579   -0.0590598624
 C    0.0387132588   -1.1567343716   -0.0815108744
 C    0.0476230972   -2.6140377701   -0.0962298360
 C   -1.3146239128   -3.2225255351    0.3137964999
 C   -1.3208184870   -4.7280316961    0.1760361927
 O   -1.6609955517   -5.4998067759    1.0341591171
 H    0.6489563143    1.9009830629    0.7319463271
 H    0.2878929094    1.9220930703   -0.9987939914
 H   -1.0297495096    1.8771750772    0.1788918748
 H    0.3165197389   -2.9744229784   -1.0986181715
 H    0.8274388740   -2.9888739485    0.5791709811
 H   -1.5795184224   -2.9535911115    1.3388449448
 H   -2.0896573485   -2.8234436950   -0.3545624728
 H   -0.9766680071   -5.0963713838   -0.8205398289