14

 C   -0.0115344060    1.4947842836    0.0156243850
 C    0.0055085995   -0.0046266471    0.0137245136
 N    0.1140597910   -0.6107053677   -1.1807751175
 C    0.1297151838   -1.9352626641   -1.1872939049
 C    0.0381572344   -2.6908183075   -0.0102305031
 C   -0.0712533123   -1.9602750803    1.1775744351
 N   -0.0878837859   -0.6323431946    1.1951093502
 C    0.0555169779   -4.1153334134   -0.0237670035
 N    0.0696903621   -5.2729130638   -0.0354877616
 H    0.9061593609    1.8802513006   -0.4399218427
 H   -0.8436985014    1.8606742365   -0.5941297772
 H   -0.1051630293    1.8743634702    1.0326070274
 H    0.2174257340   -2.4287038059   -2.1520486175
 H   -0.1468613385   -2.4709058363    2.1342109867