17

 C   -0.0887447478    1.5170754030    0.1549288640
 C    0.0335465507    0.0080039455   -0.0370974331
 C    0.7559961416   -0.3784988472   -1.3184029963
 O    1.1901906472    0.4356851820   -2.1049900914
 C    0.8950097928   -1.8072999956   -1.5439293138
 C    1.0044212501   -2.9953044047   -1.7204386600
 C    1.1372255591   -4.4354350938   -1.9369232541
 C    1.8443921209   -4.7885709445   -3.1682306515
 C    2.4228999567   -5.0915062228   -4.1748579841
 H    0.8970162817    1.9877078127    0.1889966291
 H   -0.6376798397    1.9729849680   -0.6728425190
 H   -0.6141828625    1.7433867894    1.0867363843
 H    0.5684164484   -0.4643036016    0.7981742222
 H   -0.9509464762   -0.4791192331   -0.0537718021
 H    1.6531006946   -4.8795916388   -1.0741076781
 H    0.1359886980   -4.8886205126   -1.9429566250
 H    2.9367522643   -5.3509743857   -5.0673629011