21

 C    0.0483672920    1.6593429231    0.1061099718
 C    0.0028584437    0.1270535860    0.0897060726
 C    0.6812079995   -0.5067866528   -1.1566409007
 C    1.4160893406   -1.7729565391   -0.6577087026
 C    1.5233721903   -1.5312792694    0.8413130191
 C    0.7453414513   -0.5255042411    1.2346380156
 C    0.6310044959   -3.0702994080   -0.9131626701
 C    1.3871043600   -4.3673695546   -0.6858355438
 O   -0.5247125533   -3.0594436280   -1.2679817343
 H    1.0827540779    2.0203602589    0.0843979786
 H   -0.4722403131    2.0749671225   -0.7630617439
 H   -0.4300095922    2.0636494068    1.0046996895
 H   -1.0515881939   -0.1808955390    0.1324759514
 H   -0.0371752920   -0.7457019186   -1.9421557292
 H    1.4154867199    0.1958495492   -1.5643274160
 H    2.4089211649   -1.8937801342   -1.1114860588
 H    2.1321885953   -2.1501301586    1.4910823761
 H    0.6295777856   -0.1964628312    2.2626007900
 H    2.1943986842   -4.4568178083   -1.4224608603
 H    1.8578086283   -4.3797267771    0.3027511817
 H    0.7102781350   -5.2166817765   -0.7855125366