18

 C    0.0283474885    1.4251964791    0.2471124731
 N   -0.0838692792   -0.0189188209    0.2114491369
 C   -1.2575121072   -0.6289872256   -0.1079342483
 N   -2.2818835184    0.0337895564   -0.4871804964
 C   -1.1472262782   -2.1771092201   -0.0413820051
 C   -0.6016714207   -2.7163757263   -1.3726302552
 O   -0.2318905637   -2.6050587961    0.9659363327
 C   -2.4821279148   -2.7520688191    0.2301369929
 N   -3.5119224667   -3.2191532064    0.4678914436
 H    1.0667187951    1.6939103304    0.4517650919
 H   -0.2700942457    1.8468920890   -0.7162567586
 H   -0.6186789493    1.8688455560    1.0141359275
 H    0.6043188082   -0.5844126797    0.6789339908
 H   -3.0654152384   -0.5790527751   -0.7036325852
 H    0.3897493553   -2.2906812578   -1.5404539063
 H   -0.5264220836   -3.8047988565   -1.3304948444
 H   -1.2576334952   -2.4260313834   -2.1951179073
 H   -0.6196793662   -2.4198551541    1.8299756476