16

 O    0.1276113316    1.4405934835   -0.1743162025
 C    0.1334624589    0.0228878168    0.0068012050
 C    0.5437808269   -0.3703491369    1.4034287466
 C   -0.4607876679   -0.9070154548    2.0949498961
 C   -1.7237541074   -1.0483503643    1.2851221249
 C   -1.2891241926   -0.6355858826   -0.1384878713
 C   -2.2340350740    0.3109592324   -0.8497819073
 O   -3.2175652374    0.8006022624   -0.3541731613
 H   -0.2908285965    1.8298213197    0.6027202884
 H    0.8184269505   -0.3401707103   -0.7650670610
 H    1.5357431061   -0.1510319248    1.7818533350
 H   -0.4061190334   -1.2125947789    3.1346254727
 H   -2.1177776630   -2.0702717854    1.3101218041
 H   -2.5266875273   -0.3998915856    1.6559551428
 H   -1.1836153425   -1.5202613968   -0.7784813588
 H   -1.9492002618    0.5403717753   -1.8987172134