15

 C   -0.3972424877    1.6061934544    0.0170928038
 C    0.0880419812    0.1666192807   -0.0752175674
 C    0.9010711047   -0.2314452761   -1.3411118388
 C    2.0709888096   -0.4522959364   -0.3506730091
 O    1.2501110926   -0.0638294594    0.7710592948
 C    2.5807774375   -1.8206743639   -0.2414047726
 N    2.9967789996   -2.8965527670   -0.1784197697
 C   -0.9942505841   -0.7730657964    0.2574257737
 N   -1.8585901742   -1.5003955828    0.4994170353
 H    0.4176913060    2.2859697387   -0.2442227105
 H   -1.2362856975    1.7715529670   -0.6651338398
 H   -0.7277656423    1.8264100735    1.0352604365
 H    0.5557733670   -1.1230174590   -1.8604953771
 H    1.0526924658    0.5831284834   -2.0486149724
 H    2.9196707418    0.2289764233   -0.4737897567