20

 C    0.0968390728    1.2248029626   -0.3009532697
 O   -0.0179282779   -0.0374414106    0.3179499096
 C   -1.2831051368   -0.6226189191    0.1723464791
 C   -1.7259393491   -1.2602470955   -1.1462541575
 C   -2.3928454208   -2.3618687377   -0.4062433758
 N   -1.1952142707   -2.6608480853   -1.2340815112
 C   -0.3862600861   -2.8366903735    0.0203968848
 C   -1.4338538357   -2.0270922853    0.8085466670
 C   -1.6711761694   -2.1921852247    2.2852864774
 H    1.1026552506    1.5985181841   -0.0957099327
 H   -0.0414281974    1.1622643564   -1.3903308718
 H   -0.6370841969    1.9413612662    0.1004553237
 H   -2.0721860515    0.0563195847    0.5337595912
 H   -2.0160575348   -0.7936090383   -2.0781982047
 H   -3.3593795101   -2.8353620032   -0.5132924106
 H   -0.3898861484   -3.8987646541    0.2810681112
 H    0.6366334865   -2.4516421344   -0.0208213695
 H   -0.8060426878   -1.8307251971    2.8522942494
 H   -2.5477602051   -1.6254310650    2.6172993033
 H   -1.8304910915   -3.2432544403    2.5487933369