19

 N   -0.0732500481    1.3922881924    0.1925235472
 C   -0.0006668972   -0.0543511689    0.0257273772
 C    0.3408568283   -0.8546672112    1.3302145901
 C   -0.9185781976   -1.7443100697    1.1367440804
 C   -2.1560498904   -1.3008491108    1.9510923607
 C   -2.4911419877   -0.2436141201    0.8537948619
 C   -1.3651099479   -0.8209357525   -0.0500720806
 C    0.8725408155   -0.4481451308   -1.0922129425
 N    1.5588391758   -0.7214603978   -1.9831089961
 H    0.8488369024    1.7599333794    0.4132161363
 H   -0.3566726208    1.8331431914   -0.6792799008
 H    1.2992426860   -1.3744765145    1.3041086232
 H    0.3041659534   -0.2124557672    2.2140007082
 H   -0.7304990381   -2.8113982445    1.0212289094
 H   -2.9136546176   -2.0857232653    2.0205718802
 H   -1.9602522150   -0.9236073976    2.9592289543
 H   -3.4915355324   -0.3314078744    0.4258214696
 H   -2.3223543761    0.7942662821    1.1445506539
 H   -1.6554884425   -1.1910964800   -1.0328066326