17

 O    0.0008733756   -0.0804295867    0.0467987446
 C   -0.0171084914    1.1273908544    0.0621840970
 C   -1.2858804244    1.9551116036    0.0486050780
 C   -1.3581795899    2.8294067374    1.3162818473
 N   -0.1504457021    3.6371110548    1.5556756943
 C    0.8721073752    3.0685378401    2.4317075736
 C    1.1337018685    3.2102291635    0.9764669209
 C    1.2469511937    1.9756882033    0.0870351663
 H   -1.2639919817    2.6107008987   -0.8316771302
 H   -2.1566714285    1.2999749543   -0.0229934147
 H   -2.2097975024    3.5126265653    1.2286538049
 H   -1.5554765345    2.1888260713    2.1846057389
 H    1.3174171225    3.7508334916    3.1514963888
 H    0.7122275121    2.0575514869    2.8082693265
 H    1.7494989281    4.0470851210    0.6527453128
 H    2.1012907158    1.3503177851    0.3608268646
 H    1.4072972136    2.3040882153   -0.9497463537