15

 N   -0.0199739617    1.3291619525    0.4790585053
 C    0.0103029503    0.0138866283    0.1314431155
 C   -1.0264406368   -0.8298967574   -0.2126826774
 N   -0.4676696256   -2.0608443840   -0.4019680819
 N    0.7683043967   -2.0691889694   -0.2256148977
 O    1.1425335300   -0.6545425978    0.1483539396
 N   -2.3718890955   -0.4654006471   -0.3451034969
 C   -3.2075878022   -1.2216047000   -1.2862079687
 C   -3.3996919946   -1.3790991929    0.1790906893
 H    0.8289391507    1.8536697095    0.3347778635
 H   -0.8711448026    1.8028793790    0.2130938431
 H   -3.9024143992   -0.6231931631   -1.8682495261
 H   -2.7341352079   -2.0420792371   -1.8174425304
 H   -3.0524176099   -2.3040908600    0.6305624097
 H   -4.2346571017   -0.8966928405    0.6785054830