16

 C   -0.0418518785    1.4414758401    0.0472121945
 N   -0.0055687509   -0.0060019968    0.0133436211
 C    0.0378884093   -0.7607908667   -1.1319896879
 C    0.1031227286   -2.0911094545   -0.7647308210
 O    0.1529527352   -3.1191681039   -1.6588770921
 C    0.1027994130   -2.1528130187    0.6447124654
 C    0.0359452317   -0.8418080662    1.1107540191
 C    0.0075666043   -0.3628920016    2.4337872402
 C   -0.0170472389    0.0426987766    3.5699666157
 H    0.8997363236    1.8690965895   -0.3143347414
 H   -0.8604531507    1.8164543681   -0.5744575104
 H   -0.2020258586    1.7642756832    1.0761451030
 H    0.0185149873   -0.3068015346   -2.1085845889
 H    0.1921530027   -3.9461240305   -1.1700713259
 H    0.1387850834   -3.0343851697    1.2662014616
 H   -0.0380913115    0.3901412558    4.5728039070