18

 C   -0.0501610186    1.5406748405    0.0688902693
 C   -0.0545975202    0.0058121541    0.0247786737
 C    0.6524882189   -0.5309069520   -1.1922986250
 C    0.1629034601   -0.2871905300   -2.6572698602
 C    0.9365758337   -1.5596082233   -3.0120695983
 C    0.9410432925   -2.0331901901   -1.6261556407
 N    2.2521876886   -1.5735324015   -2.2686681433
 C    2.1619808321   -0.4144711107   -1.3847768376
 O    3.0439559665    0.2098464265   -0.8818631028
 H    0.9745660305    1.9215187128    0.0720218989
 H   -0.5685456548    1.9651529433   -0.7972945845
 H   -0.5542074064    1.9027563201    0.9692316422
 H    0.4370891023   -0.3872480418    0.9229820300
 H   -1.0856141320   -0.3692533625    0.0424645158
 H   -0.9142970774   -0.4474734911   -2.7550475222
 H    0.4484886095    0.6547661697   -3.1363330346
 H    0.9319756336   -2.1222010671   -3.9364150786
 H    0.8695072212   -2.9883917770   -1.1275551322