19

 N   -0.3183557194   -1.0726142266    0.0984809280
 C   -0.1413893318    0.0582056966    0.2537522338
 C    0.0804562132    1.4906712979    0.4813355113
 N    1.3239747331    1.9487376164   -0.1391815506
 C    2.5342690389    1.4024584526    0.5197577819
 C    2.9874080384    2.4405088351    1.5846303143
 C    2.4667619207    3.7603595663    1.0393354669
 C    2.7367408721    4.0320513751   -0.4271584675
 C    1.4397254011    3.3961656059   -0.0180603742
 H   -0.7555331405    2.0348169579    0.0282599421
 H    0.0230169964    1.6739759913    1.5702566752
 H    2.3274707291    0.4143549181    0.9354490508
 H    3.3122873397    1.2693519898   -0.2368561946
 H    2.5318156008    2.2369136089    2.5603619735
 H    4.0728753871    2.4171668037    1.7209790617
 H    2.3298914288    4.5957269019    1.7158940287
 H    2.6811031993    5.0640146969   -0.7558625671
 H    3.4795810963    3.4439191186   -0.9549801981
 H    0.5148407367    3.9425590136   -0.1629264861