20

 C    0.0859442587    1.5731233643    0.0200469972
 C    0.0096071764    0.0443657202    0.0087290564
 C    0.5721789760   -0.5365263922   -1.3051087482
 C    0.8430195444   -2.0363378455   -1.2640424427
 N    2.0767409575   -2.4403516303   -0.5917370810
 C    0.7763050671   -2.7993984534    0.0279552262
 C    0.4448246295   -2.0614390293    1.2881653875
 O   -0.0633642852   -2.6229326858    2.2333727725
 C    0.7182371969   -0.5703958593    1.2389783853
 H    1.1280979036    1.9120487348   -0.0051804675
 H   -0.4256041184    2.0011811260   -0.8488258978
 H   -0.3793282388    1.9857831082    0.9207823075
 H   -1.0497555683   -0.2425687022    0.0720002864
 H   -0.1269642925   -0.3175161684   -2.1198009884
 H    1.5142203596   -0.0317949834   -1.5528753969
 H    0.5574974969   -2.5955973999   -2.1523384440
 H    2.4739273363   -3.2681616759   -1.0281050324
 H    0.4600793113   -3.8383299949    0.0175418099
 H    1.7992413209   -0.4036216230    1.1590781646
 H    0.3592370082   -0.1247275000    2.1699004553