24

 C   -0.3114106069    1.5807058022   -0.3022545459
 C    0.3593084917    0.2178099239   -0.1214390736
 C    1.0207485100   -0.3123339411   -1.3962657510
 C    1.7685947922   -1.6255278385   -1.1472732989
 O   -0.0130812879   -0.4945176104   -2.3604496587
 C    0.3793672406   -0.4356559091   -3.7294455991
 C   -0.6332403273   -1.2664746238   -4.5116166430
 C    0.4396187013    1.0129608338   -4.2235429361
 H    0.4186502929    2.3478523717   -0.5852761283
 H   -1.0688797275    1.5313667780   -1.0882008039
 H   -0.7956467680    1.9089904165    0.6225296006
 H    1.1206317742    0.2715893582    0.6662197737
 H   -0.3813446321   -0.5221728283    0.2070902919
 H    1.7354312984    0.4444793386   -1.7594582955
 H    1.0817350693   -2.3813769926   -0.7531344304
 H    2.2110815259   -2.0160908122   -2.0686123612
 H    2.5781406353   -1.4807514389   -0.4242119965
 H    1.3749659619   -0.8916801614   -3.8465112708
 H   -0.6397482495   -2.2992836667   -4.1533915471
 H   -1.6389852433   -0.8542589363   -4.3805661357
 H   -0.3962159704   -1.2661776521   -5.5799041270
 H    1.1460067557    1.6080218115   -3.6370883701
 H    0.7586520721    1.0522157733   -5.2704455161
 H   -0.5474042585    1.4798798235   -4.1444893073