23

 C   -0.0781062101    1.3891910554   -0.0970504234
 O   -0.0893810913   -0.0163314905   -0.1186643917
 C    0.7777934609   -0.5610208843   -1.0915270664
 C    0.6730055539   -2.0697462038   -1.0463051917
 C   -0.6459088150   -2.7392645360   -1.5230590191
 C    0.2059312993   -3.8359260312   -2.2191330078
 C   -0.2283543729   -4.3233624105   -3.5842990228
 O    0.7689375887   -5.2101209936   -4.0731296772
 C    1.4353482196   -2.8902873852   -2.1231578947
 H    0.9228939577    1.7884180981    0.1339787134
 H   -0.4000170568    1.8175068162   -1.0602636066
 H   -0.7738757785    1.7124595734    0.6814610688
 H    0.5055616950   -0.1911489441   -2.0969064038
 H    1.8186066085   -0.2408555272   -0.9031571549
 H    0.9314504961   -2.4124524635   -0.0391607434
 H   -1.3638965371   -3.0522719682   -0.7625367190
 H   -1.1670008933   -2.1091590562   -2.2533650452
 H    0.3403904961   -4.7015136935   -1.5620376470
 H   -1.2076106148   -4.8252275898   -3.5060507287
 H   -0.3575606693   -3.4593697585   -4.2581778564
 H    0.5067370812   -5.5055806796   -4.9497898123
 H    1.5664682668   -2.3178241734   -3.0488872329
 H    2.3970861254   -3.3279460739   -1.8489116572