20

 C   -0.0574343057    1.5626789194   -0.0440437057
 C    0.0111571387    0.0424410203   -0.0130329070
 C    0.7598862389   -0.6988159668   -1.1733134476
 N    1.6703018765   -1.2235032262   -0.1423836886
 C    1.0905262072   -0.5702895858    0.9168936347
 O    1.3597088721   -0.5044609166    2.0871663040
 C    0.0027706783   -1.7342587440   -1.9576848824
 C   -0.6285254274   -1.3640533952   -3.2769327206
 C    0.5712186550   -2.2751078687   -3.2485409314
 H    0.9228531766    1.9994048712   -0.2619936742
 H   -0.7641655788    1.9146381111   -0.8022107507
 H   -0.3823785462    1.9444966556    0.9283086083
 H   -0.9752254171   -0.3918332002    0.1771042682
 H    1.2603557532   -0.0012945239   -1.8588844890
 H    2.4933283731   -1.8056048396   -0.2021860751
 H   -0.5427085817   -2.4422177373   -1.3389825791
 H   -1.5963655333   -1.7887089681   -3.5174116271
 H   -0.4867264462   -0.3517152669   -3.6415457937
 H    1.5182410418   -1.8724824334   -3.5941656144
 H    0.4283279449   -3.3263926049   -3.4712411785