18

 C    0.0051583736    1.4785551577   -0.1524182026
 C    0.0722996080   -0.0230093724    0.0169244702
 C    1.4066750208   -0.7527256770   -0.0414828757
 C    0.6471927063   -0.6386373796    1.2587660464
 O    1.1169399812    0.2626535767    2.2199695644
 C   -0.0081646199   -1.8782570909    1.8625918484
 C    0.9258533020   -2.6116242825    2.7138411385
 C    1.7334611686   -3.1584483047    3.4177025956
 H    0.8358362132    1.9647180565    0.3632415937
 H    0.0451590740    1.7523453248   -1.2121886538
 H   -0.9244891675    1.8817162358    0.2635175647
 H   -0.7682002813   -0.5625405572   -0.4147180059
 H    1.4637685450   -1.7133251842   -0.5428050304
 H    2.2957441781   -0.1374305500   -0.1311359919
 H    1.7894986582   -0.1994378830    2.7359163019
 H   -0.8777507526   -1.5690705103    2.4565502816
 H   -0.3801891609   -2.5297495266    1.0635016203
 H    2.4283918230   -3.6701222632    4.0365522744