23

 C   -0.1656959441    1.3721449796   -0.0011336883
 O   -0.0909172244   -0.0326534120   -0.0538771906
 C    0.8070121491   -0.5122832583   -1.0436545989
 C    0.6821682900   -2.0444248179   -1.0424690025
 C    1.2128878351   -2.6221774338    0.2785171759
 O   -0.6904859188   -2.3916786947   -1.2125437385
 C    1.4296579349   -2.6798869243   -2.2357022368
 C    0.8553600571   -2.3329436132   -3.6084336096
 O    2.7923327650   -2.2701658091   -2.1156526242
 H    0.8075581997    1.8202728224    0.2503486493
 H   -0.5027086064    1.7980696708   -0.9590236327
 H   -0.8871192616    1.6337633273    0.7769397833
 H    0.5251955475   -0.1020312688   -2.0242473885
 H    1.8373811109   -0.2036183687   -0.8237829132
 H    0.7400758580   -2.1205609559    1.1265785985
 H    0.9785473204   -3.6892040047    0.3292428863
 H    2.2957820128   -2.4947055289    0.3504540499
 H   -1.1801749924   -1.7884324642   -0.6395854159
 H    1.3494678291   -3.7701481522   -2.0965746056
 H    1.3606448204   -2.9195603729   -4.3847843288
 H   -0.2108503436   -2.5636963035   -3.6419299992
 H    0.9975974801   -1.2746658139   -3.8456381979
 H    3.2809168713   -2.6500734530   -2.8517722721