19

 C    0.2985508511    1.6039287451    0.3312644553
 C   -0.1467464291    0.2390925126   -0.1580624169
 C   -1.5539850965    0.2012384564   -0.7660814661
 C   -2.6040412613    0.4463905777    0.2939147305
 O   -2.9698036071    1.5365998142    0.6723633593
 C   -3.2400172158   -0.7788740221    0.9708727010
 O   -2.9811524614   -1.9191949677    0.6872097516
 C    0.8912208989   -0.6659203900   -0.7788011765
 C    0.3318119635   -0.9896838842    0.5852677074
 H    1.3004996627    1.5510931855    0.7674482239
 H    0.3290718606    2.3252747118   -0.4937880333
 H   -0.3806379082    2.0044499345    1.0903568569
 H   -1.6512169722    0.9814464312   -1.5283432110
 H   -1.7332156841   -0.7751131609   -1.2235125683
 H   -3.9800118606   -0.4947402889    1.7486663820
 H    0.5970088753   -1.2939626238   -1.6129524148
 H    1.9079877177   -0.2924937692   -0.8411692393
 H    0.9714195183   -0.8406619118    1.4487206278
 H   -0.3435270420   -1.8337688205    0.6678312106