20

 C    0.0183035524    1.6133640132    0.0544059239
 C    0.0104199399    0.0826047916    0.0104498950
 C   -1.4062376442   -0.4966152230    0.1035308164
 C   -1.4643427046   -2.0263250286   -0.0124668530
 C   -0.8016877341   -2.7702822539    1.1685540918
 C   -2.8989209101   -2.5001047550   -0.1623365501
 O   -3.8835497546   -1.8150124023   -0.0528133095
 C   -3.0486274765   -3.9452629588   -0.4733849514
 N   -3.1584075297   -5.0680290436   -0.7279024721
 H    1.0367108329    2.0071266621   -0.0152569942
 H   -0.5612794214    2.0363441335   -0.7732975896
 H   -0.4199960448    1.9842646527    0.9872956317
 H    0.4825540295   -0.2596982955   -0.9203083862
 H    0.6305649922   -0.3044437906    0.8276082278
 H   -1.8735661190   -0.1928668469    1.0482875228
 H   -2.0281625532   -0.0613748608   -0.6869353973
 H   -0.9492487700   -2.3464961251   -0.9316416969
 H   -0.9007367566   -3.8547041729    1.0682508538
 H    0.2641991103   -2.5372575764    1.2109407154
 H   -1.2563502284   -2.4695729096    2.1180246617