17

 O   -0.9494971626    0.8943486283    0.5600733101
 C   -0.2516911015   -0.1928913523    0.1497263336
 C   -0.1049143463   -0.8524763231   -1.0409948335
 N    0.7577366753   -1.9201703842   -0.8749745465
 C    1.1158755887   -1.8937595610    0.3810357623
 N    0.5208710822   -0.8595743146    1.0734826436
 C    0.7356113615   -0.4785097741    2.4374681214
 C   -0.4146189126   -0.5338185485    3.4065236190
 C    0.6984099858   -1.5450534496    3.5005720657
 H   -1.4290666267    1.2457094377   -0.1965404238
 H   -0.5656356328   -0.6296386276   -1.9912970188
 H    1.7906241994   -2.5783253950    0.8715813260
 H    1.4510701755    0.3288611351    2.5641219971
 H   -0.4776839026    0.2495716647    4.1524095141
 H   -1.3684027445   -0.8707774927    3.0194913778
 H    0.4815843468   -2.5582338918    3.1837205918
 H    1.4126042444   -1.4672760012    4.3118568202