23

 C    0.1324845843    1.2797776233   -0.6241454161
 C   -0.0065762881   -0.1293154910   -0.0301015050
 C   -1.4501011295   -0.5882183235    0.1323633212
 C   -2.3370046768    0.3326356528    0.9542604555
 C   -2.1024200876   -1.3198675477   -1.0322531715
 O   -1.4073913238   -1.5587706586   -2.2190869726
 C   -1.7872610384   -2.0774277139    0.2375154587
 C   -0.8151121205   -3.2452148419    0.3076254097
 O    0.1711265570   -3.3023685075   -0.7327730775
 H    1.1864434420    1.5264541090   -0.7864021029
 H   -0.3804113708    1.3381927688   -1.5889029391
 H   -0.2861761017    2.0472718008    0.0329740525
 H    0.5169901946   -0.8148026427   -0.7010295814
 H    0.5075144899   -0.1723933616    0.9404410702
 H   -2.4024577489    1.3338538550    0.5166611122
 H   -3.3566242854   -0.0603582325    1.0193653673
 H   -1.9603339945    0.4396774785    1.9795217438
 H   -3.1467922768   -1.0892579290   -1.2344938338
 H   -0.7735360540   -2.2697083701   -2.0465047084
 H   -2.6485139043   -2.2865720122    0.8709574873
 H   -0.3247343106   -3.2794240969    1.2905458686
 H   -1.3874453348   -4.1738956886    0.2054931519
 H    0.9175843685   -2.7567475705   -0.4694510407