19

 C    0.1122808152    1.0483981705   -0.3387234675
 O   -0.1095713266   -0.0400720535    0.5359729079
 C   -1.3277063192   -0.6699875722    0.3088243665
 C   -1.5072883235   -1.7206640773   -0.7453554830
 C   -0.2093147012   -2.5306865876   -0.9123654464
 C   -0.3197521622   -2.9166254093    0.5727508222
 C   -0.0202564064   -4.2089169282    1.1876694995
 O    0.7528318012   -3.0369482985    1.4856196748
 C   -1.5502093188   -2.0683014439    0.7788019019
 H    1.0878102485    1.4694346340   -0.0861718327
 H    0.1164225283    0.7315198458   -1.3916802262
 H   -0.6553270087    1.8279423255   -0.2157648097
 H   -2.1941941498   -0.0170110550    0.4414538562
 H   -2.3295987200   -1.7137735534   -1.4495172442
 H   -0.3084772905   -3.3853918636   -1.5851564128
 H    0.6777637596   -1.9528245711   -1.1819792345
 H   -0.6380383697   -4.5804744861    2.0053062785
 H    0.4936398103   -4.9775003857    0.6105296088
 H   -2.3905798065   -2.3295953804    1.4114917107