17

 C   -0.0793780940    1.4047929001    0.3140601097
 C   -0.0101319788   -0.0407057025    0.1703823719
 C    0.0536913821   -1.2378434859    0.0537720841
 C    0.0938896385   -2.6751485835   -0.0954340841
 O    0.3592519169   -3.4145678112    1.1293916929
 C   -0.8717517077   -4.1785862684    1.0785673641
 C   -1.7559412271   -3.9960006172    2.3000983439
 C   -1.2677678516   -3.4249351049   -0.1961357086
 O   -2.2048032786   -3.3987155561   -0.9276797895
 H    0.5705290238    1.9086848864   -0.4093351870
 H   -1.1004413086    1.7705544957    0.1607447062
 H    0.2370659642    1.7118448175    1.3168510049
 H    0.7886009419   -2.9746772671   -0.8934063638
 H   -0.6714339327   -5.2437495520    0.8930498602
 H   -1.9760595644   -2.9380975329    2.4652952747
 H   -2.6971179700   -4.5371753999    2.1626388386
 H   -1.2538164340   -4.3900775981    3.1882170216