16

 O   -0.0292873621    0.0028364020    0.3417369397
 C   -0.0150419183    1.1758758059    0.0684614902
 C   -1.2237270338    2.0867981152   -0.0746401970
 C   -0.9166469956    3.3134579353   -0.5415404705
 C    0.5349081234    3.3224334133   -0.9456442849
 N    1.8204581510    3.9890021399   -0.3151294900
 C    1.4080857358    3.2451194225    0.9528954552
 C    1.1166537249    2.1697570989   -0.1441815320
 C    2.4895258811    2.6382779112   -0.7080646016
 H   -2.2146969495    1.7261829371    0.1759609550
 H   -1.6317272353    4.1070716020   -0.7326759635
 H    0.6347978511    3.2953974667   -2.0362374504
 H    2.2400683368    3.0467722845    1.6322025619
 H    0.5582626289    3.6871154198    1.4746193722
 H    2.6639529472    2.5240344507   -1.7797388536
 H    3.3891342245    2.4342323551   -0.1247410808