17

 C   -0.1147627623    1.5310425216   -0.0476313437
 N    0.0920114221    0.0969668085    0.0340025549
 C    0.7191220023   -0.5524353237   -1.1591653953
 C    1.3766901760   -1.8842113344   -0.6601618276
 C    1.5175955406   -1.5707371964    0.8017484517
 C    0.7789689259   -0.4566299362    1.0987130202
 N    0.8917674659   -0.3042661630    2.4268117494
 N    1.6980368555   -1.3130182415    2.9396014022
 N    2.0492192215   -2.0717270932    1.9392016100
 H    0.8248368886    2.0942272915   -0.1792028577
 H   -0.7707951513    1.7545035212   -0.8934285289
 H   -0.6116763939    1.8878225226    0.8592976055
 H   -0.0342219310   -0.7091458091   -1.9353988619
 H    1.4944014972    0.1159361139   -1.5644257864
 H    0.7133913589   -2.7400542952   -0.8345660778
 H    2.3142354750   -2.0834728650   -1.1855482214
 H    0.5314901288    0.3954797285    3.0527871067