19

 C    0.0658674232    1.5528645775   -0.2195936660
 C    0.0180966535    0.1000823162   -0.1387081064
 C   -0.0140964851   -1.1036297260   -0.0702756095
 C   -0.0349112401   -2.5405742968   -0.0372975483
 C   -0.4279926540   -3.2794861412    1.2185743209
 C   -0.7621383872   -2.5538316022    2.5023790537
 N   -1.2996012003   -3.3014369125    0.0505407796
 C   -2.5639017751   -2.5781128735    0.0675156066
 H    0.9918418634    1.9455220117    0.2153919962
 H    0.0152619718    1.8977745095   -1.2584268232
 H   -0.7712713807    2.0081782795    0.3210372306
 H    0.6967045271   -3.0097770181   -0.6930514601
 H    0.0705848623   -4.2360603124    1.3773136780
 H   -1.0846974976   -1.5260182103    2.3283839469
 H   -1.5496127107   -3.0799189627    3.0532532390
 H    0.1235425039   -2.5188339084    3.1451906564
 H   -2.5250170555   -1.5813980449    0.5255585861
 H   -2.9078145683   -2.4587413511   -0.9645910045
 H   -3.3036597705   -3.1824358643    0.6020589140