23

 C    0.0900132969    1.5181522327    0.2725862035
 C   -0.0267638349    0.0267211192   -0.0571877199
 C    0.7049271884   -0.4647696127   -1.3088382752
 C    0.5011079769    0.2691766797   -2.6155206558
 C    1.8341039272    0.3449432900   -1.9120724543
 C    0.8716688064   -1.9711819309   -1.4184715899
 C    1.5793512247   -2.7036524534   -0.2513216311
 O    0.3719733415   -3.4080686221    0.1026076808
 C   -0.3242399804   -2.8856436012   -1.0472122013
 H    1.1173172533    1.8012275638    0.5210919631
 H   -0.2444482878    2.1545105100   -0.5533218975
 H   -0.5337890572    1.7579225787    1.1389537080
 H    0.3246824799   -0.5455245341    0.8098780808
 H   -1.0904637089   -0.2225410924   -0.1612982198
 H    0.4300115670   -0.3164970076   -3.5263011509
 H   -0.1199269533    1.1584495336   -2.6173823020
 H    2.1090516000    1.2865886311   -1.4522915747
 H    2.6728060717   -0.1931807928   -2.3416747141
 H    1.3037570873   -2.2072256625   -2.3943025790
 H    2.3796715550   -3.3911951112   -0.5555430205
 H    1.9488680668   -2.0757072311    0.5683514152
 H   -1.2613618731   -2.3905335815   -0.7699650009
 H   -0.5448403172   -3.6707384154   -1.7825212045