17

 C   -0.0796372671    1.4704381500    0.0686125505
 O    0.0557647475    0.0544230149   -0.0451747738
 C    0.6548990771   -0.5447725876    1.0284046078
 C    1.9655836982   -0.9286896499    1.1202935757
 N    3.0380528754   -0.7428888985    0.2801386164
 O    2.1771381785   -1.5554879402    2.2790977874
 N    0.9564692067   -1.6058961812    3.0067399902
 C    0.0736118899   -1.0024353123    2.2447055158
 C   -1.3480790671   -0.8820681153    2.6876458933
 H    0.8972587696    1.9551828130    0.1895698609
 H   -0.5472255032    1.8160329563   -0.8561378379
 H   -0.7165395654    1.7448608770    0.9187323286
 H    2.7599693377   -0.6015783855   -0.6815225581
 H    3.7587671947   -1.4458518203    0.3733262127
 H   -1.6156556779    0.1618525520    2.8837010141
 H   -2.0255718036   -1.2530953353    1.9123782559
 H   -1.5042919610   -1.4560005671    3.6029866204