25

 C    0.1737976611    1.5469552941    0.0915425378
 C   -0.0275491434    0.0295459125   -0.0031455361
 C   -1.4890410579   -0.4773834726   -0.0521006208
 C   -2.1885020892    0.0272676971   -1.3289819376
 C   -1.4550390881   -2.0240567329   -0.0441527429
 C   -2.8492038996   -2.6678007677   -0.0480174344
 C   -3.7818384679   -1.9900146284    0.9184649125
 C   -3.5170446472   -0.8089402647    1.4748178359
 C   -2.2702870109   -0.0065504415    1.1990199120
 H    1.2411787051    1.7853196390    0.1380715836
 H   -0.2382622174    2.0727939767   -0.7751297508
 H   -0.2930185239    1.9657148393    0.9885914518
 H    0.4950642983   -0.3431464368   -0.8945218714
 H    0.4679859847   -0.4434855777    0.8554763574
 H   -1.6867854550   -0.3530461312   -2.2262911048
 H   -3.2338261779   -0.2907823907   -1.3647873237
 H   -2.1828122692    1.1201038542   -1.3821137689
 H   -0.8715660982   -2.3858699762   -0.8995519414
 H   -0.9205495519   -2.3507403152    0.8574803165
 H   -3.2839386750   -2.6456093937   -1.0582014865
 H   -2.7640289200   -3.7332737021    0.2018477616
 H   -4.7107273151   -2.5035399026    1.1562500096
 H   -4.2253426627   -0.3751749764    2.1776326362
 H   -1.6141903304   -0.0496832031    2.0822829548
 H   -2.5410049581    1.0518814205    1.0946488695