15

 N    0.0151268213    1.3101508304   -0.1116482922
 C   -0.0269529679   -0.0447806008   -0.0374186582
 C   -1.1127366668   -0.8612298811   -0.0166672368
 C   -2.4569402811   -0.4385721587   -0.0058014321
 C   -3.5850870646   -0.0137934003    0.0077193971
 C   -0.6414549132   -2.2505498123   -0.0017704081
 N   -1.3352851101   -3.3057019258    0.0188820209
 O    0.7455751563   -2.2314431514   -0.0079678215
 C    1.2152903878   -0.8917469350   -0.0406844526
 H    0.8460827993    1.7895811057    0.1943667449
 H   -0.8523155110    1.7996319394    0.0533260709
 H   -4.5916909244    0.3234796978    0.0137227880
 H   -0.7335105980   -4.1295431010    0.0302722287
 H    1.8205640476   -0.7295260755   -0.9430252791
 H    1.8528430248   -0.7010471215    0.8345709600