14

 C    0.0096179993    1.4272845550   -0.0314530391
 O   -0.0046162934    0.0052437427    0.0068423747
 C    0.5766681177   -0.6444936837   -1.0092151086
 C    0.6918900482   -2.0056498482   -1.1929553510
 C    1.3878075375   -2.1217060799   -2.4199594190
 N    1.6849504053   -0.9372247244   -2.9615629129
 N    1.1774767379   -0.0507266336   -2.0787250438
 C    1.7661370682   -3.3311772526   -3.0703475155
 N    2.0563301745   -4.3343360699   -3.5681446021
 H    1.0362907292    1.8149738011   -0.0252179435
 H   -0.5265708818    1.8067901330   -0.9106071775
 H   -0.5033132932    1.7594593384    0.8706946709
 H    0.3319748974   -2.7860996910   -0.5462752980
 H    1.2800315930    0.9303654032   -2.2728614747