18

 C    0.1365196553    0.9587750967    0.4850492737
 O   -0.1477460524   -0.0372470195   -0.4879374781
 C   -1.3636521283   -0.6676743353   -0.2816218661
 C   -1.5094379696   -2.0828017442   -0.7278567365
 C   -0.2144684090   -2.8496570848   -1.0019521313
 N    0.4259765002   -2.9234868438    0.2997517086
 C   -0.2381095868   -2.3115623629    1.3297357377
 O    0.1440910499   -2.2327807683    2.4788282369
 C   -1.5242480112   -1.7631496529    0.7613562562
 H    1.1018328138    1.3945822814    0.2193741584
 H   -0.6270229837    1.7503339471    0.4783220469
 H    0.1935054873    0.5255522142    1.4910982899
 H   -2.2339629726   -0.0201631344   -0.4049112112
 H   -2.4008834305   -2.3807427409   -1.2655517698
 H   -0.4340582079   -3.8497522410   -1.3950865327
 H    0.4156419729   -2.3241471902   -1.7290835975
 H    1.3825142761   -3.2139380429    0.4240031750
 H   -2.4046166836   -1.7883609480    1.3901461501