12

 N   -0.5706144135   -0.2555321526   -1.5652800078
 C   -0.1741922217   -0.2623747798   -0.3590439677
 N   -1.0216484147   -0.0960105890    0.7221212512
 C   -2.3949278830    0.1016567052    0.7365099093
 N   -2.9652675391    0.2311325919    1.8703528118
 C   -3.1280399929    0.1542917680   -0.5108038991
 N   -3.8794260125    0.2251372576   -1.3868390826
 C    1.2116290236   -0.4444548953    0.0429232227
 N    2.3247797402   -0.5927242980    0.3171065609
 H    0.1941493477   -0.3924245232   -2.2207109210
 H   -0.6213444664   -0.1146643226    1.6499841818
 H   -3.9680161178    0.3705520477    1.7670044905