18

 C   -0.0895985123    1.4451983009   -0.0997539157
 C    1.2922384243    0.8641430288    0.0704231758
 C    0.0926871281   -0.0495962263    0.0034696822
 C   -0.3532948723   -0.7866855211    1.2256048363
 C   -1.7044171528   -1.4735895695    1.3877068818
 C   -2.0784723332   -2.1909494767    0.0960287351
 O   -0.7827567073   -2.8495964246    0.0374388570
 C   -0.4260532579   -2.2816225567    1.3032749514
 H   -0.5295733459    1.9596738305    0.7485984078
 H   -0.3586028453    1.8685132173   -1.0614714578
 H    1.9712600771    0.8851177518   -0.7747644088
 H    1.7799650426    0.9905260973    1.0319543455
 H   -0.0170213186   -0.6175417928   -0.9139931211
 H   -0.0308939869   -0.3403271992    2.1657290511
 H   -2.3681346609   -1.2837479059    2.2205219159
 H   -2.8742362873   -2.9331054197    0.2239331640
 H   -2.2798151055   -1.5812063661   -0.7924706676
 H    0.1012821739   -2.9169283281    2.0064542870