20

 C   -0.2298918591    1.4572120466   -0.1976002585
 N    0.0563111877    0.0602409331    0.1001350552
 C    1.3930882921   -0.5046003771   -0.0321557315
 C    2.6075852507    0.4252470060   -0.1332295465
 C    2.6712090012    1.1380834583    1.2131387982
 C    2.9447255718    0.2892170624    2.4447031353
 C    1.5330081779    0.6775272853    2.0854111349
 O    0.8476737916    1.6169196240    2.8618780985
 C    0.7465027573   -0.3498229389    1.3144842771
 H    0.5558242197    2.1733859195    0.0738578256
 H   -0.4252794604    1.5479920264   -1.2711912841
 H   -1.1391225486    1.7447913956    0.3379078329
 H    1.4356351157   -1.4620489066   -0.5451638156
 H    3.5132669751   -0.1587447158   -0.3324995855
 H    2.5025487347    1.1365409424   -0.9608693648
 H    2.9764100237    2.1776705686    1.2558095577
 H    3.2659450749   -0.7409672127    2.3208059225
 H    3.3806073668    0.8096561160    3.2906782013
 H    0.5424568581    1.1763478847    3.6625140899
 H    0.2947232390   -1.1811740579    1.8548269273