19

 C    0.0560085758    1.5333563342    0.1173470324
 C   -0.0269882406    0.0273526557   -0.1403171228
 C   -1.4225257109   -0.5370210110    0.1235010196
 N   -1.4584315298   -1.9676221673   -0.1528682505
 C   -2.6363630252   -2.6698498668   -0.0332296437
 N   -2.6228514330   -3.9544403949    0.2707777378
 O   -3.9646386534   -4.3599384828    0.2319373677
 C   -4.7237992856   -3.3048188410   -0.0729672583
 C   -3.9689106718   -2.1944440473   -0.2552903565
 H    1.0648763706    1.9097569882   -0.0737612690
 H   -0.6331073805    2.0856563242   -0.5308667711
 H   -0.1985793262    1.7752087271    1.1549027494
 H    0.2543061852   -0.1994363859   -1.1750439514
 H    0.6967981830   -0.4948695480    0.5001945274
 H   -1.7273276869   -0.3058255351    1.1582256390
 H   -2.1433010136   -0.0399411223   -0.5365693769
 H   -0.6702275334   -2.4821087395    0.2181800471
 H   -5.7862895174   -3.4883283750   -0.1286149023
 H   -4.2986498461   -1.2027748924   -0.5123064282