17

 O   -0.0116263243    1.4180390237    0.0324789824
 C    0.0205658394    0.0068313210    0.0333353926
 C    0.7872669850   -0.5696610288    1.2303684463
 O    0.6913724137   -1.9875182952    1.2267506504
 C   -0.6505569838   -2.3970982036    1.2686642959
 O   -1.3911358432   -1.9413665671    0.1589648667
 C   -1.4335554452   -0.5135761377    0.0774238624
 C   -2.2257891767    0.0840894290    1.1580958549
 C   -2.8954024975    0.5531399517    2.0388421626
 H    0.8777190264    1.7413660533   -0.1431076568
 H    0.4625246224   -0.3950382164   -0.8895661719
 H    1.8519275742   -0.3222143831    1.1727958290
 H    0.3781809025   -0.1449870141    2.1600121960
 H   -0.6561003672   -3.4867954272    1.2148418123
 H   -1.1242262804   -2.0501215771    2.2022927802
 H   -1.9187786236   -0.2896916378   -0.8775686796
 H   -3.4881891817    0.9771399394    2.8116483766