14

 O    0.0031802106   -0.0146027187    0.0417328218
 C   -0.0125830259    1.1802572966    0.0724282309
 C   -1.0982686354    2.2694882522   -0.0242577072
 C   -0.7997862609    3.2598759692    1.1190075408
 C   -0.0515851379    4.2454282256    0.2561498928
 C    0.7473599659    3.2809142469    1.0970103331
 C    1.0399979278    2.2984861755   -0.0546049996
 C   -0.0521359828    3.1363539048   -0.8456751531
 H   -2.1228358844    2.0710213704   -0.3278784354
 H   -1.3649435352    3.4255129521    2.0258571546
 H   -0.0667190300    5.3257744801    0.2252795268
 H    1.3333598052    3.4622157616    1.9874864527
 H    2.0605384374    2.1277468150   -0.3872566618
 H   -0.0688459044    3.2378227387   -1.9262893767