15

 O   -0.4855241712    0.6806012823    0.6636059913
 C    0.3432357255    0.8945263106   -0.1779334967
 C    1.4494606152    1.9728315619   -0.0617462482
 C    1.4533457722    2.6378892563    1.3490467650
 N    2.5626978940    1.9226169855    1.9864686802
 C    3.2481005944    1.2608919161    1.0025280201
 N    2.7290523668    1.2121864920   -0.1697692991
 C    1.2711560727    2.9128950796   -1.1607142532
 C    1.0661483336    3.6738381461   -2.0683174603
 H    0.4131765126    0.3105942144   -1.1160200097
 H    1.6424737534    3.7138256563    1.2845937625
 H    0.5055975775    2.4553986246    1.8606611095
 H    3.0472294878    2.3213850446    2.7747976702
 H    4.1851432760    0.7683210138    1.2468555794
 H    0.9065627095    4.3512773059   -2.8707567311