21

 C   -0.0073854753    1.5436260484    0.0353673620
 C    1.4481119302    1.9587250467   -0.0661536314
 C    2.4271826745    1.2867601019    0.8873154697
 C    2.0183412604    0.6377712129    2.2083125050
 C    1.3056393730   -0.7185597553    2.0982701665
 C   -0.0418183184   -0.6893590353    1.3640965382
 C    0.0353680545   -0.0074524524   -0.0144726584
 O    1.2712385849   -0.3453606325   -0.6660573675
 C    2.1750102937    0.7159365916   -0.4945615233
 H   -0.5091477754    1.9013843149    0.9398920747
 H   -0.5584319339    1.9397871193   -0.8236907634
 H    1.6820863029    2.9385212080   -0.4664148854
 H    3.3739662074    1.8187758622    0.9476618435
 H    2.9266558863    0.4907847942    2.8038195901
 H    1.3974509465    1.3394461069    2.7833357104
 H    1.9675668381   -1.4182892199    1.5782435670
 H    1.1510381118   -1.1204413439    3.1062895563
 H   -0.3873774639   -1.7214473479    1.2349520186
 H   -0.8051541084   -0.1808738309    1.9669568337
 H   -0.7668734830   -0.3953549178   -0.6504350539
 H    2.9645637941    0.6912450289   -1.2369959226