20

 C   -0.5317121641    1.5852788522   -0.3768718138
 C   -0.1515591166    0.1197582929   -0.2105969446
 N    1.0422349162   -0.4325252048   -0.9300839791
 C    1.8334625736    0.3775975888   -1.8397880546
 C    1.6318364427   -0.9216155110    0.3036794707
 C    1.8189748677    0.1226561496    1.3860160646
 O    2.1801365227    1.4622458197    1.1774459196
 C    0.4393901464   -0.3815964326    1.1153773722
 O   -0.3191954259   -1.0413952084    2.0668527337
 H    0.2852001761    2.2536931220   -0.1051642817
 H   -0.8380288664    1.7928145688   -1.4081209573
 H   -1.3901781678    1.8103115787    0.2659814218
 H   -1.0195183013   -0.5070618470   -0.4554813066
 H    2.2249850536    1.3115967568   -1.4106021959
 H    2.6828850574   -0.2215476570   -2.1868303976
 H    1.2339684297    0.6296262512   -2.7210596869
 H    2.1376206973   -1.8824604199    0.3376790575
 H    2.2189590205   -0.3155763749    2.3041499631
 H    3.1159437115    1.4830351121    0.9508461564
 H   -0.5067854133   -0.4251579673    2.7830341485