17

 O   -0.1999586064    1.1483561774   -0.3813055724
 C   -0.1803807685   -0.2064094912   -0.0823037465
 C   -0.4718098512   -0.6742223544    1.3400064133
 C   -0.8105844829    0.3406832997    2.2905132704
 C   -1.0666603216    1.2487937128    3.0399612092
 C   -1.4409629072   -0.9880834101    0.1893134601
 C   -2.8163996939   -0.3929641501    0.1707030005
 C   -3.2136893001    0.6918421374   -0.7409894615
 O   -3.5812195629   -0.6617556979   -1.0068948352
 H   -0.3621913990    1.6380330771    0.4369028033
 H    0.6159986762   -0.7223892108   -0.6109613161
 H    0.1157578218   -1.5001902130    1.7279352929
 H   -1.3091126461    2.0185382973    3.7305931362
 H   -1.4229936672   -2.0271548443   -0.1295509358
 H   -3.3826863148   -0.5090111508    1.0955895140
 H   -4.0344493731    1.3502108325   -0.4580124430
 H   -2.4701024031    1.1175429184   -1.4072647793