15

 C    0.0834264770    1.5874131210   -0.0356391567
 C    0.0335284309    0.0489637815    0.0577505016
 C    0.5829586348   -0.5632801720   -1.1619789359
 N    1.0112526863   -1.0298043993   -2.1284306945
 C    0.7422102835   -0.4864986260    1.2778492518
 N    1.8810395249    0.0196338756    1.7243733281
 N    2.1366064819   -0.7639180205    2.7959062778
 C    1.1645821302   -1.6841287647    2.9473916310
 N    0.2589170525   -1.5378591179    2.0002832362
 H    1.1171372515    1.9342071340   -0.0801363990
 H   -0.4444486961    1.9310459242   -0.9279935207
 H   -0.3908590906    2.0225474646    0.8472917686
 H   -1.0074720083   -0.2825035388    0.1361582676
 H    2.9638447021   -0.6043229676    3.3478876045
 H    1.1567311092   -2.4164432942    3.7403730396