13

 N    0.0098562176    1.3142496858    0.0095264543
 C    1.1670423743    2.0447535116    0.0021659658
 N    2.3626833091    1.5316263882   -0.0123077877
 C    2.4123659051    0.1770031613   -0.0201246122
 N    3.4862964674   -0.6017953168   -0.0348998802
 C    2.9312831314   -1.8556442674   -0.0362357107
 N    1.6019278335   -1.9731407062   -0.0238289095
 C    1.2156954689   -0.6661381855   -0.0129959016
 C   -0.0017159297   -0.0539367611    0.0022261106
 H   -0.8677232543    1.8123371982    0.0208122889
 H    1.0326900389    3.1215962083    0.0093114196
 H    3.5694645060   -2.7319427479   -0.0472322663
 H   -0.9656908981   -0.5463594483    0.0089947290