17

 C   -0.0406912722    1.4968606727    0.0754743477
 C    0.0003534942   -0.0045577641   -0.0085317364
 C    0.0370317025   -0.6568343955   -1.2443673121
 C    0.0383426861    0.0744321988   -2.5599271858
 C    0.0729485032   -2.0553989926   -1.1699737757
 O    0.1099207625   -2.7780328720   -2.3054548925
 N    0.0729774786   -2.7328311413   -0.0257032192
 C    0.0360721155   -1.9960693250    1.0840337866
 N   -0.0002657633   -0.6723783658    1.1606710163
 H    0.8352273640    1.9454426740   -0.4072592322
 H   -0.9221184382    1.8991834099   -0.4370433898
 H   -0.0664087888    1.8036017990    1.1212194499
 H    0.9026275991    0.7433510239   -2.6446798545
 H    0.0697160909   -0.6256807041   -3.3950143568
 H   -0.8567433552    0.6972123321   -2.6720894034
 H    0.1301464331   -3.7051051456   -2.0285500486
 H    0.0357551379   -2.5425139444    2.0245463566