19

 C   -0.0205925328    1.5751043696    0.0280901560
 C    0.0606971122    0.0505041990    0.0037357866
 C   -1.3316246203   -0.5726892612    0.1570036521
 C    0.8448892306   -0.6368027493   -1.1110640012
 C    2.2895973355   -0.7187317325   -0.7315071025
 C    2.4813831265   -0.1041263257    0.6430405728
 C    1.0830959443   -0.6849052820    0.9184281890
 N    1.3169544763   -1.7446960001   -0.2128835042
 H    0.9491486903    2.0491325520   -0.1415164616
 H   -0.7020631011    1.9330145406   -0.7521303935
 H   -0.4103223778    1.9311579279    0.9889505203
 H   -1.9901234252   -0.2654326309   -0.6632405943
 H   -1.2770750605   -1.6646058171    0.1587542435
 H   -1.7982908190   -0.2489607778    1.0942657979
 H    0.5084943908   -0.8479084265   -2.1217579312
 H    3.0533400256   -0.9910364125   -1.4519881764
 H    3.2448896749   -0.6530972588    1.2007469180
 H    2.6504865150    0.9710225241    0.7529002153
 H    0.7908921248   -1.0202212190    1.9132179934