17

 C   -0.3045423247    1.4063138481   -0.0445517089
 N    0.1032045143    0.0137734888    0.0081803290
 C    0.8710801565   -0.4682596791   -1.1460368679
 C    1.2653733996   -1.8896497832   -0.7354322305
 C    1.3356263128   -1.8271548539    0.7879334684
 O    1.7090781780   -2.6732086526    1.5456987305
 C    0.8013867531   -0.4205753742    1.2050667704
 C    1.9467564047    0.4360632232    1.5913602403
 N    2.8331875887    1.1386330221    1.8327922287
 H    0.5457163321    2.1082514715   -0.0433056872
 H   -0.8882456993    1.5704845726   -0.9551159979
 H   -0.9424920588    1.6382570610    0.8137286648
 H    0.2445822038   -0.4340149115   -2.0413258593
 H    1.7678782684    0.1465596494   -1.3386346240
 H    0.4954174503   -2.6194499762   -1.0073895021
 H    2.2153405857   -2.2379622166   -1.1463416814
 H    0.1291090248   -0.5127154093    2.0640617570