18

 C   -0.0547324445    1.5798526438    0.0193015951
 C   -0.0236974147    0.0516235368    0.0798344394
 C   -1.4446292405   -0.5517988763    0.0254435645
 O   -2.1168070818   -0.1873227154   -1.1582900806
 O    0.6650550906   -0.4461654353   -1.0929435320
 C    1.7310298896   -1.2249421933   -0.7312101186
 N    2.4413344734   -1.7754232611   -1.6242347797
 C    1.7931184850   -1.2296050486    0.7437007414
 C    0.7895930471   -0.4951776323    1.2209847523
 H    0.9577092367    1.9780717380   -0.0781498142
 H   -0.6545485887    1.8993724726   -0.8350596894
 H   -0.5068174867    1.9852749269    0.9299662960
 H   -1.3626648578   -1.6439736830    0.1291059649
 H   -2.0411583148   -0.1731396248    0.8621354630
 H   -1.5611610002   -0.4855962676   -1.8890104144
 H    3.1904627364   -2.3120193240   -1.1911326488
 H    2.5540974361   -1.7607201889    1.2987544884
 H    0.5515433948   -0.2943765676    2.2578388328