23

 C   -0.3015713863    1.5338207883   -0.1134067162
 C   -0.0512659564    0.0199027200    0.0044382466
 C    0.7717303317   -0.5030180957   -1.1489687536
 C    1.9820700732   -0.9027495272   -0.7695858325
 C    2.2119239103   -0.7366056368    0.7135705794
 C    3.2726948176    0.3351722360    1.0148454348
 C    0.7684267039   -0.4689584204    1.2515033594
 C    0.6845522965    0.4374141032    2.4790035744
 O    0.3029111107   -1.7784436890    1.6148569136
 H    0.6369613546    2.0967264513   -0.1245953360
 H   -0.8261454224    1.7563523321   -1.0486756542
 H   -0.9179533804    1.9108637880    0.7087322571
 H   -1.0329384906   -0.4748173578    0.0390587256
 H    0.3983205623   -0.5070251071   -2.1679851804
 H    2.7535240759   -1.2835621209   -1.4311330190
 H    2.5439719642   -1.6779188049    1.1678148829
 H    2.9831256943    1.3152895487    0.6223940380
 H    3.4551412033    0.4349903697    2.0891275862
 H    4.2227104734    0.0634816072    0.5427698568
 H    1.0754380043    1.4406666354    2.2929255885
 H   -0.3578089780    0.5443127312    2.8035151468
 H    1.2461745347   -0.0069694781    3.3056747726
 H   -0.6204824867   -1.6965765231    1.8770245293