16

 N   -0.1312502630    1.2637335660    0.4406976571
 C   -0.0695140755   -0.0479457901    0.0734993915
 C   -1.0824083935   -0.9255994556   -0.2727057722
 N   -0.4483226713   -2.0900980279   -0.6115714077
 N    0.7888379334   -2.0381412092   -0.5108746949
 O    1.1036830785   -0.6269133936   -0.0357760064
 C   -2.5393084707   -0.7020365683   -0.3174874756
 C   -3.4736118282   -1.7278587560    0.2717622844
 C   -3.3004779157   -0.4072855561    0.9686060049
 H    0.6661873194    1.6211189906    0.9440395828
 H   -1.0256593087    1.5718010825    0.7908723836
 H   -2.9114042954   -0.1854832703   -1.1998828261
 H   -4.4049597670   -1.9167207152   -0.2490464774
 H   -3.0233623578   -2.6041770015    0.7223732906
 H   -2.7388042993   -0.4004376310    1.8966368403
 H   -4.1121102852    0.3104953360    0.9252776251