27

 C    0.3652784313    1.0143119077   -1.4080655871
 C    0.3999231135   -0.4032630738   -0.8268335397
 C    0.8865214069   -0.4918303113    0.6338147759
 C   -0.0815780761    0.2004791251    1.6050110597
 C    1.1473977518   -1.9635696538    1.0298046952
 C    1.8388606894   -2.1235817409    2.3894813667
 C    2.2434619167   -3.5683116617    2.6935937133
 O   -0.0880058174   -2.6876476878    1.0576836686
 C   -0.2173955358   -3.7128690889    0.0993595284
 H    1.3472075515    1.4961509923   -1.3359471254
 H    0.0840307084    0.9939589650   -2.4658490325
 H   -0.3565254231    1.6546199814   -0.8926128921
 H   -0.5980390942   -0.8533853183   -0.8961564013
 H    1.0597367683   -1.0186096872   -1.4529856424
 H    1.8603860918    0.0175798190    0.6890615247
 H   -1.0331078239   -0.3383127816    1.6375706049
 H    0.3207071630    0.2357001907    2.6211916866
 H   -0.2798284503    1.2317105419    1.3014023023
 H    1.8026396927   -2.4042044403    0.2616829493
 H    2.7231012145   -1.4740380233    2.4108825526
 H    1.1632841365   -1.7656072285    3.1736045507
 H    2.7223569538   -3.6459850526    3.6745114778
 H    1.3660671020   -4.2212722927    2.6965140954
 H    2.9499234406   -3.9519517843    1.9483566201
 H    0.5618598188   -4.4818391791    0.2080351670
 H   -1.1922206564   -4.1820196130    0.2615859741
 H   -0.1821512444   -3.3304905040   -0.9310431031