15

 N    0.0874901223    1.4648979350    0.0664053485
 C    0.0290072237    0.0610993696    0.0097203050
 C   -1.2853479516   -0.6277401647    0.0617760638
 N   -2.4421217146    0.2125529067    0.0620313122
 C   -0.5148523491   -0.7235600270   -1.2836269807
 C   -0.9498530811    0.0848268579   -2.3830155974
 N   -1.2771511338    0.7642432723   -3.2602640294
 C    0.1005989712   -1.9790383672   -1.5975884237
 N    0.6166121283   -2.9962682208   -1.7945666357
 H    0.8874459460    1.8461260532   -0.4245571320
 H   -0.7656117886    1.8879352805   -0.2830129233
 H    0.8747670813   -0.4522885590    0.4548411394
 H   -1.3115996166   -1.5829525107    0.5877763636
 H   -3.2513557734   -0.2611444389   -0.3238429223
 H   -2.6657925942    0.5098905729    1.0060846121