17

 O   -0.0206829094    1.4275303577   -0.1036008284
 C    0.0106775291    0.0196236294    0.0032112486
 C   -1.3915857428   -0.5676542810    0.0231456696
 O   -2.0021219843   -0.1912956406   -1.2020915152
 C   -3.3702296867   -0.5440773072   -1.2717528366
 C   -3.9350323021   -0.1057993225   -2.5381506194
 C   -4.4347564002    0.2473584369   -3.5810509240
 C   -4.9900117492    0.6475677087   -4.7568400069
 C   -5.4842662250    1.0024397612   -5.7995724526
 H   -0.5903226316    1.6229057904   -0.8570245487
 H    0.5775623960   -0.4380016922   -0.8229995632
 H    0.5237350764   -0.2244125047    0.9391522047
 H   -1.3596389969   -1.6647203156    0.1250390611
 H   -1.9596931647   -0.1566028579    0.8728138102
 H   -3.4921112098   -1.6363112017   -1.1709483235
 H   -3.9303488755   -0.0863392182   -0.4380872441
 H   -5.9168523433    1.3153753076   -6.7173914315