23

 C    0.0203636901    1.5541379038    0.0798668706
 C    0.0650782610    0.0361130272    0.0720021582
 C   -1.2459564833   -0.5670378206   -0.4134743445
 C    1.3134837685   -0.7560254918   -0.3264121083
 C    2.6821932156   -0.0936991729   -0.3761089256
 C    2.9339059501    0.5133880208    1.0361197161
 C    1.8714162415   -0.0962752487    1.9854467687
 C    0.8132751275   -0.7645233017    1.1091100621
 O    0.1218802857   -1.8389894373    1.6812912364
 H    0.9382634950    2.0219341810    0.4356457568
 H   -0.1712679900    1.9334573905   -0.9309157881
 H   -0.7980240527    1.9069279650    0.7185655092
 H   -1.4632694885   -0.2294622287   -1.4336376486
 H   -1.2198888512   -1.6572496648   -0.4038813791
 H   -2.0791313296   -0.2537328707    0.2259183495
 H    1.1390327673   -1.6161221538   -0.9658360690
 H    3.4354342155   -0.8554689341   -0.6070320103
 H    2.7637405981    0.6686049847   -1.1591917747
 H    3.9477335964    0.2973370444    1.3846649907
 H    2.8530911915    1.6026576727    1.0095723509
 H    2.3158960626   -0.8800162838    2.6121137797
 H    1.4501000400    0.6450146896    2.6727440613
 H    0.7596569688   -2.5385624708    1.8622026180