17

 O   -0.0047129678   -0.0328609019    0.5521558873
 C   -0.0538591495    1.0668882771    0.0735212012
 C   -1.3715127163    1.8291050245   -0.0608128572
 C   -1.7032461680    2.3311969526   -1.4526103714
 O   -2.1611913257    3.6873768742   -1.5500453659
 C   -0.8703469758    3.3684691816   -2.0670246793
 C    0.3538956677    3.8541521339   -1.3168710226
 C    1.3818917179    2.7328585587   -1.1788377453
 O    1.1190716836    1.6837391654   -0.2315588821
 H   -2.1462305841    1.1548474116    0.3069514969
 H   -1.3337431900    2.6897262606    0.6141093192
 H   -2.2352597907    1.6332693595   -2.0971465380
 H   -0.8027074512    3.4009328854   -3.1549632945
 H    0.8322516705    4.6770704756   -1.8598964221
 H    0.0699774985    4.2458676023   -0.3366680745
 H    1.5481930348    2.2614500461   -2.1567142405
 H    2.3389744460    3.1428798630   -0.8466477113