16

 C   -0.0605739133    1.5724318330    0.0224515040
 C    1.4284058607    1.2291686468    0.0203292813
 O    1.1427603208    0.0739996027    0.9454663325
 C    0.1049798778    0.0305366108   -0.1215060131
 C   -0.8829668317   -0.9186579570   -0.7348473971
 C   -0.7349094355   -0.4028011317   -2.2254893972
 O    0.4836309962    0.3946854279   -2.3539465872
 C    1.1890843626    0.2088659390   -1.1507883030
 H   -0.4596795114    1.9038662046    0.9812139549
 H   -0.4573551070    2.1203202904   -0.8331123266
 H    2.3018427013    1.8295843882    0.2743583037
 H   -0.5510332719   -1.9565044393   -0.6438974019
 H   -1.9125372360   -0.8376980981   -0.3800216508
 H   -0.6859778927   -1.2417595490   -2.9271967181
 H   -1.5756409175    0.2377025406   -2.5080346562
 H    1.9503480976   -0.5759316090   -1.2046596452