13

 N   -0.1761992939    1.4295732139    0.0386342448
 C   -0.0690405062    0.1861780798    0.1177643746
 O    1.1834331448   -0.4245353887    0.3277030174
 C    1.3478945569   -1.6828583189    0.7827496930
 N    0.5751058976   -2.4288245239    1.4606239114
 C   -0.7300655281   -2.1019963810    1.8042310561
 N   -1.5923949401   -1.4264183782    1.1455356680
 C   -1.2175461779   -0.7770954271   -0.0366318433
 N   -1.7886034433   -0.8795428242   -1.1633338987
 H    0.7191501191    1.8976107356    0.1899106171
 H    2.3493638427   -2.0274339071    0.5350860154
 H   -1.0543451245   -2.5678045759    2.7336318121
 H   -2.5585730771   -1.5515793745   -1.0941255579