21

 C   -0.1107750883    1.5817491854    0.1037797751
 C    0.0052153153    0.0540891844    0.0438049120
 C   -1.3701764698   -0.6007583665   -0.0797622126
 O    0.7260899615   -0.3394692813   -1.1476934552
 C    2.1429652060   -0.4242880757   -1.0251802222
 C    2.5288320660   -0.8835468927    0.3741292024
 C    1.4515540933   -1.8326285093    0.9353455477
 C    0.7731308477   -0.4863204298    1.2637618567
 O    2.0824490138    0.1549566266    1.2963861513
 H    0.8745972244    2.0373759983    0.2140843980
 H   -0.5779748440    1.9525264640   -0.8125947386
 H   -0.7255987660    1.8928112710    0.9552797796
 H   -1.8416054901   -0.2929741035   -1.0170947666
 H   -1.2912318091   -1.6912493680   -0.0835143820
 H   -2.0195600406   -0.2989687728    0.7478398708
 H    2.4739500227   -1.1390277229   -1.7880623077
 H    2.6234902686    0.5453830016   -1.2249725933
 H    3.5918508971   -1.1155417328    0.4801335300
 H    0.9546383565   -2.5173722310    0.2474563819
 H    1.7880911068   -2.3501917191    1.8340076770
 H    0.2223309980   -0.3593691959    2.1998454858