16

 C   -0.0638542493    1.5693793330   -0.0001112366
 C    0.0617533092    0.0491658688    0.0072345247
 C    0.8039823503   -0.5341475595   -1.2199157694
 C    1.4888907214   -1.8011264355   -0.6864252677
 C    1.6596376574   -1.5362395111    0.8139939795
 O    2.3295507977   -2.1645298470    1.6032501558
 N    0.8834613444   -0.4435849003    1.1049533994
 H    0.9243140122    2.0377483256   -0.0470713394
 H   -0.6466317087    1.8975090354   -0.8668677189
 H   -0.5734411968    1.9330923817    0.8985670553
 H   -0.9493811277   -0.3859816667    0.0644065734
 H    0.1251293865   -0.7165770637   -2.0557491067
 H    1.5574034047    0.1876884563   -1.5537291255
 H    0.8565472134   -2.6900251727   -0.7967570554
 H    2.4505803167   -2.0276297915   -1.1496919461
 H    0.7267133185   -0.1840595029    2.0666555975