16

 C   -0.0011453043    1.4720776598   -0.0438524971
 N    0.0063189864    0.0309076966    0.0785170405
 N    0.0353900310   -0.7347240577   -1.0444255906
 N    0.0328719431   -2.0073915150   -0.6893499484
 C   -0.0033638069   -2.0243602603    0.6502992218
 C   -0.0274046542   -0.7643654677    1.1704103409
 C    0.0041187248   -0.8145912545    2.6617262067
 C   -0.1815119058   -2.3721271010    2.8411640380
 O    0.0109144540   -3.0316543276    1.5562155604
 H    0.8727852259    1.9071506833    0.4497867201
 H    0.0288981837    1.7035808190   -1.1085276094
 H   -0.9091549822    1.8937506126    0.3971075475
 H    0.9549413746   -0.4647296046    3.0821272568
 H   -0.7987952191   -0.2666290492    3.1643116300
 H    0.5335658922   -2.8036780793    3.5437331543
 H   -1.1968098631   -2.5984731645    3.1821807386