20

 C   -0.2660005476    1.5585450734   -0.0130777624
 C    0.0296424796    0.0600295053   -0.0027882246
 C    0.7967838664   -0.4842168973   -1.2512750262
 C    1.9250433803   -1.3022137298   -0.5807397010
 C    3.0162951040   -0.3465106419   -0.0486045819
 C    2.2955892015    0.2557130815    1.1958620505
 C    0.9361845613   -0.4770290480    1.1354372787
 O    1.3050098829   -1.7683010370    0.6290473439
 H    0.6361997644    2.1543279578   -0.1846856354
 H   -0.9749329622    1.8067192336   -0.8096998954
 H   -0.7090594996    1.8857795933    0.9343479538
 H   -0.9205065287   -0.4772787269    0.0837986700
 H    0.1590469840   -1.1204854220   -1.8695300629
 H    1.1869202689    0.3173216901   -1.8863051404
 H    2.2907327339   -2.1546641942   -1.1536633372
 H    3.9105443332   -0.9035835948    0.2404038989
 H    3.3101142953    0.4063121628   -0.7847969844
 H    2.8178248542   -0.0031644772    2.1197725888
 H    2.2058141212    1.3434520481    1.1608967248
 H    0.4327143872   -0.5920254070    2.0965504824