18

 C    0.0053499134    1.5138133569    0.0162303902
 N   -0.1120038679    0.0671212416   -0.0366851655
 C   -0.0914024509   -0.6806436824    1.2267278673
 C   -1.4737485286   -1.0954585229    1.7443541235
 O   -2.0198984917   -2.2004363008    1.0712550664
 C   -0.2159939590   -0.6306775229   -1.2069788237
 N   -0.0119084129    0.0864542505   -2.3747807071
 O   -0.5126129202   -1.8242667770   -1.2436845155
 H    1.0504752178    1.8555238947    0.0620910959
 H   -0.4770618921    1.9639699109   -0.8536829067
 H   -0.5080795548    1.8881646957    0.9062240629
 H    0.5175983987   -1.5801858847    1.0929986015
 H    0.4050909645   -0.0443566041    1.9664425483
 H   -1.3751350699   -1.3613110156    2.8066362576
 H   -2.1430134921   -0.2164194364    1.6974282119
 H   -1.6308759721   -2.2224811566    0.1791687392
 H    0.6754647263    0.8238731711   -2.3773733149
 H    0.0232337316   -0.5178072082   -3.1817134614