20

 C    0.0619013332    1.5310702396    0.0536930378
 C   -0.0076519499   -0.0111449072    0.0081460494
 C    0.6881480975   -0.5941254347    1.2576695466
 C   -1.4788385951   -0.4596969023   -0.0183932480
 C    0.7241081415   -0.4951313439   -1.2268737029
 N    0.1132100881   -1.1984701830   -2.1517740737
 O    1.0679891391   -1.4714006443   -3.1298541929
 C    2.2308433970   -0.9192812178   -2.7591762506
 C    2.0978584027   -0.2851960502   -1.5700274739
 H    1.0962269612    1.8881159142    0.0832782997
 H   -0.4230426667    1.9722057907   -0.8223652884
 H   -0.4468346115    1.9043148392    0.9486697837
 H    0.1861352554   -0.2438342227    2.1656260939
 H    0.6555361247   -1.6878094341    1.2511201447
 H    1.7373151460   -0.2874505193    1.3158623474
 H   -1.9989943775   -0.0632190864   -0.8939073936
 H   -1.5611980465   -1.5488977099   -0.0522366404
 H   -1.9896496657   -0.1006902267    0.8810126434
 H    3.0571669484   -1.0608999143   -3.4387667002
 H    2.8535298181    0.2489409831   -1.0193056321