15

 C   -0.0229224214    1.5146647288    0.0868122661
 C    0.0087898964    0.0317919383   -0.0723251645
 C   -0.0052474689   -0.8006627378   -1.1820356074
 N   -0.0476763242   -0.8313837135   -2.5695907437
 C   -0.0246280805   -2.1088747343   -2.8450205257
 N    0.0305992412   -2.9476174848   -1.7375252788
 C    0.0435909574   -2.1049439790   -0.6485058411
 N    0.0862827299   -2.1688793184    0.6725242565
 N    0.0630114682   -0.8340807796    0.9857182718
 H    0.8689798372    1.8914871581    0.6009864596
 H   -0.0646473089    1.9827391540   -0.8985152822
 H   -0.8992035655    1.8478517077    0.6551255426
 H   -0.0453605659   -2.5252388291   -3.8428135680
 H    0.0549485434   -3.9520372308   -1.7484619596
 H    0.0871744717   -0.5827603394    1.9594644344