23

 C   -0.0191792029    1.5673546018    0.0024576421
 C    0.0266542983    0.0381897118    0.0078436860
 C    0.6842406952   -0.5300459709   -1.2610464574
 C    0.7931908370   -2.0533268940   -1.1819386938
 O    1.5045460784   -2.4670361403   -0.0218175216
 C    0.8900024782   -2.0237892001    1.1616040169
 C   -0.1805601295   -2.9189253429    1.7457248677
 C    1.2056796605   -2.8504170782    2.3635204381
 C    0.7659265005   -0.5153147985    1.2405265650
 H    0.9915407449    1.9905254664   -0.0334448322
 H   -0.5686730280    1.9453908960   -0.8664427228
 H   -0.5088442824    1.9535708111    0.9031303704
 H   -1.0060220872   -0.3394057148    0.0449100707
 H    0.1131674485   -0.2469567588   -2.1537645423
 H    1.6914045575   -0.1063823950   -1.3722163930
 H   -0.2136768942   -2.5028523052   -1.1852042116
 H    1.3466471411   -2.4579623838   -2.0343562687
 H   -1.0096512939   -2.4674951796    2.2806991706
 H   -0.4287437707   -3.8181521075    1.1933541052
 H    1.8599974426   -3.7004254600    2.2077580718
 H    1.3261130835   -2.3475804804    3.3171216680
 H    1.7738327221   -0.0793024383    1.2847074025
 H    0.2487193604   -0.2264221789    2.1624285284