23

 C    0.0105851258    1.6322006549    0.0010173828
 C    0.0772290495    0.1086230935    0.0890630565
 C    0.9504362317   -0.5908443973   -1.0164969783
 C    1.8949223622   -1.4114111839   -0.1149616903
 C    0.9038496588   -1.9709413812    0.9469779306
 C    0.7926026139   -0.4674128020    1.3363558614
 C    2.3001426754   -0.3388844761    0.9441605768
 C    3.3303470778   -0.7293353807    1.9866614092
 O    4.5886150198   -0.8147352531    1.3250616513
 H    1.0041854517    2.0897615734    0.0496538242
 H   -0.4483147829    1.9478735576   -0.9423480408
 H   -0.5897491204    2.0502307900    0.8170380290
 H   -0.9477429107   -0.2791959693    0.0575713493
 H    0.3569989384   -1.2189482492   -1.6875232062
 H    1.4945238829    0.1351323019   -1.6296941200
 H    2.6428710975   -2.0378116113   -0.6005193578
 H   -0.0031145829   -2.4659535431    0.5852282155
 H    1.3773328346   -2.5923480775    1.7070168375
 H    0.4200522983   -0.1463552597    2.3117342073
 H    2.6098795409    0.6252400919    0.5269309539
 H    3.3517555738    0.0415285173    2.7749290928
 H    3.0805384441   -1.6819948386    2.4753790688
 H    5.2579615097   -1.0297598375    1.9811744463