21

 C   -0.0485659216    1.5557376473   -0.0194957504
 C    0.0287640017    0.0243243127    0.0479762241
 C    0.8676440789   -0.4202340876    1.2545843384
 C   -1.3870080274   -0.5820377464    0.0571706981
 C   -1.4315431451   -2.1085758635   -0.0681349804
 C   -2.8802781834   -2.6322358669   -0.1441739536
 C   -2.9499160065   -4.0871378779   -0.2620584933
 N   -2.9850265226   -5.2385221687   -0.3550392959
 H    0.9510288387    1.9999412660   -0.0634365143
 H   -0.6043324898    1.8910441947   -0.9014522466
 H   -0.5523867200    1.9619051630    0.8659074120
 H    0.5335502912   -0.3273488183   -0.8637186193
 H    1.0110201131   -1.5042510942    1.2851344019
 H    1.8604869577    0.0401576697    1.2269369033
 H    0.3895859614   -0.1184255129    2.1945797027
 H   -1.9018857865   -0.2759122495    0.9796031060
 H   -1.9613606760   -0.1436600180   -0.7704122072
 H   -0.8904908743   -2.4275064938   -0.9665598763
 H   -0.9323716686   -2.5831973612    0.7820856995
 H   -3.4396759977   -2.3299541504    0.7491465111
 H   -3.3998248034   -2.1894296840   -1.0021959299