16

 C    0.0151323340    1.5949713160   -0.0502942637
 C   -0.0071009897    0.0686784587    0.0766333967
 C    0.7419157327   -0.6576891568   -1.1077849299
 O    1.5887795137   -1.7266167181   -0.5751450620
 C    1.6158906742   -1.5111834140    0.7523755276
 N    2.2914050664   -2.0707127044    1.7369479159
 N    1.8004257174   -1.3775612748    2.7915799145
 N    0.8871365117   -0.4338061624    2.5378167195
 C    0.7632401326   -0.5159960969    1.2202101529
 H    1.0433116775    1.9694182247   -0.0730846098
 H   -0.4896510711    1.9190439244   -0.9663766817
 H   -0.4950131831    2.0583658072    0.7985111401
 H   -1.0511452834   -0.2679348005    0.1083075449
 H    0.0611465352   -1.1149720195   -1.8277528339
 H    1.3966020518    0.0467761452   -1.6328598000
 H    2.1386220502   -1.5460858490    3.7234308288