20

 C    0.0966634058    1.5310184205    0.0964541237
 C    0.0109298315    0.0081258936   -0.0356760876
 C   -1.4418222985   -0.5410947121   -0.0454718476
 C   -2.2417548300   -0.1284163610   -1.3067866911
 C   -3.7094691182   -0.5593059385   -1.2769223866
 C   -1.4214512521   -1.9910039965    0.1054030779
 C   -1.3794790028   -3.1944789916    0.2190032521
 C   -1.3349861331   -4.5523299037    0.3503562238
 N   -1.2971745390   -5.7084233508    0.4618962059
 H    1.1419115792    1.8461335147    0.1654389599
 H   -0.3443030920    2.0487071572   -0.7599893019
 H   -0.4149315040    1.8798297169    1.0003220859
 H    0.5161941417   -0.3238770977   -0.9501917871
 H    0.5467159510   -0.4573020748    0.7980815483
 H   -1.9620212310   -0.1301615650    0.8333618055
 H   -2.1826795372    0.9604386838   -1.3999255388
 H   -1.7424452987   -0.5487140888   -2.1877366589
 H   -4.2333619106   -0.1225423291   -0.4195737011
 H   -4.2265746734   -0.2329252017   -2.1838110237
 H   -3.8052018486   -1.6469110754   -1.2086525786