15

 C   -0.0483841805   -1.1814400884    0.1162820742
 C   -0.0760028759    0.0187906800    0.0578111999
 C   -0.0837851472    1.4451636145   -0.0254627374
 O   -1.0309795822    2.1710969579    0.7653831833
 C   -0.6726457548    3.3272218039   -0.0491395461
 C    0.7484472482    3.6286986722    0.4618153423
 C    1.2917505822    2.3004744639   -0.0850765864
 O    1.1085903890    2.4786417265   -1.5188127905
 C   -0.2825313172    2.3567632882   -1.2561823716
 H   -0.0314813041   -2.2423000335    0.1687582690
 H   -1.4403454953    4.0956057015   -0.0859857304
 H    1.2461850583    4.4744271882   -0.0161695634
 H    0.7576548383    3.7255656722    1.5485029372
 H    2.2659932649    1.9100833756    0.1976181228
 H   -0.9333815836    2.1956271372   -2.1124799828