21

 C    0.1276430972    1.3567200765    0.6808027601
 C   -0.0340685501    0.0415698890   -0.0848215721
 C   -1.3486800645   -0.6682795210    0.2385937244
 C   -1.5505852658   -1.9497887690   -0.5512332232
 O   -0.8003035945   -2.2999831096   -1.4358192254
 C   -2.7679939047   -2.7954231540   -0.2264842314
 C   -3.3123870696   -3.6253657939   -1.3640303769
 C   -2.9518040934   -3.2356365747    1.1747303805
 O   -3.7325755050   -2.1758111366    0.6399701051
 H    1.0754484994    1.8437713700    0.4320986235
 H   -0.6794306143    2.0587350409    0.4426897507
 H    0.1122131355    1.1944737701    1.7646328291
 H    0.0160547356    0.2218058078   -1.1635666437
 H    0.8018608391   -0.6305427053    0.1399047424
 H   -1.4314603821   -0.8822718491    1.3119980068
 H   -2.2127608767   -0.0224329905    0.0277576763
 H   -2.5259628385   -4.2673263806   -1.7665746103
 H   -4.1487791083   -4.2391590989   -1.0223673809
 H   -3.6625141321   -2.9803513944   -2.1757430511
 H   -3.4810881695   -4.1704977184    1.3549587959
 H   -2.2330465377   -2.9541529384    1.9428054304