19

 C    0.2995021767   -1.3072867654   -0.0920500462
 C    0.1453178191   -0.1152723927   -0.0423043172
 C   -0.0496964842    1.3261302542   -0.0023560814
 C   -0.3193020400    1.8721136060    1.4445716949
 C    1.1836839035    2.2282167300    1.5669157717
 C    1.3091116446    2.1206526359    0.0268038672
 C   -1.0197927888    1.7362000457   -1.0963650525
 C   -2.4519062105    1.9305291969   -0.8564106804
 O   -1.5684296330    3.0495828518   -1.0072248401
 H    0.4380265708   -2.3594184050   -0.1291437241
 H   -0.9437861809    2.7665080195    1.3876624764
 H   -0.7404274867    1.1665621851    2.1619992522
 H    1.4314999073    3.1894309929    2.0209999006
 H    1.7477741531    1.4427799996    2.0755106681
 H    2.1817260100    1.6120158250   -0.3852555461
 H    1.1832733819    3.0891038334   -0.4638821769
 H   -0.7024758392    1.4522002123   -2.1008774981
 H   -3.1628211162    1.7851525545   -1.6676822876
 H   -2.8516924075    1.7875939105    0.1459025796