12

 O   -0.0209574417    1.3284803401    0.0094101947
 N    1.3020989204    1.8153560808   -0.0006710385
 C    2.1008334648    0.7872879455   -0.0139265276
 C    1.3629733670   -0.4450322337   -0.0134409557
 C    0.0367792485   -0.0143826220    0.0016270383
 C   -0.9755299221   -0.9687910953    0.0062301692
 N   -0.6300388526   -2.2518804594   -0.0039950224
 C    0.6814028775   -2.5655502569   -0.0183126216
 N    1.7189545328   -1.7337855420   -0.0237969633
 H    3.1697554843    0.9436708824   -0.0233702683
 H   -2.0317340687   -0.7155128279    0.0177542249
 H    0.9104958200   -3.6270185917   -0.0261789397