18

 C   -0.2422332336    1.4775554426    0.0365563225
 C    0.0262184107   -0.0168760164   -0.0458431712
 O   -1.2749111581   -0.7045957778   -0.0196890664
 C   -1.1716169940   -1.6266500790    0.9593160793
 N   -0.1200588593   -1.7062795615    1.6650075048
 C    0.7909316890   -0.6660225939    1.1583427777
 C    2.1007597616   -1.2542456491    0.5763871256
 C    1.9234969521   -1.1144819154   -0.9143329886
 C    0.8166834961   -0.4558445414   -1.2513873435
 H    0.7031938783    2.0284385353    0.0519189620
 H   -0.8228848495    1.8181767338   -0.8260291448
 H   -0.8021221062    1.7186560545    0.9450978875
 H   -2.0471443930   -2.2571671446    1.0756911624
 H    0.9976864069    0.0458427075    1.9638596753
 H    2.9853664539   -0.7063119091    0.9256960627
 H    2.2305585429   -2.2948842989    0.8907055329
 H    2.6473470634   -1.5076758517   -1.6204455997
 H    0.4876459287   -0.2340779649   -2.2602600184