20

 C    0.0875631114    1.4782509188    0.2267003000
 C    0.0435703192   -0.0257691659   -0.0465893988
 C    0.6816634533   -0.4645177519   -1.3912392157
 N   -0.0126923776    0.2136590938   -2.4967176805
 C    2.0965513927   -0.0372397989   -1.4156568849
 N    3.2164869212    0.2487580211   -1.4203034388
 C    0.6180239479   -1.9965224444   -1.5050428700
 C    1.5586190700   -2.7740515397   -2.3466030381
 N    1.5924488758   -2.8913754069   -0.8753908984
 H    1.1189457461    1.8350676432    0.3042297885
 H   -0.4012680236    2.0376985989   -0.5737842682
 H   -0.4180484654    1.7050299803    1.1696691783
 H    0.5385397954   -0.5787569155    0.7582897701
 H   -0.9959669982   -0.3782237275   -0.0675100132
 H    0.3366816029   -0.1347586138   -3.3852514286
 H   -0.9996197868   -0.0274766574   -2.4556684406
 H   -0.4097564497   -2.3493796474   -1.4221643864
 H    1.2098616737   -3.6591714277   -2.8705015373
 H    2.3704878238   -2.2418021582   -2.8353007695
 H    2.3817542780   -2.3552566209   -0.5175423880