17

 C    0.5243702956    1.3739276257   -0.0731104496
 C   -0.0341681660   -0.0372672897   -0.1865434673
 C    0.6080882914   -0.8904595428   -1.3083842809
 C    1.5824758349   -1.7998304327   -0.5656650510
 C    3.0492320089   -1.3860534142   -0.6413595314
 O    3.4534199533   -0.4365101812   -1.2591007317
 C    1.1413956536   -1.7285162688    0.9060009659
 O    1.5436229312   -2.4011501872    1.8108225259
 O    0.2233982149   -0.7524159440    1.0503508878
 H    1.6175090438    1.3596296797   -0.0347499551
 H    0.2234333613    1.9614259407   -0.9462684275
 H    0.1436280786    1.8667280183    0.8250942033
 H   -1.1224686323   -0.0034701476   -0.2838965489
 H   -0.1495353706   -1.4792716092   -1.8291940398
 H    1.1264595675   -0.2641193204   -2.0367985990
 H    1.5380553974   -2.8534681803   -0.8609450752
 H    3.7284723463   -2.0402678562   -0.0578133356