14

 N    0.2705913553    0.9445712249   -0.8892851481
 C    0.1651212802    0.1189788022    0.0534494874
 N   -1.0379505595   -0.4140394252    0.5047038939
 C   -2.3129413547   -0.2365844400   -0.0172287073
 O   -2.6210387607    0.4432346764   -0.9548552501
 O    1.1438611367   -0.4442148634    0.8552812384
 C    2.4612504795    0.0467997487    0.7132057393
 C    3.1431611653   -0.4610246104   -0.4878507881
 N    3.6974008125   -0.8549508130   -1.4212290152
 H    1.2265119136    1.1914109899   -1.1242849013
 H   -0.9528678249   -1.0360366118    1.2941840070
 H   -3.0372225160   -0.8307669855    0.5757813195
 H    2.4776065120    1.1436510796    0.7018679751
 H    3.0028920407   -0.2943933627    1.5988000396