18

 C   -0.0026753766    1.3255911660   -0.2070608915
 O   -0.0747925001    0.0316724798    0.3498053148
 C   -1.3307504616   -0.5552906764    0.2060758663
 C   -1.6038423981   -1.2938984474   -1.1521748524
 N   -0.6730494340   -2.3597153674   -0.6266202478
 C   -1.3354453662   -2.0265042400    0.6899491660
 C   -2.8092840286   -2.4527241881    0.4426731153
 O   -3.7474794778   -1.3863357584    0.2112770537
 C   -3.0053370995   -1.9147255068   -0.9050652656
 H    0.9916517023    1.7172766872    0.0185627962
 H   -0.1378662880    1.3142019219   -1.2988169558
 H   -0.7591759018    1.9979160125    0.2272183958
 H   -2.1247870118    0.0990714088    0.5708893654
 H   -1.3855485062   -0.8669765813   -2.1307158733
 H   -0.9300801671   -3.2918956435   -0.9609011050
 H   -0.8367751402   -2.3420049449    1.6057137756
 H   -3.2216571427   -3.3794233135    0.8283758333
 H   -3.5934569222   -2.3698362385   -1.6957322610