15

 C   -0.1898611363    1.3574930564    0.2021372037
 C    0.0160912673   -0.1017988222   -0.0024105287
 N   -0.2932580428   -0.7796376022   -1.0308829178
 C    0.1238233875   -2.1593262009   -0.7745113774
 C    0.5847183647   -2.1391572163    0.7221522949
 O    0.6146553632   -0.7488579946    1.0449543455
 C   -0.4010386283   -2.8769670256    1.6109589308
 O   -1.1904217301   -2.3511261052    2.3467218983
 H    0.7667013856    1.8486930786    0.4058619667
 H   -0.6451449075    1.7923776459   -0.6866885714
 H   -0.8348761325    1.5253312034    1.0699055804
 H   -0.7051052768   -2.8540926879   -0.9482507644
 H    0.9355470340   -2.4436124588   -1.4528475999
 H    1.5836734727   -2.5656142308    0.8630094902
 H   -0.3526624906   -3.9848908599    1.4894019189