20

 C   -0.1738695787    1.5258794223   -0.0222528876
 N    1.1740395403    0.9598586629    0.0834581053
 C    0.0004623652    0.0408201023    0.0158573149
 C   -0.2828301551   -0.6755601599    1.3197630870
 C    0.5552016467   -1.9498250164    1.5301144006
 C    0.1005783502   -3.1304408174    0.7204145370
 C   -0.2960837539   -3.1138236549   -0.5617109544
 C   -0.3411314756   -1.9894273171   -1.4875330400
 C   -0.1953688613   -0.6705554289   -1.2653385428
 H   -0.5262906199    2.0408510991    0.8674095235
 H   -0.4833590149    1.9824889482   -0.9591586990
 H    1.6362759514    0.9898481944   -0.8229681039
 H   -0.0680663467    0.0246668314    2.1327154613
 H   -1.3490298009   -0.9253087178    1.3732052898
 H    1.6056487737   -1.7133083698    1.3049725130
 H    0.5317706676   -2.2191213517    2.5914805093
 H    0.0954963416   -4.0902164048    1.2317761836
 H   -0.5870527782   -4.0650958027   -1.0018851923
 H   -0.5042731488   -2.2770318769   -2.5242643941
 H   -0.2235092527   -0.0180784423   -2.1372106614