17

 O    0.0909960575    1.4683181106   -0.1837395646
 C    0.0330038129    0.0576474003   -0.0409174745
 C    0.7031602740   -0.4760225233    1.2150062823
 C   -0.0754353629   -1.3209242726    1.8900914567
 C   -1.4182995898   -1.4644467586    1.2487277698
 C   -2.2437559601   -0.1720518828    1.2052166644
 C   -1.3880013968   -0.5251157999    0.0362548044
 C   -2.1331555908   -2.7533199383    1.2233670879
 O   -1.7400332432   -3.7659676818    1.7506155018
 H   -0.3241056164    1.8591390003    0.5932683502
 H    0.5367298582   -0.3199731191   -0.9388688272
 H    1.7013486024   -0.1610413997    1.4956525101
 H    0.1791971944   -1.8526534532    2.7982731171
 H   -3.3171886526   -0.2724013770    1.0765356887
 H   -1.9405766830    0.6047388745    1.8993636134
 H   -1.8836769836   -0.8083989662   -0.8844978347
 H   -3.1018009501   -2.7264567233    0.6710535241