22

 C   -0.4356505112    1.4879871219   -0.0671646479
 C   -0.0137088348    0.0232073044    0.0210330133
 C    0.9170049790   -0.4460046675   -1.1181109382
 C    1.5251164151   -1.7163516148   -0.5682149061
 C    1.3319185242   -1.7811023373    0.9327661428
 C    0.7412603905   -0.4032008737    1.3149768520
 C    1.8375973676    0.5776372642    1.7531002596
 N    2.0718914817   -2.5804838796   -1.3245331502
 O    2.5498624706   -3.6770277087   -0.5757986275
 H    0.4308831865    2.1567655644   -0.0853672539
 H   -1.0125333495    1.6727168717   -0.9794574663
 H   -1.0627188447    1.7742336228    0.7842765047
 H   -0.9206188624   -0.5957030434   -0.0256737925
 H    0.4054630844   -0.6050387998   -2.0704198916
 H    1.7016792729    0.3017517847   -1.2982769563
 H    0.6395221653   -2.6000801299    1.1649870312
 H    2.2668472925   -2.0195065335    1.4489115318
 H    0.0292327317   -0.5052303682    2.1413022612
 H    2.5902619233    0.7277122625    0.9707350677
 H    1.4261638437    1.5574423163    2.0124547815
 H    2.3590404239    0.1932280900    2.6356695065
 H    2.9258186097   -4.2384692163   -1.2616660015