23

 C    0.0141462906    1.6360319895   -0.1708543739
 C    0.0067015032    0.1065274527   -0.0482171812
 C   -1.4215207915   -0.3882736814   -0.3641098411
 C   -2.3495545630   -0.3957935342    0.8469462595
 O   -3.6554150601   -0.7184275730    0.3894360898
 C    1.2050486079   -0.7092892320   -0.6691764260
 C    2.1229026649   -0.1543243089    0.4577845463
 C    0.7892017952   -0.5537299659    1.1568695278
 C    0.8691819405   -1.8653623979    0.3226954001
 H   -0.1388507377    1.9309994330   -1.2154710211
 H   -0.8120495343    2.0672504734    0.4051499121
 H    0.9299052036    2.1145193509    0.1770914416
 H   -1.8656182753    0.2709073068   -1.1187823888
 H   -1.4299989704   -1.3885519870   -0.8031312360
 H   -1.9946571259   -1.1342928749    1.5834335100
 H   -2.3368331838    0.5874791859    1.3442732720
 H   -4.2403687959   -0.7538240357    1.1517662407
 H    1.4480420681   -0.8029331347   -1.7302345396
 H    2.9871053538   -0.7742935333    0.7098957646
 H    2.4053385093    0.8964601049    0.4273916424
 H    0.5569570913   -0.4652745872    2.2207492514
 H   -0.0464850705   -2.4344483266    0.1687816859
 H    1.6998298199   -2.5320236645    0.5676818033