15

 C   -0.2302505187    1.4789067638    0.0214193556
 C    0.0005720839   -0.0003365710   -0.0185454326
 N    0.0628086750   -0.5888454968   -1.1715102603
 N    0.2742398035   -1.9315925200   -1.1364084854
 C    0.4295018574   -2.7335845948   -0.0175986057
 N    0.6291649041   -3.9968643394    0.0272248306
 C    0.3321553769   -1.9109655651    1.2041100962
 O    0.4654722893   -2.5709959677    2.3493174342
 N    0.1323080737   -0.6375622199    1.2037026767
 H    0.5965323476    1.9795450488    0.5364066610
 H   -0.3199353885    1.8755068914   -0.9902263704
 H   -1.1418917087    1.7069670094    0.5838082565
 H    0.3179881565   -2.3609966697   -2.0482454011
 H    0.6686526957   -4.4034770967   -0.9099066976
 H    0.3802234323   -1.9108331522    3.0545414723