21

 O   -0.5313389967    0.4404447655   -0.2426370177
 C   -0.1157020329    1.5710089775   -0.1968294268
 C    1.3326098535    1.9363063159    0.0450197754
 C    1.9394118363    2.7730240491   -1.1212203763
 C    1.7999434456    4.2549450388   -0.7377238634
 C    0.4227729446    4.9388323117   -0.9892705045
 C    0.1595958486    4.9866009401    0.5429749590
 C    1.5332710154    4.3004280438    0.8067060646
 C    1.5180428934    2.8438302101    1.2980376750
 H   -0.8114757932    2.4295974980   -0.3368024024
 H    1.8585653974    0.9854728371    0.1639621622
 H    2.9989279529    2.5100126377   -1.2092809996
 H    1.4784062940    2.5423910819   -2.0881131930
 H    2.6489156572    4.8392441967   -1.0987541275
 H    0.4938465025    5.9209898786   -1.4623383907
 H   -0.2865145891    4.3422658408   -1.5705028586
 H    0.0818556587    5.9965812941    0.9521065080
 H   -0.7105003063    4.4213803690    0.8898394191
 H    2.2191137075    4.9107241979    1.3980236121
 H    0.7540097881    2.6652554138    2.0628853047
 H    2.4818634427    2.5954887318    1.7549928604