17

 N    0.0023760964    1.2150669365   -0.2386761076
 C   -0.0584547103   -0.0792136786    0.1969674289
 O    0.8823823671   -0.6464616071    0.7087175118
 C   -1.4477266566   -0.7275993496    0.0458534780
 N   -1.3384010735   -2.1637939829   -0.1063563016
 C   -1.2618799812   -2.8547128167    0.9348338985
 C   -1.0889103374   -4.3274101319    1.2321829214
 C   -1.1823852330   -3.8654391432    2.7012341762
 O   -1.3459278768   -2.4825001634    2.2630343331
 H    0.8935254712    1.6824014705   -0.1983327212
 H   -0.7210829199    1.6180126460   -0.8077729213
 H   -2.0262798793   -0.4321119418    0.9342724199
 H   -1.9584045034   -0.3162542936   -0.8316558784
 H   -1.8966928789   -4.9683042064    0.8753270123
 H   -0.1281053077   -4.7405155791    0.9219714934
 H   -2.0563706583   -4.2039351676    3.2630632791
 H   -0.2767342485   -3.9763229310    3.3014959374