21

 C   -0.3413764925    1.5224954683    0.2006958394
 C    0.1676923389    0.0993589634   -0.0426810174
 C    0.7336132340   -0.5588294049    1.2197608850
 C    1.2446102485   -1.9860293465    0.9785600113
 C    1.7999824445   -2.6099496874    2.2329458917
 O    0.8623640208   -3.0341964315    3.2230602495
 C    1.6507506161   -4.0445110515    2.5703728413
 C    0.9680335284   -4.9765448878    1.7132125708
 C    0.4272400354   -5.7854976846    1.0071270823
 H    0.4618449348    2.1734514208    0.5636446394
 H   -0.7408034591    1.9665490738   -0.7164297158
 H   -1.1392524010    1.5338701163    0.9514408822
 H   -0.6478632852   -0.5204593036   -0.4377865232
 H    0.9413708223    0.1137752735   -0.8221224445
 H    1.5495274165    0.0603342626    1.6183696559
 H   -0.0380431670   -0.5872249968    1.9993861483
 H    0.4371239905   -2.6167293560    0.5929224744
 H    2.0355943239   -1.9759537942    0.2162058623
 H    2.6777565857   -2.1118637566    2.6527127424
 H    2.4090868718   -4.4920732159    3.2129944123
 H   -0.0582861672   -6.4960279316    0.3846050524