25

 C    0.1041979753    1.5945913397   -0.0572835959
 C    0.1765361853    0.0656511875   -0.0504236763
 C    0.5658151145   -0.5130186743    1.3195569461
 C    0.6221799823   -2.0163494110    1.3376709046
 C    1.8193035454   -2.8006084565    0.8564706458
 C    1.3559490047   -2.9885273333    2.2788495214
 C    2.2366453126   -2.7329911784    3.4686731983
 C    0.1397768996   -3.9259385320    2.2789921058
 C   -0.6044141263   -2.9422536412    1.3191246916
 H    1.0702835731    2.0379032846    0.2097908455
 H   -0.1761352513    1.9782653423   -1.0433907276
 H   -0.6353082485    1.9598915069    0.6643200819
 H   -0.7932099076   -0.3492354802   -0.3542466059
 H    0.9007228983   -0.2759981597   -0.8005650094
 H    1.5412331263   -0.1052478160    1.6181372355
 H   -0.1540895300   -0.1622950107    2.0735261340
 H    1.7084514140   -3.5980036680    0.1227782627
 H    2.7330392403   -2.2231101622    0.7438281756
 H    2.9098356085   -1.8866758595    3.2956263118
 H    1.6458759244   -2.5121357517    4.3656711857
 H    2.8621337493   -3.6062260665    3.6935069075
 H    0.3143755160   -4.9430905275    1.9105525045
 H   -0.3439429339   -3.9921413535    3.2575133198
 H   -1.4840845213   -2.4928170276    1.7886825800
 H   -0.8991183010   -3.3358747014    0.3401387870