15

 O   -0.1345390331    1.5064268442   -0.0812340934
 C    0.0187454079    0.0954412865   -0.1429783100
 C   -1.3386058216   -0.5833411734    0.1026343696
 C   -1.5115837286   -1.5798761881   -1.0498942998
 O   -2.3792200190   -2.4117954151   -1.1626711916
 C   -0.4014919323   -1.3247647062   -2.0139251590
 C   -0.2725972634   -2.0189269064   -3.3157536070
 O    0.6283415016   -1.8145159799   -4.0967207982
 C    0.4252761577   -0.3910434378   -1.5192613875
 H    0.7349271248    1.9140066494   -0.1567707378
 H    0.7641547150   -0.2418556812    0.5948459966
 H   -1.4262471444   -1.0829266403    1.0693328235
 H   -2.1291749713    0.1715192590    0.0441897574
 H   -1.0744130497   -2.7533155267   -3.5252408683
 H    1.3032017865   -0.0153416338   -2.0359828946