21

 C   -0.0835277051    1.5551345777   -0.1903072763
 C   -0.0500972715    0.0411173459    0.0435749097
 C   -1.4153376236   -0.5657845327    0.1670176345
 C   -2.5950246041   -0.2640881956    1.1349862373
 C   -3.0985675410   -1.2053003328    0.0193334115
 O   -2.3716955461   -0.3859805957   -0.9685615643
 C   -1.8115112790   -2.0630906005    0.2190194040
 O   -1.3202072646   -2.8373105154   -0.8206927701
 C   -1.9248423531   -4.1094224767   -0.9121396332
 H    0.9272117038    1.9497880772   -0.3277982477
 H   -0.6700672141    1.7920387296   -1.0819247116
 H   -0.5360331764    2.0790826069    0.6578552219
 H    0.4625452552   -0.4623031136   -0.7843192451
 H    0.5127965678   -0.1973656927    0.9549652621
 H   -2.5391230308   -0.6373872559    2.1616451498
 H   -2.9853912765    0.7505770327    1.0680917102
 H   -4.1181144783   -1.5017599188   -0.2261240403
 H   -1.7145690413   -2.5707846925    1.1915012006
 H   -1.4259955106   -4.6467343964   -1.7216714635
 H   -1.8082146252   -4.6827219691    0.0210484193
 H   -2.9977862755   -4.0378249116   -1.1423273290