15

 C   -0.0938790681    1.4880508077    0.0036343753
 N   -0.0043191788    0.0363721854    0.0187952212
 C    0.0249803808   -0.6973709734   -1.1525410006
 N    0.0437803320   -1.9679513726   -1.2283846989
 C    0.0186499523   -2.7107789988   -0.0056067594
 O   -0.0165013798   -3.9156180274   -0.0306192000
 N    0.0509934869   -1.9984972121    1.2026833858
 C    0.0257321579   -0.7094528428    1.1857737639
 N   -0.0324019095   -0.0077515217    2.3648731493
 H    0.8207353861    1.9553600832    0.3876294388
 H   -0.2313348562    1.8174218716   -1.0278434456
 H   -0.9473945730    1.8287214424    0.5963754017
 H    0.0297761431   -0.0879205888   -2.0569879666
 H    0.1265118682   -0.6032872063    3.1651720544
 H    0.4176977981    0.8926944235    2.4150510207