19

 C    0.5657091012    0.4573305016   -0.8051413217
 C   -0.1507892910    0.1516681568    0.4941834847
 O    0.1259081317    0.7176823893    1.5291080922
 C   -1.2289012112   -0.9239110810    0.4865479486
 C   -2.1531068063   -1.1985676953   -0.7577417387
 C   -1.6616613198   -2.6592807619   -0.7592047066
 C   -2.3831372509   -3.8837606805   -1.2156193742
 O   -0.2368998639   -2.5992812832   -0.9511780848
 C   -0.7511715527   -2.3933184632    0.3696839039
 H    0.8329730177   -0.4674389958   -1.3235588187
 H   -0.1039261107    1.0140394119   -1.4721822744
 H    1.4455995875    1.0687468645   -0.6006316669
 H   -1.8173655335   -0.7964570975    1.3977207755
 H   -3.2105654194   -1.0871668449   -0.5079246989
 H   -1.9377059969   -0.6466393465   -1.6750413658
 H   -2.5114146171   -3.8745986637   -2.3039821017
 H   -1.8204546276   -4.7813249353   -0.9464908439
 H   -3.3771619287   -3.9399816193   -0.7608061181
 H   -0.3649749884   -3.0313458060    1.1567300795