22

 C   -0.3973099434    1.0976140218    0.1305162939
 C    0.3325984798   -0.2396369679    0.2296313878
 C    1.3446798997   -0.5014778327   -0.9190728852
 O    1.1375716394    0.2905248983   -2.0603262185
 C    2.4546273543   -0.0924595912    0.0841622508
 N    1.4892423587   -0.3206755553    1.1730424376
 C    1.5577929252    0.4681591778    2.3917968978
 C    0.7410972771   -0.2203467762    3.4886952223
 O    1.1589108615   -1.5583695205    3.6554200899
 H    0.2878089320    1.9336587179   -0.0323538492
 H   -1.0883492544    1.0709043147   -0.7164805811
 H   -0.9786898033    1.2939524928    1.0366350453
 H   -0.3975847085   -1.0400053409    0.3955928574
 H    1.3994059837   -1.5673050972   -1.1718856297
 H    1.7785104593    0.0349933005   -2.7303871059
 H    3.3647174906   -0.7002279769    0.1418209803
 H    2.7330356855    0.9633799655   -0.0565753888
 H    2.6100762752    0.4920447613    2.6994569497
 H    1.2290140549    1.5130544701    2.2614609690
 H    0.8778425005    0.2993198701    4.4435862875
 H   -0.3331078788   -0.1645999815    3.2382810150
 H    1.3561682912   -1.8572706205    2.7553428942