21

 O    0.0431799062    1.4159498606   -0.0214791807
 C   -0.0120301704    0.0028037257   -0.0056382386
 C   -1.4332237374   -0.4702324895    0.0198041521
 C   -2.5021382652    0.3278912143    0.0230895764
 C   -3.8833981321   -0.2870346860    0.0501879859
 C   -3.7896249299   -1.8226454232    0.0701720804
 C   -2.7450568836   -2.2800244560    1.1309900772
 C   -1.6712196074   -1.9698125622    0.0436034206
 C   -2.7738748007   -2.3094814646   -1.0054189686
 H    0.9673616427    1.6781033379   -0.0454874981
 H    0.4918036389   -0.4288364544   -0.8903126966
 H    0.5170711710   -0.4100319639    0.8732775229
 H   -2.3966747089    1.4066365918    0.0069723757
 H   -4.4407408961    0.0679744173    0.9291745732
 H   -4.4643570324    0.0437162009   -0.8229541742
 H   -4.7797886013   -2.2847015926    0.0899210737
 H   -2.6846163054   -1.7279551923    2.0726154160
 H   -2.8236943469   -3.3522000240    1.3319385412
 H   -0.7440235923   -2.5487447140    0.0390720523
 H   -2.8574720216   -3.3867545587   -1.1745953797
 H   -2.7391098373   -1.7835776669   -1.9631892711