13

 N    0.1333768174    1.3230892304    0.1716279591
 C   -0.0568404197   -0.0360761248    0.0468051313
 C   -1.1535852844   -0.8324425087   -0.0248771562
 N   -0.6347692528   -2.1338864686   -0.0014425749
 N   -1.0328929843   -3.4302167661   -0.0592783722
 C    0.1517547434   -4.0487881952   -0.0277822362
 N    1.2696732888   -3.2578422545    0.0396002560
 C    0.7028996573   -2.0750414495    0.0546175600
 O    1.1082645954   -0.7851551290    0.0963873624
 H    0.9295942738    1.6646397400   -0.3530288169
 H   -0.6969326308    1.8626500952   -0.0290243128
 H   -2.2004450820   -0.6006150044   -0.0844339485
 H    0.2122334480   -5.1261898547   -0.0527745412