14

 C    0.0112579335    1.5469448581    0.0493543541
 C   -0.0398966275    0.0519242563   -0.0306539260
 C   -0.8602504497   -0.8015423722    0.8374766275
 N    0.6271398760   -0.8321529947    1.0465890548
 C    1.1366615733   -1.6602675198   -0.0334102924
 O    1.8471257777   -2.6131708845    0.0279925225
 C    0.5630864084   -0.7875993127   -1.1626831747
 H    1.0061853417    1.9214866030   -0.2120731856
 H   -0.7105574916    1.9944066318   -0.6433190354
 H   -0.2289058865    1.8909495808    1.0590303838
 H   -1.3737332896   -0.3426220607    1.6762605524
 H   -1.3450298205   -1.6926912652    0.4453089900
 H   -0.1214557685   -1.2587251954   -1.8727629251
 H    1.3613906231   -0.2830537546   -1.7140009759