18

 O   -0.0517684274   -0.0577269494   -0.0499914335
 C    0.0042503455    1.1539940011   -0.0223798488
 N    1.1435644102    1.8963601754   -0.1090934311
 C    2.4477661246    1.2492646858   -0.1722624355
 C    3.2344001214    1.5232666931    1.1164288068
 C    3.2417009294    2.9988640123    1.4496726287
 O    3.5393393754    3.8890079632    0.3672806877
 C    2.2076380103    3.8875658700    0.8947214365
 C    1.1255618382    3.3469147735   -0.0283711288
 H   -0.8950518588    1.7947609893    0.0762762279
 H    2.2718054584    0.1825671367   -0.3107614135
 H    3.0011465691    1.6361544212   -1.0352236483
 H    2.7805819367    0.9775136531    1.9524249802
 H    4.2639662206    1.1613659084    1.0127426241
 H    3.7086988759    3.2758040077    2.3952252758
 H    1.9461221397    4.7999021665    1.4301248155
 H    1.2684296550    3.7986939240   -1.0214194342
 H    0.1419287057    3.6610275482    0.3351457205