21

 C   -0.4423576624    1.4708426106   -0.0186665212
 C    0.0659992683    0.0278489483    0.0091509343
 O    0.7674807901   -0.1715738221   -1.2168413727
 C    1.0906609594   -1.5053828279   -1.4636497560
 C    2.3302875659   -1.7539854256   -2.2680659711
 C    2.3121589996   -2.0552826409   -0.7812731125
 C    3.0201668528   -1.1268126825    0.1962553455
 C    2.1305781884   -0.7049807275    1.3480498343
 C    0.8847221640   -0.2400800175    1.2519345211
 H    0.4016071337    2.1656841655   -0.0529962469
 H   -1.0626860577    1.6311593828   -0.9042478985
 H   -1.0373116157    1.6900532629    0.8724039652
 H   -0.8116987756   -0.6453632381    0.0265068942
 H    0.2277562220   -2.1559206710   -1.6149384949
 H    2.3279933146   -2.5764592486   -2.9746901462
 H    2.8830659733   -0.8784002788   -2.5911940805
 H    2.2787917502   -3.1001830820   -0.4859040740
 H    3.9183442675   -1.6177795243    0.5851016732
 H    3.3713843470   -0.2362554855   -0.3369896357
 H    2.5566170552   -0.7945953136    2.3451113239
 H    0.3546070396    0.0062358559    2.1715338085