15

 C   -0.0181294335    1.4837979751    0.0730140875
 C   -0.0006432655   -0.0160631981   -0.0358567265
 N   -0.0228241895   -0.6005033762   -1.1789045572
 C   -0.0056438183   -2.0218970544   -1.2573993619
 O   -0.0255753165   -2.5779607213   -2.3375089803
 C    0.0383614201   -2.7468369755    0.0126187345
 C    0.0596936388   -2.0651276714    1.1771173393
 O    0.0997915737   -2.5600926238    2.4308112775
 N    0.0403658420   -0.6946284362    1.1667107145
 H    0.8767715870    1.8500565486    0.5889357385
 H   -0.0521001051    1.9064060639   -0.9296459672
 H   -0.8921260005    1.8259876027    0.6388650944
 H    0.0529684525   -3.8294444994   -0.0088464065
 H    0.1119231298   -3.5231939649    2.3853066073
 H    0.0569222752   -0.2045530291    2.0475927561