17

 C   -0.0787105676    1.4489975721    0.0346261111
 C   -0.0239630231   -0.0677697058   -0.0054659279
 O    0.9275664879   -0.7082253349    0.3860140097
 N   -1.1316200947   -0.6646910089   -0.6072946850
 C   -2.4877532873   -0.6230946399   -0.0618416493
 C   -3.4328167935   -1.1171181362   -1.1653314529
 C   -2.6106141223   -2.4567024584   -1.2189894265
 C   -1.6965922046   -1.9063992942   -0.1143841295
 H    0.9378192975    1.8432308794    0.0023757823
 H   -0.6720731025    1.8563267949   -0.7866668746
 H   -0.5345563213    1.7731314168    0.9774175693
 H   -2.7145943213    0.0102793381    0.7877502788
 H   -4.4532431774   -1.2722342703   -0.8088932413
 H   -3.4517682856   -0.5097295216   -2.0728888738
 H   -3.2006459978   -3.3147161960   -0.8911108950
 H   -2.1121537996   -2.6946542298   -2.1609717011
 H   -1.1840265968   -2.4392083350    0.6761303559