19

 C   -0.0881416757    1.5674857986    0.0352028406
 C   -0.0059302157    0.0565411281   -0.0162269459
 N   -1.2226652158   -0.5366433001   -0.5193527674
 C    1.3324552984   -0.6216983583   -0.2933503103
 N    2.5261006397    0.1679694299   -0.4024495366
 C    0.7040943348   -0.6594064104    1.1278253084
 N    1.2953849451    0.1303545811    2.1895508787
 C    0.1697745797   -1.9253129987    1.5527989932
 N   -0.2599849620   -2.9528863038    1.8701189160
 H    0.8468655986    2.0267647610    0.3551850352
 H   -0.3382859204    1.9539450710   -0.9598182054
 H   -0.8837746358    1.8679295722    0.7207169013
 H   -1.2512710120   -0.4871938503   -1.5336551093
 H   -1.3108211998   -1.5127575889   -0.2571875309
 H    1.2652484660   -1.5525987503   -0.8574760404
 H    3.3535446593   -0.4187060569   -0.4142092870
 H    2.5298490901    0.7232525645   -1.2513552855
 H    1.6584413267   -0.4906460373    2.9060103322
 H    2.0965349188    0.6162258887    1.7864954630