17

 C   -0.0847682478    1.5988239010    0.0120617972
 C    1.4158759031    1.8363399095   -0.0015102583
 C    2.1120644835    0.8381327432    0.9719364927
 O    3.1213404417    0.5570967958   -0.0252648758
 C    2.0925600339    0.8487338118   -0.9992222867
 C    1.0884405851   -0.3845178842   -0.9959197750
 O    1.5851090512   -1.3296890959   -0.0202128879
 C    1.1079432036   -0.3951195615    0.9752395960
 C   -0.0132083839    0.0811514611    0.0031897619
 H   -0.5745843897    2.0000295676    0.9061121056
 H   -0.5921413207    2.0095749778   -0.8677489645
 H    1.7996817338    2.8551845553    0.0001713614
 H    2.5217685953    1.1310594760    1.9393091237
 H    2.4830733439    1.1520930463   -1.9713053344
 H    0.8679903189   -0.8315434440   -1.9659934649
 H    0.9066824158   -0.8525743608    1.9446220854
 H   -0.9330965979   -0.5011921792    0.0091590335