19

 C    0.1603423950    1.6036268210    0.1616134725
 C   -0.0904115002    0.1044431885   -0.0835468235
 C    0.6484849148   -0.4496348367   -1.2660491769
 C    0.1222066370   -0.8160183245   -2.4863626781
 O   -1.1496552510   -0.8365184801   -2.9672008612
 N    1.1168649783   -1.2319049923   -3.3113438793
 C    2.3324066408   -1.1576041708   -2.6324157308
 C    2.0660503301   -0.6715895434   -1.3772614212
 N    2.9940145725   -0.3468100078   -0.3620911482
 H    1.2287538131    1.7919109111    0.2991435434
 H   -0.1721967800    2.1981886110   -0.6951972434
 H   -0.3717025690    1.9560145235    1.0520642447
 H    0.1764827610   -0.4534204685    0.8260446294
 H   -1.1703401103   -0.0677603900   -0.2041078228
 H   -1.7299106756   -0.4731927524   -2.2911657170
 H    0.9754307027   -1.5573859721   -4.2501466807
 H    3.2558748315   -1.4399855593   -3.1088462003
 H    3.9059239347   -0.7480490603   -0.5454786887
 H    2.6859700848   -0.6732350770    0.5474181821