14

 O    0.4894012661    0.8781034426   -0.6590740571
 C    0.1600883496   -0.2288137388    0.0888558004
 C    0.0239024282   -0.1915132490    1.6372695272
 O    0.5554645708    0.4278019471    2.5046115300
 C   -1.1919676701   -1.1451223859    1.5835064583
 C   -1.3359270319   -0.7502914751    0.0819289373
 O   -2.1234717603    0.4085115581   -0.0982487310
 C   -1.6870928909   -1.8122097751   -0.8570822476
 N   -1.9748419464   -2.6602350152   -1.5883666528
 H   -0.1814523458    1.5531827050   -0.4953594502
 H    0.8350990883   -1.0477124435   -0.1855714052
 H   -0.9122880480   -2.1919705942    1.7319535965
 H   -2.0382721514   -0.8938942261    2.2248765080
 H   -3.0520751483    0.1910913403    0.0407046161