20

 C   -0.4697833050    1.4524908017   -0.0644270695
 N    0.1057128349    0.1319265107    0.0068326766
 C    1.0609129933   -0.3936640086   -0.9912211201
 C    1.8467422820   -1.0785701553    0.1703262940
 O    2.0885559100   -2.4482248096    0.1246990067
 C    3.0269683890   -0.3256069088    0.8195512309
 C    2.8674907920    1.1620950285    0.7668614529
 C    2.0620089033    0.3938555047    1.7784507385
 C    0.8648053054   -0.3813990169    1.1545030315
 H    0.2600958429    2.2805003920   -0.0474015573
 H   -1.0624500676    1.5482063440   -0.9814129028
 H   -1.1502664100    1.5957907515    0.7822615767
 H    0.6017966130   -1.0964013247   -1.7025483541
 H    1.6220538058    0.3531932217   -1.5704740199
 H    1.2687858761   -2.8917129262   -0.1194932326
 H    3.9727087336   -0.8097462482    1.0289830537
 H    3.6981035557    1.7209753229    1.1875296090
 H    2.4024937044    1.6552538466   -0.0785132191
 H    2.1782900986    0.5728275286    2.8410734858
 H    0.2784527226   -0.9386591945    1.8925014790