14

 C   -0.0166427128    1.4859089112    0.0564818437
 C   -0.0014407600    0.0002538817   -0.0471693659
 C   -0.0484854870   -0.8038987810   -1.1476658436
 N   -0.0039081208   -2.1097960502   -0.6696068156
 N   -0.0082265616   -3.4017928319   -1.0941451777
 N    0.0606732136   -4.1082041346   -0.0018714093
 N    0.1104677328   -3.3549419582    1.1329093369
 C    0.0683089286   -2.1159121092    0.6786368540
 N    0.0710929531   -0.8152962689    1.0880105396
 H    0.8937023430    1.8656556434    0.5343632589
 H   -0.0839037308    1.9287757496   -0.9389595174
 H   -0.8727591402    1.8398591514    0.6421592067
 H   -0.1081278904   -0.5614369502   -2.1931812082
 H    0.1180076623   -0.5024939931    2.0414247377