18

 O    0.0599723053    1.2171644638    0.6333280620
 C    0.0386855246    0.0393279910   -0.1550927860
 C   -1.3308631750   -0.6121806266   -0.1428593798
 C   -1.5955853836   -2.0938397052   -0.1671454677
 C   -0.4580254056   -3.0418708658    0.1705229138
 O    0.0309071461   -2.6520556195    1.4677209902
 C   -0.8044432034   -1.7437626878    2.0639521086
 N   -0.6665327514   -1.3137146228    3.2456681180
 C   -1.8553972913   -1.3158008265    1.1024548402
 H   -0.1267459462    0.9544022702    1.5429518278
 H    0.2878169899    0.3531531610   -1.1742298168
 H    0.8152172326   -0.6683999996    0.1656637253
 H   -2.0926233868   -0.0162088858   -0.6378701981
 H   -2.4056655042   -2.4766110084   -0.7759198124
 H   -0.8161404845   -4.0761817763    0.2263827898
 H    0.3843781637   -3.0030202913   -0.5270739115
 H    0.1207946395   -1.7746154664    3.7050716926
 H   -2.8344880896   -1.0752490740    1.4922597141