17

 C   -0.5011184337    1.3630606676    0.0916840451
 N   -0.0043567923   -0.0075053763    0.1068121896
 C    1.3703149081   -0.2513694460   -0.3080676900
 C    0.9505082314   -0.4542039321    1.1080935667
 C    1.4861690260    0.4704030980    2.2137772935
 C    0.4817013959    0.4811672530    3.3821131333
 O   -0.3013058452    1.3711130458    3.5604685720
 C    2.7904068726   -0.0014598728    2.6762175019
 N    3.8045988851   -0.3956034210    3.0659046008
 H    0.2766571918    2.1314625136    0.2236370709
 H   -0.9787609212    1.5395203631   -0.8762965395
 H   -1.2489251238    1.4922456662    0.8778953406
 H    1.5397872773   -1.1030656673   -0.9608270300
 H    2.0022858830    0.6134010235   -0.5118110745
 H    0.7777255725   -1.4695996382    1.4616340429
 H    1.5785865893    1.4968091341    1.8510179707
 H    0.5149510632   -0.4219679214    4.0270620761