20

 C    0.3913198378    1.6662739022    0.0063305486
 N    0.1446077615    0.2325160497    0.0100071221
 C    1.1396634709   -0.7335629655   -0.4347962947
 C    2.5575254567   -0.3354853566   -0.8118225213
 C    3.3876632829    0.2220738852    0.3095332777
 C    2.9993924047    0.2528508103    1.5823760138
 C    1.6836976645   -0.2719847574    2.0875996075
 O    1.0930698551    0.6215704155    3.0383202060
 C    0.7004106041   -0.6832110371    1.0006643390
 H    1.4146384351    1.9806410787    0.2514352198
 H    0.1487953697    2.0569855777   -0.9876569591
 H   -0.3005249749    2.1385324050    0.7132595165
 H    0.7234080493   -1.5112560576   -1.0741362622
 H    3.0625843602   -1.2206399792   -1.2238310436
 H    2.5335020951    0.3843673029   -1.6434829840
 H    4.3663773720    0.6100353610    0.0353315841
 H    3.6500888603    0.6619702711    2.3514777027
 H    1.8846149909   -1.1742818347    2.6822683411
 H    0.9548374264    1.4647956703    2.5948867570
 H   -0.0288631024   -1.4117026917    1.3519103690