13

 N    0.1021448208    1.3298465811    0.1737014009
 C   -0.0755014005   -0.0356942117    0.0570160711
 C   -1.2059896278   -0.8221087464    0.0123580125
 C   -0.6659970465   -2.1428171835    0.0053960775
 C    0.6851142630   -2.0572140868    0.0350851780
 O    1.0942771351   -0.7570113554    0.0701593915
 N    1.2894138746   -3.2756085332   -0.0007652638
 C    0.2608603095   -4.0766293499   -0.0455432469
 O   -0.9783497842   -3.4647703195   -0.0475024484
 H    0.9598694832    1.6552477110   -0.2536212588
 H   -0.6936686981    1.8657177406   -0.1422574335
 H   -2.2252592837   -0.4763852002   -0.0060800985
 H    0.2559251847   -5.1529513062   -0.0767356416