22

 C    0.0544430195    1.5484752152   -0.1122387094
 C    0.0806552954    0.0303643085   -0.0261075055
 O   -1.2429949996   -0.4401770845   -0.2031050653
 C   -1.4585041708   -1.8152540125    0.0507349818
 C   -0.7142056421   -2.7135842095   -0.9370883108
 C   -1.3218862216   -2.2813935788    1.5382544039
 C   -2.7054028477   -2.9744866250    1.4067088482
 C   -2.9741288564   -2.1284977999    0.1332151764
 H    1.0629269881    1.9570524755    0.0042120077
 H   -0.3400730377    1.8681877039   -1.0810596326
 H   -0.5848775573    1.9668010748    0.6704157471
 H    0.7522097808   -0.3784784314   -0.7965424585
 H    0.4750234646   -0.2907169845    0.9513078938
 H    0.3710676186   -2.6493302644   -0.8101861481
 H   -0.9989606544   -3.7605391697   -0.7936350229
 H   -0.9615452133   -2.4285047925   -1.9648196793
 H   -0.4622150303   -2.9029848356    1.8022527702
 H   -1.3634142635   -1.4212415801    2.2118980199
 H   -2.6158342976   -4.0419299729    1.1885942283
 H   -3.4014271901   -2.8530276500    2.2387865374
 H   -3.5256770333   -1.2125802130    0.3570270114
 H   -3.4309998211   -2.6219380038   -0.7284838936