18

 C    0.0418606558    1.5113639320    0.0862709010
 C   -0.0120847123    0.0199965118   -0.0069191998
 C   -0.0113872482   -0.7429200269   -1.1063317038
 C   -0.0815514568   -2.2225526294   -0.7961650724
 C   -0.0733547744   -2.2660382183    0.7350765741
 C   -0.6942620646   -3.4175709894    1.4766171812
 O    1.1309414149   -1.7258918277    1.2975249119
 C   -0.0334785431   -0.8676954410    1.2013551928
 H    0.9451009545    1.8436761663    0.6130726735
 H    0.0349137909    1.9752370354   -0.9037561388
 H   -0.8124247260    1.9065749028    0.6506768988
 H    0.0662289610   -0.3654592022   -2.1207184160
 H   -0.9918366970   -2.6847256696   -1.2013492980
 H    0.7679436619   -2.7782983077   -1.2122702996
 H   -0.1680075560   -4.3522125818    1.2515916129
 H   -0.6414517588   -3.2518859664    2.5555512984
 H   -1.7434632539   -3.5473239351    1.1908102003
 H   -0.4353652779   -0.5353266730    2.1557263135