18

 C    0.1545623439    1.5429309650   -0.3014060946
 C    0.0714463283    0.0340550353   -0.1058771888
 O   -1.2751514605   -0.4214682427   -0.0278527450
 C    0.8040446418   -0.7720185291   -1.2250928916
 N    2.1814822860   -0.3909784327   -1.4441220710
 C    2.5376523139    0.4652289050   -2.4420520498
 O    1.7626751382    1.1419056275   -3.0858772643
 C    0.7558881489   -2.2505303214   -0.8752332877
 O    1.7451878919   -2.9337081396   -0.7662431313
 H    1.1871599388    1.8935038762   -0.2435337376
 H   -0.2338840723    1.8326330432   -1.2831227940
 H   -0.4269900063    2.0388393675    0.4810138940
 H    0.5194052745   -0.2319035575    0.8595693804
 H   -1.7743292961    0.0170174578   -0.7262685951
 H    0.2369954626   -0.6081053178   -2.1528583070
 H    2.8600860032   -1.0753765568   -1.1330022575
 H    3.6337323071    0.4924875825   -2.5930130838
 H   -0.2573484738   -2.6492586223   -0.6904776653