19

 O    0.3938506080    0.9176849048   -0.6712252075
 C    0.1151454375   -0.2078264895    0.1260683735
 C   -0.1051392448   -0.0417904616    1.6568333343
 C   -1.2864106524   -1.0429495896    1.5392903614
 C   -1.3307089313   -0.7461358891    0.0170460599
 C   -2.3884453246    0.2699076547   -0.4562449865
 O   -3.3743180085   -0.5522452514   -1.0691217838
 C   -2.6343075591   -1.5684294210   -1.6877475339
 O   -1.5424694589   -1.8625513679   -0.8329469777
 H    1.3274384361    1.1332581496   -0.5861440163
 H    0.8120271921   -1.0320468202   -0.0784042672
 H    0.7214510040   -0.3007550758    2.3210010224
 H   -0.4457839862    0.9724169931    1.8836534510
 H   -0.9741012804   -2.0751999630    1.7141971600
 H   -2.1926927410   -0.8410631314    2.1139663503
 H   -2.8598161801    0.8282655176    0.3544063018
 H   -1.9508175332    0.9713970932   -1.1784573569
 H   -3.2671168089   -2.4544347868   -1.8000664761
 H   -2.2571592383   -1.2419743757   -2.6737725290