21

 C   -0.0378440842   -1.2267477889   -0.1086662412
 C   -0.0292810450   -0.0253208548   -0.0563325656
 C   -0.0031315287    1.4342570578    0.0363463094
 C   -0.8300019020    1.8958482080    1.2610331782
 C   -1.0933371146    3.4108311053    1.3348735579
 C    0.0982424628    4.2615614597    1.7057593561
 C    1.2692089151    4.2809413959    1.0700030797
 C    1.6286033248    3.4558738025   -0.1429518155
 C    1.4620459911    1.9337787339    0.0166026540
 H   -0.0519698516   -2.2867513900   -0.1669254623
 H   -0.4977926300    1.8345678398   -0.8625388033
 H   -1.7935137174    1.3764803881    1.2227044852
 H   -0.3292450306    1.5608574328    2.1765710947
 H   -1.5021590861    3.7439023249    0.3684695885
 H   -1.8908454294    3.5808685577    2.0652627406
 H   -0.0298458031    4.9168858490    2.5643596395
 H    2.0420960644    4.9511791852    1.4394322632
 H    1.0323390616    3.7858486349   -1.0075867195
 H    2.6707927746    3.6563421076   -0.4113815548
 H    1.9656739071    1.5988316596    0.9305803296
 H    1.9676572812    1.4387137608   -0.8193604843