22

 C    0.9906996785   -2.9111038512    2.9119874640
 C    0.2866496175   -2.0817119198    1.8385622438
 C   -1.1366959013   -2.5741992210    1.5699618697
 O   -1.7921085888   -3.1777797881    2.3999239988
 N   -1.6189920868   -2.2733825315    0.3233738722
 C   -2.9886019784   -2.5079703966   -0.0617884512
 C   -4.0029980047   -1.5756502873    0.5717596692
 C   -3.1866649348   -2.9804506191   -1.4813162738
 C   -3.3699063941   -3.9398377051   -0.3295352173
 H    1.9568741723   -2.4704521637    3.1731794437
 H    0.3701300852   -2.9668247113    3.8084776400
 H    1.1637277542   -3.9351225821    2.5679184268
 H    0.2093326207   -1.0353654764    2.1646578392
 H    0.8631325586   -2.0691377989    0.9058318003
 H   -1.0637624103   -1.6734117508   -0.2669999976
 H   -3.7977416797   -0.5316371953    0.3083352391
 H   -5.0156983730   -1.8157008361    0.2346353763
 H   -3.9708705934   -1.6736545310    1.6603679573
 H   -4.0649391952   -2.6271124325   -2.0104247865
 H   -2.3059614591   -3.1019947953   -2.1030721467
 H   -2.6102930178   -4.6945704778   -0.1705277185
 H   -4.3753980194   -4.2476696190   -0.0661238586