23

 C    0.0608997313    1.5257351210    0.1591710246
 C   -0.0554432599   -0.0061607051   -0.0021538946
 C   -1.5506574141   -0.3918787748    0.0003265170
 C    0.5423868119   -0.4566657364   -1.3587470185
 C    1.9856134299   -0.1061096488   -1.6187407115
 C    3.0337340769   -0.3964854531   -0.8509827190
 C    3.0566216433   -1.1246555498    0.4643490383
 C    1.8393200381   -1.1559340493    1.3488343149
 C    0.6006222547   -0.6933061111    1.1797117529
 H    1.1049417091    1.8455587897    0.1219247079
 H   -0.4871955809    2.0413483239   -0.6386860555
 H   -0.3588858004    1.8497273945    1.1172188708
 H   -2.0802729531    0.0917397595   -0.8274564304
 H   -1.6812040335   -1.4746995765   -0.1007883675
 H   -2.0338669838   -0.0818157096    0.9330529956
 H    0.4099189203   -1.5441513991   -1.4389928079
 H   -0.0715546350   -0.0214286562   -2.1559066713
 H    2.1830328235    0.4175050280   -2.5518122956
 H    4.0192113447   -0.1047149765   -1.2103541361
 H    3.3826954477   -2.1643350785    0.2841092601
 H    3.8761440826   -0.7073401097    1.0690081860
 H    2.0471950197   -1.6251515135    2.3104981847
 H   -0.0703315331   -0.8165520585    2.0301746252