11

 C    0.0266243707    1.4552793497    0.0094182274
 C    0.0168183073    0.0038978801    0.0023702623
 C    0.0006371322   -1.2030236166   -0.0034682441
 C   -0.0335619063   -2.6449029296   -0.0102603113
 O   -1.0656258309   -3.2878658435   -0.0019735063
 C    1.2711040999   -3.2809280478   -0.0279417790
 C    2.3481569203   -3.8178612614   -0.0425988071
 H    1.0479448810    1.8492176580    0.0065849361
 H   -0.4940895613    1.8491104968   -0.8701765028
 H   -0.4861124688    1.8406900145    0.8973733097
 H    3.2958301859   -4.2990929801   -0.0555387847