18

 O   -0.2463815990    1.3620765691   -0.1933793783
 N   -0.0026297008   -0.0075722355    0.0038266305
 C   -1.0789304544   -0.6667589103   -0.0116694179
 C   -2.5545626542   -0.4006647454   -0.2010361108
 N   -2.7640947082   -1.8802076585   -0.2481786306
 C   -1.3462566924   -2.1551275452    0.1444062311
 C   -0.6156123804   -3.1176634190   -0.7693196827
 C   -1.3116423999   -4.3275571019   -1.2656940190
 N   -0.9945817929   -3.2151921814   -2.1808460104
 H    0.6433174899    1.7315775576   -0.1853179740
 H   -3.0151335740    0.1116364091    0.6537609671
 H   -2.8441321912    0.1233795209   -1.1178318076
 H   -3.4486602584   -2.2193660390    0.4167004287
 H   -1.2264949921   -2.4803626671    1.1886773883
 H    0.4560831926   -3.1586700539   -0.5864678601
 H   -0.7579501597   -5.2459590825   -1.4383626248
 H   -2.3508758563   -4.4630849436   -0.9763985010
 H   -1.8489493285   -2.6713875334   -2.3056790984