22

 C   -0.0698543720    1.6014522079    0.1014520954
 C    0.0592511943    0.0713028185    0.0407463252
 C   -1.1695820486   -0.5309136098   -0.6472346882
 C    1.2938096744   -0.7518033583   -0.2967010974
 C    2.5905530148   -0.3636388503    0.4188768698
 C    2.5362239266    0.7877528685    1.3399776179
 N    1.9618728221   -0.5021030689    1.7816686801
 C    0.6487525769   -0.8670590178    1.0798873533
 C   -0.0730969904   -1.9591278700    1.8138122027
 H    0.7313451669    2.1112451837   -0.4401522354
 H   -1.0119491460    1.9079731754   -0.3633066537
 H   -0.0894336034    1.9808651702    1.1269526296
 H   -1.2969934381   -0.0735566341   -1.6346587559
 H   -1.0872398894   -1.6105127199   -0.7928358473
 H   -2.0802908562   -0.3347851075   -0.0700255755
 H    1.2859796575   -1.4570745512   -1.1198682863
 H    3.5229092923   -0.8760396681    0.1991908081
 H    3.4552165230    0.9980622538    1.8828040781
 H    1.9257571390    1.6571676032    1.1647556675
 H   -0.3875842207   -1.5898308486    2.7978071248
 H   -0.9598528958   -2.3117527830    1.2845532140
 H    0.5928224628   -2.8105107037    1.9864443633