19

 C   -0.1610770133    1.6411250982    0.1555956979
 C   -0.0035050418    0.1393543623    0.0169057970
 C   -1.2217399428   -0.5750680928   -0.5532312323
 C   -1.5037791168   -0.1776125216   -1.9898885438
 O   -2.5809050683    0.1506379560   -2.4144206693
 C    1.3570994430   -0.4179167538   -0.3114251243
 C    0.7858758731   -0.6195335432    1.0864543635
 C    1.3598922828    0.0526224873    2.2138787218
 C    1.8369054327    0.6064603476    3.1698160826
 H    0.7206772493    2.0920489069    0.6154305926
 H   -0.3155326964    2.1105405725   -0.8224521545
 H   -1.0263156582    1.8853176370    0.7815383019
 H   -1.0451943791   -1.6602806712   -0.5530732664
 H   -2.1201435624   -0.3818792925    0.0417164140
 H   -0.6116069060   -0.2177474191   -2.6575306060
 H    1.4326641485   -1.2955782085   -0.9447103737
 H    2.1814813129    0.2791988067   -0.4072568250
 H    0.4227601265   -1.6207601951    1.3029441697
 H    2.2582251763    1.0939098334    4.0136459543