15

 C   -0.4608872364    1.3780129183    0.0770608753
 C    0.1383202293   -0.0054495355    0.0565193256
 O    0.7042754218   -0.5049483425    0.9940122286
 C    0.0426144288   -0.7940635634   -1.2890124237
 C    0.4371083196   -2.2755720386   -1.0804935054
 C    0.7043789235   -2.9654746208   -2.3379119134
 N    0.9282053565   -3.4994340220   -3.3373590791
 C   -1.2739460237   -0.6485983314   -1.9063655966
 N   -2.3291107134   -0.5260720120   -2.3612736441
 H   -0.1234437750    1.9618572353   -0.7859379372
 H   -1.5513395589    1.3095156506    0.0017891474
 H   -0.1855969828    1.8799195074    1.0044975733
 H    0.7745420057   -0.3220365604   -1.9596179382
 H    1.3261091980   -2.2985067595   -0.4451007743
 H   -0.3540805932   -2.7987898556   -0.5355863881