25

 C    0.1224154199    1.5594715699    0.1864912297
 C    0.0391675635    0.0394557394    0.0229701144
 C    0.8389454996   -0.4814324426   -1.1791614773
 C    0.7960176122   -2.0013091280   -1.3140842798
 C   -0.5091956892   -2.6668401354   -1.8696376731
 C    0.0371798991   -2.3608092981   -3.2939103196
 C    1.4056719679   -2.6381109822   -2.6063327179
 C    1.2925362810   -4.1425865891   -2.2888629003
 C   -0.1716249419   -4.1644050411   -1.7247853109
 H    1.1595658670    1.8864512331    0.3221214128
 H   -0.2717639603    2.0755560576   -0.6962172276
 H   -0.4502518188    1.9013153363    1.0544329667
 H    0.4035060035   -0.4475849267    0.9373827898
 H   -1.0110882729   -0.2611713480   -0.0810092496
 H    0.4751362901    0.0096033661   -2.0895294231
 H    1.8875509348   -0.1698477910   -1.0699131332
 H    1.1624085924   -2.4433321853   -0.3772858643
 H   -1.5029185758   -2.3471156293   -1.5517871358
 H   -0.2672361355   -3.0260690598   -4.1083595944
 H   -0.0963439947   -1.3238856544   -3.6023182397
 H    2.3472090301   -2.2828218281   -3.0290930854
 H    1.4091814932   -4.7663021384   -3.1799809884
 H    2.0320674699   -4.4689818757   -1.5516945804
 H   -0.2167013784   -4.5022718704   -0.6851964707
 H   -0.8397938066   -4.8001885190   -2.3131206319