15

 O   -0.7190198159    0.8484427843    0.7314727695
 C    0.0484469259    0.9738510259   -0.1862594692
 C    1.3180836934    1.8062727467   -0.1178353946
 C    1.3717671364    2.8830256309   -1.1892519749
 O    2.5939272450    3.5816329245   -1.1118543489
 C    2.9451370831    3.9411571958   -2.4344473663
 C    2.2071522024    2.9349793881   -3.3095216820
 O    2.3294537958    2.7044782565   -4.4721854199
 O    1.3186034916    2.2952824562   -2.4953725378
 H   -0.1232061207    0.4694282021   -1.1605081873
 H    1.3910486902    2.2709735060    0.8681172236
 H    2.1819082020    1.1476658018   -0.2719922804
 H    0.5211289879    3.5781812191   -1.1050776193
 H    2.6245057464    4.9615096893   -2.6928821868
 H    4.0262761062    3.8654301128   -2.5663365359