22

 C   -0.1231068894    1.5486892368   -0.0080872432
 C    0.0046288896    0.0232340366    0.0162398921
 C    0.7224880314   -0.4784270201   -1.2327383905
 O    0.9263545913   -1.8971150799   -1.2499015304
 C    1.3992515122   -2.5233419847   -0.1267922209
 N    2.1458315071   -3.5420251907   -0.2189714236
 C    0.8780174158   -2.0266022408    1.2115698210
 C    1.6808592727   -2.5800403188    2.3897597768
 C    0.7660604460   -0.4927339497    1.2401057747
 H    0.8627529057    2.0276114428   -0.0202840692
 H   -0.6727816269    1.8919628088   -0.8910192094
 H   -0.6555369728    1.9085386970    0.8776528846
 H   -1.0025852578   -0.4164458623    0.0246195477
 H    0.1518891325   -0.2610045134   -2.1398546250
 H    1.7001374259    0.0196367387   -1.3229000469
 H    2.3491920601   -3.7302714896   -1.2031711581
 H   -0.1490630450   -2.4192952518    1.2756415170
 H    2.7130109212   -2.2173457306    2.3620587330
 H    1.2297818661   -2.2610496325    3.3351991878
 H    1.7160741675   -3.6696665333    2.3612855717
 H    1.7720354094   -0.0485613306    1.2580286215
 H    0.2703116474   -0.1808704119    2.1663786492