17

 C   -0.1659993602    1.3817731944    0.1905467968
 C    0.0020909727   -0.0898308792    0.0310242880
 O   -1.0527342646   -0.8572552711   -0.5563131906
 C   -0.3410313867   -2.0376917189   -0.1014325969
 C    0.4883565688   -1.1846074736    0.9194164197
 C    1.3294369151   -0.8179163335   -0.3021159507
 C    0.8925127195   -2.0926186942   -1.0486385366
 C    1.8253064349   -3.2369453557   -0.7683495035
 O    1.7354258853   -3.9683596937    0.1882909536
 H    0.7069391753    1.8111257682    0.6908386240
 H   -0.2742059025    1.8671353676   -0.7850464315
 H   -1.0537835265    1.6083814408    0.7888434468
 H   -0.9677939633   -2.9034405449    0.0917244997
 H    0.7141512781   -1.2718038642    1.9721731807
 H    2.2855860207   -0.3106502498   -0.3372112595
 H    0.6925281187   -1.9993406225   -2.1228461192
 H    2.6439973949   -3.3686364295   -1.5122287207