17

 O    0.0340984020   -0.0115533112    0.2619572872
 C    0.0297437173    1.1803008518    0.1339790526
 C   -1.1370736007    2.1784729821    0.0625331940
 C   -0.2829781341    3.4426540952   -0.1756856779
 C   -0.8810980882    4.4992793231   -1.1398708781
 C   -0.2770971342    3.5405511695   -2.2835371837
 C    0.7617476177    3.1194045532   -1.1783538683
 C    1.1980971271    2.1507683339   -0.0117274968
 O    0.7354004909    3.2359530990    0.9169100400
 H   -1.8538047252    1.9214524923   -0.7217896925
 H   -1.6707055908    2.2464640668    1.0141124942
 H   -1.9608045622    4.6664577895   -1.1212240192
 H   -0.3511218666    5.4532792184   -1.1247892546
 H   -0.9888082425    2.7726833388   -2.5868267438
 H    0.1320351825    4.0293030442   -3.1685664026
 H    1.5077707473    3.9180332967   -1.1438695725
 H    2.2179052495    1.8153624866    0.1656932422