15

 O    0.0351408338   -0.0427494854   -0.3727019742
 C    0.0272364929    1.0841379190    0.0565359685
 C    1.2382609034    1.9486270551    0.0744282136
 C    1.1113869983    3.4567299778   -0.1588152833
 C   -0.1555499970    4.0730709965   -0.4208069838
 C   -1.2006146493    4.6173953593   -0.6576322989
 C    1.4657529061    2.9316544077    1.2262860822
 C    0.5457211744    3.0339766503    2.3202319198
 C   -0.1986655826    3.1327745894    3.2586682751
 H   -0.8909038719    1.5482262483    0.4673733457
 H    2.1222383121    1.4710160697   -0.3327881333
 H    1.9452617833    3.8890612799   -0.7041261888
 H   -2.1277796471    5.0930836473   -0.8624558626
 H    2.5094625537    3.0530670005    1.5011510700
 H   -0.8624906102    3.2182372547    4.0832284099