23

 C    0.1202890291    1.5650077698   -0.0260904627
 C    0.0334128272    0.0377268005    0.0262602592
 C   -1.4144962662   -0.5121962582    0.0145252583
 C   -1.4781513417   -2.0506202567   -0.0981677021
 C   -1.5175258200   -2.5557411683    1.3599359879
 C   -2.4092701432   -1.5336367168    2.0817697505
 C   -2.2780938279   -1.4276329784    3.5984001768
 C   -2.1174350872   -0.2143043287    1.3500794469
 O   -2.3873963585    0.8820254013    1.7775595714
 H    1.1639344596    1.8940574458   -0.0010512825
 H   -0.3294524474    1.9483755420   -0.9488136408
 H   -0.4092863983    2.0206985978    0.8131609803
 H    0.5569519113   -0.3921230464   -0.8366859194
 H    0.5603612251   -0.3347382776    0.9146159690
 H   -1.9597722366   -0.0117096198   -0.7932764136
 H   -2.3975277795   -2.3511364716   -0.6139313575
 H   -0.6402480221   -2.4641121948   -0.6666434677
 H   -1.8871609333   -3.5812105109    1.4428431106
 H   -0.5107843592   -2.5393863266    1.7960927364
 H   -3.4589402881   -1.7587004177    1.8304341959
 H   -1.2339067053   -1.2696887460    3.8893959914
 H   -2.8590514340   -0.5784903819    3.9677994834
 H   -2.6319173737   -2.3368602669    4.0933862483