14

 C   -0.1174842389    1.1955043806   -0.6744711351
 C   -0.0840506614   -0.0933152495    0.0621802941
 C   -0.9957808025   -0.9944822800    0.5417186152
 N   -2.3884004517   -1.0933890837    0.5293839578
 C   -3.2668740236   -0.5422618590   -0.3602905474
 O   -2.9841535989    0.2090377166   -1.2662606202
 N   -0.3013856312   -1.9800501128    1.1983580667
 N    0.9391823248   -1.7499647462    1.1476931660
 O    1.1249398366   -0.5624764950    0.4239666654
 H    0.6711405683    1.2132043898   -1.4321005554
 H   -1.0887115751    1.3219175012   -1.1493894697
 H    0.0632495064    2.0318893076    0.0104612075
 H   -2.7534142936   -1.7722505828    1.1823922865
 H   -4.3013001993   -0.8658874368   -0.1426342614