20

 C    0.1305794665    1.5836022325   -0.0469600752
 C    0.0445050058    0.0672794095    0.0321687114
 C    0.9156931236   -0.7766656414   -0.9541851491
 C    1.4097027618   -1.6457240617    0.2240648459
 O    2.8241838950   -1.5355687512    0.4962168311
 C    2.9169525465   -0.4986870437    1.3682715032
 N    1.8698411616    0.0609220288    1.8146940766
 C    0.7244360118   -0.6720305679    1.2357357516
 C   -0.1812669986   -1.1996567396    2.3349669469
 H    1.1644201465    1.9242676768    0.0575054861
 H   -0.2567909964    1.9413749842   -1.0073463650
 H   -0.4539816674    2.0578309606    0.7482038448
 H   -1.0040135960   -0.2451774499   -0.0276284116
 H    0.3778797571   -1.3038591729   -1.7452834162
 H    1.7349897976   -0.2116441243   -1.4066884813
 H    1.1436940440   -2.7032814220    0.2186270308
 H    3.9340992225   -0.2267248521    1.6299479162
 H   -0.6191779777   -0.3685272208    2.8968491866
 H   -0.9958835829   -1.8004961676    1.9172550333
 H    0.3805852088   -1.8211305374    3.0396188738