16

 C    0.0249353447    1.5626071242    0.0106058495
 O    1.1790712689    0.6902121438   -0.0058902132
 C   -0.0962420054    0.1113099417    0.0034494611
 C   -0.5497235080   -0.9710518100    0.9884345515
 C   -2.0815433739   -0.9761117209    0.8014624336
 C   -2.0971346524   -0.9670765188   -0.7674278488
 C   -0.5693329724   -0.9596831933   -0.9847343582
 O   -0.1180337272   -1.9547768111   -0.0082379468
 H   -0.1190751627    2.1198602373    0.9351468301
 H   -0.1373573868    2.1304561331   -0.9044104857
 H   -0.1145973865   -1.1068055059    1.9773948879
 H   -2.5279506155   -1.8793292040    1.2212298731
 H   -2.5685543809   -0.1038132245    1.2455592636
 H   -2.5518937184   -1.8654544605   -1.1886139078
 H   -2.5927810450   -0.0897810933   -1.1916843419
 H   -0.1539611184   -1.0839829078   -1.9836448382