16

 N    0.6338035650    0.0803129591   -0.8528318877
 C   -0.3432277886    0.6043257026   -0.0829836874
 O   -0.3143357657    1.7037409529    0.4384858156
 C   -1.5530952272   -0.3527242092    0.0971817640
 O   -1.4220463414   -1.5353270694   -0.6470107599
 C   -1.7194006220   -0.6940509140    1.5829035327
 O   -1.5507189072   -1.8439544708    1.9319443049
 C   -2.1897819222    0.4054917346    2.5229978429
 O   -3.5451970191    0.7123354113    2.2103462955
 H    1.4336357450    0.6459559486   -1.0817897561
 H    0.4730871342   -0.8062802595   -1.3024304444
 H   -2.4373392596    0.2159622065   -0.2179198485
 H   -1.3526461077   -2.2404120958    0.0213916162
 H   -2.0613701193    0.0689118039    3.5585179359
 H   -1.6131497760    1.3145750820    2.3406886939
 H   -4.0862780982   -0.0367382828    2.4832459822