15

 O   -0.0746818422    1.4576698456    0.0271627765
 C    0.0429126660    0.0424782451   -0.0163915029
 C   -1.3701399145   -0.5774471598   -0.0556904112
 C   -1.2835445221   -1.7858424913   -1.0159870504
 C   -0.0311308177   -1.4805222275   -1.8214024796
 C    0.6857626215   -0.4891521101   -1.2788821865
 C    0.3203532621   -2.2128585995   -2.9890172822
 N    0.5784210571   -2.8271391190   -3.9367140396
 H    0.7893910402    1.8316990157    0.2262429656
 H    0.6096513689   -0.3129635475    0.8604945524
 H   -1.7409877813   -0.8445898816    0.9353610423
 H   -2.0351480420    0.1863694846   -0.4688889211
 H   -1.1620694475   -2.7329538878   -0.4763265622
 H   -2.1676261061   -1.8978573668   -1.6502532223
 H    1.6290003075   -0.1187329902   -1.6636886886