17

 C   -0.0104101389    1.5615626166   -0.0099585830
 C    0.0336313292    0.0340950415    0.0436678432
 C    0.7978388815   -0.5956823391   -1.1478909880
 O    1.3521358130   -1.8282230923   -0.6946090701
 C    1.5319373281   -1.7324206317    0.6957264962
 C    2.2706823785   -0.5408098242    1.2494634968
 C    0.7484873665   -0.5773339277    1.2433746980
 H    0.9988274939    1.9850310526    0.0309448409
 H   -0.4853450470    1.9127384380   -0.9328006725
 H   -0.5786125516    1.9710458153    0.8310117565
 H   -0.9939715775   -0.3514944065    0.0473010854
 H    0.1584823353   -0.8105291855   -2.0088829625
 H    1.5962707322    0.0827847689   -1.4855573026
 H    1.6030614792   -2.7069829904    1.1636842519
 H    2.7617831686   -0.6625286045    2.2089540808
 H    2.7936508665    0.1188964806    0.5651296931
 H    0.2205047124   -0.6370509015    2.1881558757