21

 C   -0.0321704740    1.3161756613   -0.0015603969
 O    0.0518497009   -0.0947072880    0.0674476958
 C    0.7115027023   -0.5725316304    1.1740179749
 C    2.2085084922   -0.3695274183    1.5988122376
 C    1.5856578128   -1.3575735757    2.6323142624
 C    0.3348905595   -0.4277908624    2.6905616604
 C    0.9133343789   -2.0659670956    1.4406932626
 C   -0.0071681274   -3.2264593570    1.3212005045
 C    1.3161889035   -3.1852990227    0.5501002117
 H    0.9634482228    1.7796813872   -0.0413803333
 H   -0.5737875599    1.5592618575   -0.9181414385
 H   -0.5781174697    1.7318131084    0.8568499115
 H    2.9647677386   -0.7781482004    0.9253880591
 H    2.4852883153    0.6153733082    1.9845742257
 H    2.0916397585   -1.8207737076    3.4759406741
 H    0.4883914436    0.5532759596    3.1481577250
 H   -0.6036693564   -0.8891172452    3.0046993256
 H   -0.0851421243   -3.9256408367    2.1481590132
 H   -0.9224379756   -3.1043825633    0.7503847978
 H    1.2645937978   -3.0363706472   -0.5239617685
 H    2.1059198905   -3.8574882717    0.8714756653