19

 C    0.0074782723    1.5722486097   -0.0200976733
 C    0.0371258934    0.0461648596    0.0356771418
 C    0.7939765585   -0.6052355877   -1.1450613346
 O    1.3265575650   -1.8429494203   -0.6749062643
 C    1.5409459764   -1.7238610689    0.7008051002
 C    2.2799057901   -0.5301638627    1.2278981539
 C    0.7447955468   -0.5562688485    1.2580290798
 C    0.0531658743   -0.6002983905    2.5075106351
 C   -0.5413653116   -0.6234218559    3.5540290943
 H    1.0209007266    1.9876285618   -0.0093303930
 H   -0.4907484494    1.9237598005   -0.9298870691
 H   -0.5336357715    1.9810037190    0.8380484152
 H   -0.9913787788   -0.3323280748    0.0535371647
 H    0.1510860312   -0.8226800605   -2.0019234323
 H    1.6040092407    0.0539237811   -1.4910938746
 H    1.6018622324   -2.6846462986    1.1967250163
 H    2.7748018521   -0.6381327503    2.1858834160
 H    2.7752188987    0.1409196105    0.5348574613
 H   -1.0628336673   -0.6504500633    4.4782706627