20

 C   -0.1625530340    1.4790133463   -0.0732028647
 C    0.0544225887   -0.0061771109   -0.0642555967
 C   -0.7133216638   -0.9924278834   -0.9538387231
 C   -0.9031210201   -1.8555294691    0.3134151959
 N   -0.1565034158   -0.8714551602    1.1883353166
 C    1.1923551073   -0.6561602939    0.6209093771
 C    2.1540633139   -1.6723803478    0.0799140646
 C    2.3794184094   -2.9821268281    0.7080122498
 O    1.7069881337   -2.8715648798   -0.5515329933
 H    0.2902240658    1.9327748551   -0.9633044675
 H   -1.2311427700    1.7203368446   -0.0828165889
 H    0.2829128805    1.9461746569    0.8099764389
 H   -1.6479044762   -0.5732426157   -1.3330942415
 H   -0.1580312078   -1.4322204095   -1.7846184650
 H   -1.9385767744   -1.8904109154    0.6586363624
 H   -0.4909012452   -2.8631267494    0.2967263436
 H    1.7395937301    0.0303938288    1.2700176976
 H    3.0082706475   -1.2113083128   -0.4224952317
 H    3.3648251030   -3.4427530372    0.6693635346
 H    1.7497707576   -3.2814929086    1.5438923013