18

 C   -0.0955862001    1.5024021513    0.0741792338
 C   -0.0412191764    0.0146669778   -0.0268461042
 C   -0.0074502415   -0.7413675962   -1.1371934259
 C    0.0441969568   -2.1618998979   -0.8056883646
 C    0.0373057432   -2.2999602445    0.7060449230
 C    0.0303365926   -0.8393300032    1.2300791225
 O    1.1545615380   -0.4992672107    2.0395273435
 N    0.0781018646   -3.1851599838   -1.5719459043
 O    0.0534439792   -2.8121296053   -2.9300618263
 H    0.7070218927    1.8674143798    0.7243821448
 H   -0.0116640127    1.9845342998   -0.9026396456
 H   -1.0374055464    1.8252894776    0.5372963845
 H   -0.0214299141   -0.3796308390   -2.1562850914
 H   -0.8382613513   -2.8612510671    1.0438024111
 H    0.9184665789   -2.8312757528    1.0772460356
 H   -0.8286946214   -0.6503658418    1.8838617649
 H    1.9451913454   -0.6245721966    1.5015311018
 H    0.0787455825   -3.6666619974   -3.3722739733