16

 N   -0.2085749436    1.5605270274    0.0415129879
 C   -0.0729054810    0.1076072221   -0.0371314959
 C   -1.4037840173   -0.5118268474    0.1105522719
 N   -2.4342778492   -1.0196518629    0.2277843649
 C    0.5934189521   -0.4296863173   -1.3298250029
 O   -0.0858351675    0.1580274244   -2.4185965445
 C    2.0832287020   -0.0957287061   -1.3944049562
 O    2.5151858823   -0.5110543371   -2.6843083079
 H    0.6970407608    1.9849500004    0.2095971151
 H   -0.5404493728    1.8977405726   -0.8581756708
 H    0.5250462417   -0.2294953485    0.8188840939
 H    0.4893991447   -1.5260586016   -1.3496806039
 H    0.4779887779    0.0170482717   -3.1898910043
 H    2.2265046773    0.9861164009   -1.2612972010
 H    2.6273627447   -0.6238980351   -0.5969895624
 H    3.3746039580   -0.1218762534   -2.8679727341