21

 C    0.0947827091    1.4824212073    0.0725560932
 C   -0.0162160682   -0.0429062475   -0.0397242397
 N   -1.3743010537   -0.5470057572   -0.0080343149
 C   -2.2444799514   -0.4582621114    1.1491963191
 C   -3.5344446197   -1.1469502509    0.6465650533
 C   -4.8151833679   -0.6093845063    1.2725459197
 N   -3.4370971626   -0.8840254349   -0.7875044571
 C   -2.1059624828   -0.7198455896   -1.1688652562
 O   -1.6744395563   -0.7193625761   -2.3030916162
 H    1.1452357966    1.7874837442    0.0326753922
 H   -0.4332324438    1.9671994993   -0.7537794662
 H   -0.3228745768    1.8536295133    1.0141587958
 H    0.4059763338   -0.3772653936   -0.9908202000
 H    0.5524281745   -0.5237788210    0.7661607598
 H   -1.8166026562   -0.9664180481    2.0198664344
 H   -2.4534987257    0.5854254729    1.4330386260
 H   -3.4583062893   -2.2272926385    0.8495420985
 H   -4.9195199005    0.4613389281    1.0743290859
 H   -5.6948377491   -1.1191533224    0.8667984137
 H   -4.8092817621   -0.7683985306    2.3561089200
 H   -4.0109238279   -1.4050574473   -1.4332212411