18

 C   -0.1225671412    1.5870326871   -0.0368506331
 C   -0.0175447126    0.0698168398   -0.0455629582
 C    0.7670036114   -0.5971310354   -1.1811823511
 O    2.1406693166   -0.1758758573   -1.0491570056
 C    1.6791243663   -1.2918868252   -0.2554294564
 C    2.4368045158   -2.5760231207   -0.3297256662
 C    1.0028510764   -0.6215465603    0.9586765776
 O    1.8264218479    0.1957946270    1.7438440700
 H    0.8450737870    2.0476685642   -0.2532982800
 H   -0.8359601878    1.9353307843   -0.7911518209
 H   -0.4573193810    1.9482940774    0.9401095928
 H   -1.0048064642   -0.3919750172    0.0640062324
 H    0.4414104240   -0.8783322488   -2.1770054773
 H    2.7040030437   -2.8066978056   -1.3644303690
 H    3.3593374754   -2.5131875096    0.2578828978
 H    1.8392956525   -3.4006217909    0.0722382097
 H    0.5081290299   -1.3243545846    1.6338930739
 H    2.3799108498    0.6864028559    1.1224627038