21

 C   -0.0902357658    1.4801150065    0.0109854867
 C    0.0162819450   -0.0187720848   -0.0266773477
 C    1.1152802034   -0.7578609509   -0.7898636825
 C    0.6656642862   -2.1989158418   -0.4475625982
 C    0.5679780086   -2.1388997226    1.0990930965
 C   -0.3249766400   -0.9062009631    1.1751785142
 C   -1.1996123889   -0.9185819257   -0.0722812450
 O   -2.4676844023   -0.3535905866   -0.1206748028
 C   -0.8244516282   -2.1667594582   -0.8650582740
 H    0.7692598382    1.9303093596    0.5209966158
 H   -0.1326747351    1.8987119732   -1.0013709947
 H   -0.9997763796    1.7920555997    0.5314475082
 H    1.0915552845   -0.5520313240   -1.8661760013
 H    2.1201617887   -0.5276653468   -0.4173848964
 H    1.2667553040   -3.0074818908   -0.8629416402
 H    0.1041502591   -3.0352428172    1.5262132364
 H    1.5440747832   -1.9968080699    1.5758475366
 H   -0.6798290701   -0.4708907569    2.1011198906
 H   -3.0631210993   -0.9052017099    0.3980961727
 H   -0.9659030686   -2.0378770395   -1.9432551085
 H   -1.3745223728   -3.0594248902   -0.5435614863