18

 C   -0.0374677793    1.3417101827    0.0498982675
 O    0.0270671242   -0.0866448384   -0.0375817744
 C    0.6533648253   -0.5673195875   -1.1364679564
 O    1.1287880163    0.1292853575   -1.9898197622
 C    0.6552030236   -2.1036318998   -1.1124980389
 C    1.4169349194   -2.5963039324    0.1308525611
 C   -0.7954831715   -2.6178878401   -1.1231840181
 O    1.3307425406   -2.4904423922   -2.2975392397
 H    0.9667761456    1.7724130650    0.0740623006
 H   -0.5748195847    1.7567340766   -0.8065474397
 H   -0.5687968542    1.5593986922    0.9765490991
 H    0.9519697012   -2.2392363896    1.0520770281
 H    1.4208342169   -3.6922944329    0.1491916451
 H    2.4538248737   -2.2508470436    0.0979366011
 H   -1.3047770002   -2.2875966013   -2.0326276015
 H   -0.7971065125   -3.7139312290   -1.1077187294
 H   -1.3522437532   -2.2615210781   -0.2540642957
 H    1.3476733988   -3.4530108491   -2.3126905866