16

 O   -0.6630479648    0.8813280144    0.7222476210
 C    0.1373702847    1.0007860544   -0.1706916102
 C    1.3648520118    1.8455029738   -0.0689255879
 C    1.7793002205    2.7957042984    1.0852167929
 C    2.9147253979    2.9109203390    0.0258271477
 C    2.8572027233    1.3629223649   -0.1158443937
 C    1.7869454367    3.0001589800   -1.0596902989
 C    2.1013935920    2.6717185616   -2.4398892062
 N    2.3424506870    2.4192104598   -3.5424766837
 H    0.0114020092    0.4729882097   -1.1421959438
 H    1.1525728727    3.6757226712    1.2442127544
 H    2.0449102587    2.3126861779    2.0261279515
 H    3.8019665757    3.5410114524    0.0645080513
 H    3.1868905713    0.7841859191    0.7487151477
 H    3.2108147302    0.9330281269   -1.0542081256
 H    1.1576899630    3.8925320565   -1.0143893365