17

 C    0.0115946168    1.4169345638    0.0179079580
 C    1.4523414890    1.9277389705   -0.0346980889
 N    2.1306095554    1.2355963680   -1.1130161684
 N    3.3025787952    1.6694904505   -1.6190923422
 C    3.6382727562    0.7371935418   -2.5087354601
 C    2.6905651244   -0.3050050733   -2.5690903917
 C    1.7294264644    0.0513992327   -1.6419306529
 C    0.4271543181   -0.5510755237   -1.1967908075
 O   -0.0161793370    0.0006331554    0.0334352237
 H   -0.4760307554    1.7544380864    0.9355557817
 H   -0.5583709449    1.8043788154   -0.8419992769
 H    1.4880865108    3.0038293010   -0.2245212951
 H    1.9631114814    1.7263257078    0.9140306947
 H    4.5509294192    0.8460909539   -3.0763233209
 H    2.7018370422   -1.1831399663   -3.1945977088
 H   -0.3433815360   -0.4035834979   -1.9732634479
 H    0.5301029400   -1.6278640560   -1.0359282266