16

 N   -0.1125543681    1.3934424786   -0.3343094368
 C   -0.0015861377    0.0288156107   -0.0858985264
 N   -1.0567421317   -0.7847445812   -0.0608355290
 N   -0.5049735243   -1.9853016943    0.1308593291
 N    0.8126816291   -2.0169472074    0.2339384516
 C    1.1746570349   -0.7386839508    0.0997988370
 C    2.5826852993   -0.3006873665    0.1430498345
 C    3.4614020696   -0.7014483980    1.2835764810
 N    3.6584951400   -1.2858543331   -0.0469113285
 H    0.4638580682    1.9627163957    0.2707592737
 H   -1.0748775448    1.7041366779   -0.2988395257
 H   -1.0611025872   -2.8228193502    0.1564415366
 H    2.7663735631    0.6554937792   -0.3417495172
 H    4.2537535781   -0.0367628008    1.6178708530
 H    3.0068604194   -1.3110914851    2.0595646130
 H    3.2359380020   -2.2120818948   -0.0761234358