11

 O    0.1040912361    1.3297033399   -0.0547274679
 C    0.0661127761   -0.0107761137   -0.0614433778
 C   -0.0288954710   -0.8397765630   -1.1456575933
 O   -0.0335458728   -2.1167578976   -0.6756486255
 C    0.0584270300   -1.9991422857    0.6632626648
 C    0.0808746687   -3.1973638003    1.5089608988
 O    0.0217272913   -4.3293721198    1.0939042181
 N    0.1208085545   -0.7583036350    1.0805102663
 H    0.1729478165    1.6096241549    0.8665086167
 H   -0.0953027930   -0.6970379299   -2.2088217243
 H    0.1592183336   -2.9464349698    2.5851214241