18

 O   -0.0412562116    1.4275185023   -0.0386361121
 C    0.0101678125    0.0174378398    0.0249471996
 C    0.6356411421   -0.5540022320    1.3440336895
 C   -0.5385407216   -1.3783718704    1.9270393105
 C   -1.1736028835   -1.9574302178    0.6435774279
 C   -1.4341289752   -0.5615889675    0.0404808833
 C   -2.1542539726    0.1371909075    1.2085873630
 O   -2.9782732626    1.0174353014    1.1856589689
 N   -1.6130042413   -0.4668667765    2.3333209385
 H    0.8598998240    1.7624792559   -0.0746295480
 H    0.5379003990   -0.3880003593   -0.8503857572
 H    1.5090322139   -1.1827015414    1.1446820028
 H    0.9365776883    0.2575657183    2.0120021873
 H   -0.2814757597   -2.0848179451    2.7167284241
 H   -0.4781320483   -2.5642261661    0.0569677184
 H   -2.0850874065   -2.5250836282    0.8404197345
 H   -1.9630905110   -0.4824293820   -0.9062806545
 H   -1.6109840058    0.0255887211    3.2139627334