17

 O    0.0442760712    1.4681775742    0.0363218722
 C    0.0162186346    0.0789791033   -0.0141088133
 C   -0.5344594333   -0.7097078212    1.1918445742
 C   -0.9532450895    0.0229667518    2.3428435236
 C   -1.2853573154    0.7055511345    3.2789573653
 C   -1.3062374231   -0.5912414635   -0.1181087656
 C   -2.6663192591    0.0311549136   -0.3710102560
 C   -2.8862677560   -1.2262188186   -1.2437850085
 O   -1.5571942809   -1.7253627603   -0.9311112570
 H    0.1167288615    1.7351556016    0.9617624360
 H    0.8593053050   -0.3797026517   -0.5286711877
 H   -0.0662548972   -1.6747366908    1.3639685713
 H   -1.5966397134    1.2739477482    4.1202145303
 H   -3.3095974568    0.1207702831    0.5054427178
 H   -2.6332216052    0.9829613788   -0.9023164942
 H   -3.6629205972   -1.9170770347   -0.9001929529
 H   -3.0020650754   -1.0484369382   -2.3176679153