16

 C   -0.0054965283    1.5287038437    0.1365696172
 C    0.0390541568    0.0342105693   -0.0731134049
 C    0.6872478403   -0.6324453616   -1.2303166516
 C    1.6754579724    0.1516337530   -2.0762045290
 O    2.6880216268    0.5730916042   -1.1560016667
 C    2.4686475030    0.0232872768    0.0876096207
 N    3.2170451267    0.1853864675    1.0874272668
 N    1.2885449918   -0.7664657126    0.1103673461
 H    0.8212897658    2.0522683297   -0.3478647181
 H   -0.9442615947    1.9256694624   -0.2633743845
 H    0.0301205631    1.7615432529    1.2051868760
 H   -0.8091307388   -0.4925665440    0.3583198866
 H    0.2557978488   -1.5312615366   -1.6599373936
 H    2.1275016797   -0.4851894361   -2.8442537894
 H    1.2507621244    1.0373459614   -2.5605897240
 H    4.0099592825    0.7760685500    0.8378345884