25

 C   -0.4356303740    1.5277949239    0.3726602687
 C   -0.1065006201    0.0487914263    0.1958515863
 C    0.3235602658   -0.4511640782   -1.1886980387
 C    1.6639305323    0.1172217464   -1.5687174731
 C    1.6125142259   -1.0491123349   -0.6177523166
 C    2.2964466845   -2.3514649962   -0.9354979893
 C    1.2230172419   -0.5673736369    0.8076446209
 C    2.2032642007    0.3808535696    1.5010238906
 C    0.8919408802   -1.7350803578    1.7415641814
 H    0.3567607409    2.1806499787   -0.0050583306
 H   -1.3543189728    1.7812600171   -0.1683067319
 H   -0.5955498658    1.7764870370    1.4277677731
 H   -0.9560831473   -0.5392296788    0.5590280925
 H   -0.3445210341   -0.8685611140   -1.9346461009
 H    2.0017774901   -0.1313017955   -2.5706501864
 H    1.9649872812    1.1107181808   -1.2484806449
 H    2.2639519510   -2.5527909022   -2.0115284324
 H    3.3532240117   -2.3322846993   -0.6405721365
 H    1.8276739676   -3.2000493511   -0.4262876992
 H    2.4791266042    1.2347368384    0.8773309862
 H    1.7782673877    0.7750557980    2.4314353382
 H    3.1274250378   -0.1477988449    1.7623600361
 H    1.7943949802   -2.2827723077    2.0367107476
 H    0.4123788169   -1.3688309513    2.6565291433
 H    0.2074700135   -2.4474034377    1.2690351656