19

 C   -0.4727659907    1.2743820738    0.0162363008
 N    0.0423694707   -0.0836970910    0.1080621861
 C    1.4249895776   -0.3167729224   -0.2918576700
 C    1.0233997843   -0.4405389546    1.1358278436
 C    1.5362506106    0.5350574524    2.1772030498
 C    0.6170357614    0.6482406629    3.4280587876
 O    1.4730568463    0.2777492962    4.5364312768
 C    2.6646641747   -0.0339730974    3.9761737943
 N    2.8301499798    0.0660867728    2.7244892363
 H    0.2779699270    2.0671389563    0.1623586424
 H   -0.9072721578    1.4124749332   -0.9790092769
 H   -1.2718369694    1.4146960441    0.7522720689
 H    1.6105855195   -1.1998840565   -0.8971847204
 H    2.0329193676    0.5492220149   -0.5540133271
 H    0.8701801727   -1.4413041412    1.5405748856
 H    1.7000983520    1.5143471828    1.7178317154
 H    0.2427936238    1.6587347839    3.6083356432
 H   -0.2267639218   -0.0480273991    3.4019700077
 H    3.4191963620   -0.3558335513    4.6856599659