18

 C    0.0663268417    1.4268530059   -0.0370991594
 N   -0.1210425073   -0.0162415864   -0.0829096412
 C    0.5543404434   -0.7213251907   -1.0733330798
 N    1.1538646151   -0.1030951393   -2.0877229356
 N    1.6242816338   -1.1182992090   -2.8573439110
 C    1.3501825605   -2.3405195833   -2.3480341880
 C    0.6484892905   -2.1375856387   -1.1809693248
 C    0.0864687267   -3.1692670728   -0.2603893241
 O    0.5263082370   -4.4480627393   -0.6939711275
 H    1.1171386368    1.7283247827    0.0848532633
 H   -0.2928660883    1.8663610439   -0.9707601408
 H   -0.5221098829    1.8326613686    0.7896959468
 H   -0.0436989762   -0.4547718392    0.8242225299
 H    2.1261807622   -0.8958666999   -3.6977985712
 H    1.6572567169   -3.2540828832   -2.8295517939
 H    0.4130788440   -2.9742865075    0.7781632551
 H   -1.0156246573   -3.1111701707   -0.2525205242
 H    0.0857133434   -5.1124035013   -0.1569362537