15

 C   -0.0630023507    1.5740478180   -0.0457344372
 C    0.0369838441    0.0591762394    0.0382773268
 N    1.1054037165   -0.5611874744   -0.7683837754
 C    1.7669114826   -1.1863758182    0.2665413217
 O    2.7262757456   -1.9047659011    0.3242079778
 C    0.7676504844   -0.5610328278    1.2540926799
 C    0.9687412430   -0.0811210407    2.6201218180
 O    0.1555687618   -1.2274013230    2.3284339816
 H    0.9044312070    2.0414625903    0.1605174682
 H   -0.3935122517    1.8918112554   -1.0401354750
 H   -0.7945146011    1.9472753706    0.6783795034
 H   -0.9396884242   -0.4111089027   -0.1260376259
 H    1.2720120961   -0.5669701160   -1.7628736065
 H    1.9092837194   -0.2944570766    3.1240895390
 H    0.4277592774    0.7980100168    2.9663258435