18

 O    0.0637222299    0.0879130864    0.0683479783
 C    0.0313988433    1.2926790479    0.0918059138
 N   -1.0788164981    2.1237383915    0.2472051984
 C   -0.5095491264    3.4470144066   -0.0319059645
 C    0.7331639255    3.4030076274    0.9659535473
 C    1.1850521661    2.3114910390   -0.0885792664
 C    2.2122860502    1.7941985098   -1.1314018400
 C    1.1237729419    2.2051393978   -2.2251526278
 C    0.5925859060    3.2204766640   -1.1525930365
 H   -1.9590992555    1.8328919526   -0.1534024430
 H   -1.2391238975    4.2562661844   -0.0246525632
 H    1.3479339168    4.3033285998    0.9420118840
 H    0.5083615703    3.0988549553    1.9909937569
 H    3.1104261067    2.4104488828   -1.2091665429
 H    2.4796306321    0.7380039049   -1.0651790663
 H    1.4833300185    2.6281827671   -3.1654335098
 H    0.4527899443    1.3703901029   -2.4356878348
 H    1.1873026358    4.1354950198   -1.2358355635