14

 O    0.0690717788    1.3453276409    0.0803375099
 C    0.0612397310   -0.0005820470    0.0572682497
 N    0.0968273409   -0.5915839080   -1.1325171302
 C    0.0894505805   -1.9239916460   -1.1670599460
 C    0.0465088927   -2.7336451375   -0.0254778386
 C    0.0095159450   -2.0764650181    1.2194036719
 C    0.0166160797   -0.6975108419    1.2711377241
 C    0.0408777268   -4.1511569390   -0.1288368763
 C    0.0361657996   -5.3522680291   -0.2188197049
 H    0.1014766077    1.6283919297   -0.8445710658
 H    0.1190829666   -2.3828447036   -2.1511175636
 H   -0.0243969004   -2.6617223985    2.1313505024
 H   -0.0108814972   -0.1539533772    2.2070143422
 H    0.0319935082   -6.4110089547   -0.2985540249