16

 C   -0.4328770300    0.7951703837    1.0331852926
 N    0.2052784011    0.2815951517   -0.1755474448
 C    1.3064040895   -0.6329877586    0.0801877981
 C    0.9384539835   -1.9701074588    0.6774845051
 N   -0.2704968814   -2.4979889437    0.5490864852
 N   -0.1354303879   -3.6876577816    1.1857684425
 C    1.1178934135   -3.8218419924    1.6593445834
 N    1.8295857875   -2.7545451946    1.3586259655
 H    0.2930057479    1.3921773039    1.5973313082
 H   -1.2565157578    1.4573624591    0.7501028977
 H   -0.8313717714    0.0190773931    1.7058428251
 H   -0.4890491805   -0.1932105135   -0.7432414726
 H    1.8390056183   -0.8133282176   -0.8631474064
 H    2.0295075434   -0.1510105770    0.7473556384
 H   -0.9216550660   -4.3118556741    1.2589816648
 H    1.4552074404   -4.6907014496    2.2048776272