16

 N   -0.0097476370    1.2969174499    0.4472840972
 C    0.0325356532    0.0345561131   -0.0468172387
 O    1.0826164454   -0.4991895371   -0.3867847242
 C   -1.2887602149   -0.6893384182   -0.1738960274
 C   -1.6592650158   -0.9417953495   -1.6736075192
 C   -1.0601516942   -2.3573330900   -1.5316073629
 O   -0.6330753367   -3.1561369048   -2.3079630412
 C   -1.0791482192   -2.2533142366    0.0142224589
 O   -0.0451918604   -2.7517943349    0.7821193770
 H    0.8538038131    1.8078500580    0.5372933274
 H   -0.8684367228    1.7385275536    0.7237129611
 H   -2.0748492071   -0.2428258180    0.4370619502
 H   -2.7396065686   -0.9595133484   -1.8420867697
 H   -1.1874731003   -0.3043012686   -2.4231016957
 H   -2.0166803551   -2.6876640370    0.3842559128
 H    0.7624379503   -2.3418178515    0.4334109044