18

 C    0.0770962947    1.5470005218    0.0896325283
 C   -0.0127399719    0.0442034986    0.0007525167
 C   -0.8771679971   -0.7645452774    0.9087261142
 N    0.5804690796   -0.7838972848    1.0903262649
 C    1.2558024245   -1.9313795648    0.4511696775
 C    1.0107484638   -1.7852964396   -1.0280359255
 C    0.3174062401   -0.6648746296   -1.2829090331
 C   -0.0780301678   -0.2334659938   -2.6268715568
 O   -0.7353099164    0.7532773459   -2.8757130282
 H    1.0759104006    1.8957842191   -0.1938432998
 H   -0.6462208337    2.0087036114   -0.5863991403
 H   -0.1202800832    1.8765148188    1.1126730688
 H   -1.4189650604   -0.2751891895    1.7140036881
 H   -1.3667414531   -1.6448591558    0.4962879536
 H    2.3296621984   -1.9024939027    0.6825322769
 H    0.8764269311   -2.8817229738    0.8492859139
 H    1.3370590580   -2.5057356197   -1.7710752758
 H    0.2791380128   -0.9032460542   -3.4406576634