16

 O    0.1720698963    1.3664451228   -0.1511588693
 C    0.0508836397   -0.0006630495   -0.0891946094
 C    0.4435319496   -0.8586508825    1.1884665454
 N   -0.9973778646   -0.9252035705    1.5487869984
 C   -1.2554998258   -0.8532291660    0.0947973339
 C   -0.4106788562   -1.9506177683   -0.6425897781
 C    0.8079646401   -2.1002303850    0.3347514710
 O    1.7448466432   -1.6189858038   -0.6669381694
 C    0.6070322359   -0.9215841970   -1.2108079944
 H   -0.2362757462    1.7404046272    0.6391937363
 H    1.1527678174   -0.5218119459    1.9444531442
 H   -1.2761050221   -1.8018805483    1.9916580254
 H   -2.2539483461   -0.6000612427   -0.2589235587
 H   -0.8131419683   -2.8011177421   -1.1852610240
 H    1.1171281990   -3.0260977121    0.8203729858
 H    0.7113176481   -0.5673563863   -2.2345037570