21

 C   -0.0305870097    1.5647489870    0.0107416915
 C    0.0202163939    0.0342021416    0.0020363117
 C    0.6980414192   -0.5056601893   -1.2694005765
 C    0.7686783695   -2.0395510531   -1.2831055270
 C    1.4630495158   -2.5812094767   -0.0257868533
 C    0.7928691476   -2.0531569469    1.2503064205
 C    0.7221404239   -0.5192146718    1.2544269589
 H    0.9799713329    1.9906701876    0.0033813226
 H   -0.5591917910    1.9516103794   -0.8673154938
 H   -0.5422918081    1.9421029658    0.9028354852
 H   -1.0152778544   -0.3404868927    0.0099114199
 H    0.1673643102   -0.1422094772   -2.1578969731
 H    1.7169531275   -0.0948341244   -1.3287303736
 H   -0.2506713835   -2.4472761049   -1.3360231052
 H    1.2874596124   -2.3861747255   -2.1843005721
 H    1.4611333679   -3.6772237950   -0.0316549275
 H    2.5178453367   -2.2720404280   -0.0341984081
 H   -0.2253259335   -2.4615316719    1.3182971990
 H    1.3287288063   -2.4093857130    2.1376564019
 H    1.7420413907   -0.1089449505    1.2986984246
 H    0.2085633255   -0.1653814005    2.1567467869