22

 C    0.0712587317    1.5515712634    0.4056734707
 C    0.0029425674    0.0719842904    0.0728317587
 C   -1.3445456690   -0.4320772965   -0.4247528828
 C   -1.7850703304    0.1744944467   -1.7636948589
 C   -3.1219490555   -0.4220930554   -2.2476680571
 C   -3.5688808098    0.1490959293   -3.5162826181
 N   -3.9065781291    0.6123677392   -4.5197242109
 C    1.2422451160   -0.5850908893   -0.4910883189
 C    0.8137797306   -0.8713886901    0.9292929606
 H    1.0562802280    1.8184547687    0.8002847360
 H   -0.1074716425    2.1790188234   -0.4743834672
 H   -0.6742776296    1.8205497649    1.1637563749
 H   -1.2993460779   -1.5241184148   -0.5280695435
 H   -2.1126452503   -0.2283820319    0.3353282492
 H   -1.8963388864    1.2597974771   -1.6759107338
 H   -1.0162885407   -0.0012339372   -2.5238973360
 H   -3.0322209012   -1.5081731005   -2.3693746472
 H   -3.9051106160   -0.2562455083   -1.4982875248
 H    1.1180575544   -1.3725979341   -1.2275946814
 H    2.1239422272    0.0276325124   -0.6463958830
 H    1.4038173466   -0.4491011681    1.7358807561
 H    0.4012103867   -1.8504392792    1.1502084575