23

 C   -0.2238931476    1.5926568286    0.0337527649
 C    0.0117036324    0.0813919829   -0.0044268948
 C   -1.2860935408   -0.6457364205    0.3693027829
 C    0.6118271783   -0.5483006455   -1.2726272812
 C    2.1279599026   -0.4240282735   -1.3548889092
 C    2.8749691685    0.6454420242   -0.5619737438
 C    2.4308361060    0.3974363228    0.9075852836
 C    1.2225332943   -0.5456785539    0.7936354304
 C    1.5157221220   -1.4451430342   -0.4421558882
 H    0.6596723178    2.1701746241   -0.2433910989
 H   -1.0249134393    1.8655333252   -0.6635836977
 H   -0.5388110519    1.9176278449    1.0327513528
 H   -2.0879241689   -0.4083038454   -0.3398625811
 H   -1.1490253246   -1.7314815071    0.3684495045
 H   -1.6270299934   -0.3465869960    1.3673635426
 H    0.0388989920   -0.8115695378   -2.1571934492
 H    2.5493527110   -0.7651080750   -2.2952461349
 H    3.9560069433    0.5137862727   -0.6776944165
 H    2.6467567530    1.6594167600   -0.9050122630
 H    3.2307503305   -0.0996401505    1.4676009876
 H    2.1917000214    1.3227692997    1.4409232668
 H    0.9460704702   -1.0295718151    1.7321062491
 H    1.6730204631   -2.5149153106   -0.4742288765