19

 C   -0.2465182919    1.4899055214    0.1326054000
 C    0.0831096881    0.0406339684   -0.0381350591
 C    0.1327800758   -0.6883069197   -1.2210952004
 C   -0.1107962191   -0.3278130010   -2.6461851599
 N    0.5201632560   -1.9435232965   -0.7878469425
 C    0.7542150587   -3.3976232760   -0.8970818434
 C    0.9505119970   -3.3899683550    0.6727849146
 C    0.6472147984   -1.9055065522    0.5526897166
 N    0.3988223359   -0.7358078510    1.0794597975
 H    0.6098242264    2.0477763748    0.5283473597
 H   -0.5402198979    1.9522418306   -0.8136180909
 H   -1.0692665880    1.6203092923    0.8437631356
 H    0.7883307556   -0.4496064135   -3.2631432368
 H   -0.8997915915   -0.9420019642   -3.0979538441
 H   -0.4230406447    0.7158408858   -2.7248180679
 H   -0.1140675271   -3.9601608070   -1.2509112864
 H    1.6351215297   -3.6638402291   -1.4873154040
 H    0.2187795789   -3.9865705987    1.2228605875
 H    1.9559913197   -3.6549307793    1.0087962237