21

 C    0.5022376377    0.6376707108    0.6639485541
 O    0.1539598586   -0.5916559740    0.0574888568
 C    0.5547595977   -0.6778018887   -1.3005374651
 C    2.0448888072   -1.0918373737   -1.5204238268
 C    1.5681676628   -2.4886939519   -1.9579419640
 C    1.1812376093   -3.4498561661   -0.7650549425
 O    1.6761525189   -3.1161474513    0.5085452385
 C   -0.3267656891   -3.1326275689   -1.0128533762
 C    0.0772348199   -2.0014175953   -1.9780510670
 H    1.5885961886    0.8047848314    0.6630696301
 H    0.0201340945    1.4821387475    0.1498875860
 H    0.1495722101    0.6013775233    1.6973032187
 H    0.2482738713    0.2366618167   -1.8258261456
 H    2.5177334718   -0.5305331953   -2.3307400913
 H    2.6893728981   -1.0561946045   -0.6378077278
 H    2.0574720999   -2.9657152783   -2.8078422665
 H    1.4654553374   -4.4908617561   -0.9381962509
 H    1.2377570994   -2.2939649206    0.7697370174
 H   -0.8401131673   -3.9445782291   -1.5358328670
 H   -0.9080106235   -2.8584941275   -0.1296926579
 H   -0.5040498834   -1.8615926289   -2.8900350127