18

 C    0.0040775297    1.4726271864   -0.0160698027
 O    1.1649951196    0.6464652883   -0.1413452963
 C   -0.1027869329    0.0082581087    0.0370461749
 C   -0.3072170402   -0.7461485010    1.3097193361
 C    0.2562300400   -0.2003753617    2.6239486675
 C    0.5387538129   -1.4442004637    3.4385009307
 C    0.3056988775   -2.5603917455    2.7421958741
 C   -0.2401915105   -2.2456123902    1.3892967307
 N   -1.5432213367   -1.5409325553    1.3502863040
 H   -0.0562204181    2.0544514784    0.9023427453
 H   -0.2936055380    2.0016700043   -0.9200664398
 H   -0.4840325738   -0.5063961328   -0.8446435090
 H    1.1735882623    0.3687450701    2.4273046508
 H   -0.4407562197    0.4812299596    3.1290864177
 H    0.8705220501   -1.4001327839    4.4694668536
 H    0.4534484296   -3.5739758513    3.0955211583
 H   -0.0388428953   -2.8851616377    0.5358351505
 H   -1.9493761765   -1.5229242227    2.2841779536