17

 C    0.0704036952    1.5899930633   -0.1472913944
 C    0.1065179401    0.0811343073    0.0109249655
 C    1.0423231437   -0.7568777716   -0.8996993001
 C    1.3210385640   -1.7003599253    0.3069162127
 C    2.6532892455   -2.2483826708    0.4835256681
 N    3.7152791278   -2.6868358767    0.6088754334
 C    0.8113141467   -0.5595713049    1.2679752293
 C    1.8649696750    0.2642228979    1.8380724797
 N    2.6877826193    0.9428978182    2.2840719583
 H    1.0710914963    2.0240826845   -0.0662040186
 H   -0.3389702037    1.8566021342   -1.1271511195
 H   -0.5608559211    2.0548773026    0.6168188680
 H   -0.9082189772   -0.3279869386   -0.0297419169
 H    0.6191105278   -1.2160897522   -1.7938341458
 H    1.9409524938   -0.1974047708   -1.1711545834
 H    0.5960836156   -2.5183745957    0.3307538996
 H    0.1524492713   -0.8968696112    2.0709724841