22

 C    0.7381448647    1.4142384130    0.0818306433
 C    0.3127205558   -0.0518345983   -0.0217674476
 C   -1.1997513805   -0.2510938969   -0.0613307854
 C   -1.6166749243   -1.7184374613   -0.1704321373
 O   -1.1301424401   -2.4991011097    0.9092215482
 O   -1.7272263558    0.2687983557    1.1903203173
 C   -2.9688139653    0.8058055685    1.1939622600
 C   -3.2945030855    1.3288487445    2.5706719459
 N   -3.6905144012    0.8317205493    0.1499057269
 H    1.8284191523    1.5047759367    0.0953426726
 H    0.3650838052    1.9982488781   -0.7670102861
 H    0.3508447881    1.8698316634    0.9972709660
 H    0.7221768789   -0.4965541572   -0.9371338243
 H    0.7203196741   -0.6332373993    0.8114750068
 H   -1.6530871725    0.3133782935   -0.8811923083
 H   -2.7112235273   -1.7714117520   -0.2471030266
 H   -1.1935428274   -2.1491960074   -1.0841457599
 H   -1.4222696312   -2.0584385033    1.7150429931
 H   -2.5722597706    2.0978633858    2.8612350859
 H   -4.2999360550    1.7512039125    2.6020375200
 H   -3.2218712008    0.5240243409    3.3085982286
 H   -4.5799570914    1.2860556235    0.3412998511