20

 C    0.0629283167    1.5492258640    0.0109163891
 C    0.0143181500    0.0445648333   -0.0422836666
 C    0.4136598897   -0.8268887303   -1.2302308577
 N   -0.3218373567   -1.9660897238   -0.5511329728
 C    0.5918567487   -2.1652494555    0.6160087507
 C    0.3842745800   -0.7855324853    1.2741202996
 O    1.3297116173   -0.2498002487    2.1441716988
 C   -1.1353176387   -0.8812290356    1.5964074688
 C   -1.2466439551   -0.8660461834    0.0724513069
 H    1.0995470888    1.8986926383    0.0680915320
 H   -0.3950219038    1.9916070207   -0.8803952890
 H   -0.4584396582    1.9422634276    0.8897914072
 H   -0.1090810966   -0.5381379341   -2.1478693707
 H    1.4663965140   -1.0276536685   -1.4570807695
 H    0.2614871539   -2.9995251503    1.2430492497
 H    1.6144073934   -2.3557059552    0.2810316088
 H    1.4160785154   -0.8341878433    2.9051921970
 H   -1.5006262206   -1.7403037916    2.1675387802
 H   -1.5331093815    0.0483472028    2.0116412268
 H   -2.1725871068   -0.7293063911   -0.4824051996