13

 N   -0.0816766737    1.3617550866    0.1484572886
 C   -0.0145763323   -0.0082833788    0.0410789118
 N   -1.0840065574   -0.7883493272    0.0508683578
 N   -0.5103017530   -2.0395566568    0.0014190139
 C    0.8194721498   -1.9163707856   -0.0473063236
 O    1.5918697571   -3.0218877887   -0.1181292813
 C    2.9620131722   -2.8682138968    0.0010418656
 O    3.6783185881   -3.8109748029   -0.0854941942
 N    1.1939147934   -0.6576018153   -0.0271248439
 H    0.6982185216    1.8408395404   -0.2758887413
 H   -0.9781414064    1.7486258167   -0.1073830128
 H   -1.0744190000   -2.8718953573   -0.0031610142
 H    3.2458047407   -1.8225601743    0.1739854835