18

 C   -0.1147676817    1.4620596065   -0.0311260847
 N    1.2052091324    0.8015075992    0.1166006160
 C    0.0010468072   -0.0046590595    0.0149465620
 C   -0.5461405174   -0.9847762731    1.0945067539
 C   -1.3610153549   -1.5463570438   -0.0546924946
 C   -2.5952896357   -1.6417593681   -0.5314858528
 C   -2.5558744408   -1.2464767430   -2.0008986510
 O   -1.2711695935   -0.6170705109   -2.2000785234
 C   -0.4558968805   -0.9803261302   -1.1061216852
 H   -0.4438079666    2.0149378519    0.8447118380
 H   -0.3748671806    1.9116341814   -0.9857453174
 H    1.7016664908    0.8064239947   -0.7721444391
 H    0.2393286826   -1.6519533998    1.4634290006
 H   -1.0936279592   -0.5653098532    1.9402975079
 H   -3.5196217869   -1.8094078517    0.0067372899
 H   -2.6633076700   -2.0950452205   -2.6952848258
 H   -3.3447313345   -0.5222528182   -2.2420529050
 H    0.3788094894   -1.6185514616   -1.4376621194