18

 C    0.6352692801    0.4334589437   -0.9125512378
 C   -0.4585139197    0.7150569893    0.0917935905
 O   -0.4867011023    1.7143852160    0.7755199644
 C   -1.5693884170   -0.3226652330    0.2308231169
 N   -1.2626876222   -1.7029878328   -0.2313834574
 C   -1.7843157770   -2.2994370010    1.0320594968
 C   -1.8414525089   -0.8946471020    1.6349152522
 C   -1.4843311535   -0.3825807344    2.9550914859
 O   -2.8511825973   -0.4420441182    2.4971265075
 H    1.3551344948    1.2524809363   -0.9147691273
 H    1.1216362286   -0.5164816031   -0.6729555786
 H    0.2061372298    0.3101905497   -1.9141932008
 H   -2.4881033554    0.1165803005   -0.1853575536
 H   -1.7704052625   -1.9884278453   -1.0605054562
 H   -2.7844389534   -2.7435929398    0.9547870128
 H   -1.1049006866   -3.0230031665    1.4944189372
 H   -1.2338992792   -1.0818783836    3.7514703452
 H   -1.0718995883    0.6189546541    3.0405738822