20

 C    0.0449351457    1.5352188010    0.1296460514
 C    0.0016520762    0.0367864835    0.0479628052
 C   -1.2811518825   -0.7981197271   -0.0738002217
 C   -0.5149927909   -1.9998910057    0.5533575952
 C    0.6141408505   -1.0084097766    0.9765201394
 C    1.2175961651   -0.7839458900   -0.3811205563
 C    1.0278546282   -2.0380738455   -1.1968779679
 C    1.3395162470   -3.3065522473   -0.4765666090
 N   -0.0455112550   -2.8325161733   -0.5711320682
 H    1.0431687245    1.8929118247    0.4037466999
 H   -0.2184157792    1.9929816608   -0.8316881280
 H   -0.6618665054    1.9110427980    0.8787105026
 H   -2.0523890395   -0.4110128110    0.5991285690
 H   -1.7119394283   -0.9699411193   -1.0658056218
 H   -1.0220661241   -2.5931722902    1.3140037080
 H    1.1227426664   -0.9087870238    1.9262225744
 H    2.1504216953   -0.2338412608   -0.4523644945
 H    1.0409225997   -1.9947294374   -2.2819989746
 H    1.5363431307   -4.2169326823   -1.0342448004
 H    1.8598949655   -3.2254027577    0.4753147173