17

 C   -0.0330768014    1.5070335595   -0.0626648474
 C    1.5238762841    1.3416869370    0.0198236705
 C    1.1294694196    0.1511472121    0.9607264901
 N   -0.0869840268   -0.0379197522    0.0218862759
 C    0.6735451633   -0.3004807668   -1.1899136100
 C    1.7406871812    0.5495134381   -1.2760179099
 C    2.4301855330    0.2378182526   -2.4723734088
 C    1.7295725096   -0.8072100743   -3.0611055665
 N    0.6432596795   -1.1329197110   -2.2585418418
 H   -0.4985104218    1.9437978522    0.8267921693
 H   -0.4633833246    1.9192647201   -0.9770779752
 H    2.1982274955    2.1440308509    0.3168019454
 H    1.7938634390   -0.7133780390    1.0099830754
 H    0.7864135056    0.4451814119    1.9579129025
 H    3.3200005312    0.6917812098   -2.8817748641
 H    1.9097935705   -1.3444231269   -3.9776434447
 H   -0.0312888475   -1.8540303038   -2.4476172205