19

 C    0.1373959265    1.3754123686    0.2148145407
 C    0.1539291494   -0.1349343567    0.0544139484
 O    0.6319998442   -0.4476833284   -1.2406783443
 C    0.6977813037   -1.8355432391   -1.5014413585
 C    1.2873932763   -2.0140862050   -2.8922451897
 N    2.6005354578   -1.4028212213   -2.9799252488
 C    3.6981633861   -2.0536800099   -3.4422831075
 O    3.7145770967   -3.1906596352   -3.8668302105
 H    1.1440199314    1.7866200716    0.0954443919
 H   -0.5120523528    1.8344850166   -0.5358293240
 H   -0.2320005241    1.6483681149    1.2076089144
 H    0.7990829122   -0.6005044113    0.8180729306
 H   -0.8581242401   -0.5504116146    0.1917339311
 H    1.3310735984   -2.3381541635   -0.7523162677
 H   -0.3050377006   -2.2907075259   -1.4557556335
 H    1.4054927637   -3.0729047234   -3.1313891487
 H    0.6083683362   -1.5688221433   -3.6306677446
 H    2.6937804062   -0.4686037640   -2.6137184955
 H    4.6030999887   -1.4157122102   -3.3909301842