19

 C    0.0286927443    1.4972444702    0.0189006863
 O    1.1927282921    0.6667645654   -0.0386942997
 C   -0.1036816848    0.0357169959    0.0225103858
 C   -0.3644801790   -0.7251465229    1.3093325242
 C    0.0289605457   -2.1899802118    1.1108453723
 O   -0.7907103069   -2.7976307401    0.1188190063
 C   -0.7381936331   -2.1859733650   -1.1396875110
 C   -1.8577545610   -1.2449888750   -1.4903477383
 C   -0.4638006822   -0.7025200927   -1.2326363015
 H   -0.1027488731    2.0549803108    0.9463425787
 H   -0.1925245950    2.0567804955   -0.8896713697
 H    0.2171579209   -0.2675521606    2.1151239407
 H   -1.4252462983   -0.6784726727    1.5825908536
 H    1.0924411501   -2.2596388048    0.8367297382
 H   -0.1293426019   -2.7727691463    2.0218904397
 H   -0.3346413347   -2.8374826944   -1.9114702208
 H   -2.2280324481   -1.2166529165   -2.5091331765
 H   -2.6141722722   -1.1030004734   -0.7264287898
 H    0.0916336374   -0.3581501717   -2.0986842085