18

 C   -0.2504985157    1.5562116528    0.1287921963
 C    0.0037526288    0.0605812365    0.0683258006
 C   -1.1692289925   -0.7386736081   -0.4737462359
 O    1.2203303578   -0.2146927403   -0.7365633514
 C    1.8782133539   -0.8085407941    0.3170591531
 O    2.9681505974   -1.2809645625    0.3274294437
 C    0.7340623698   -0.5649151483    1.2703659396
 C    0.7516296380   -0.1750583834    2.6985149519
 N    0.2654588999   -1.4993854545    2.2840881072
 H    0.6330039554    2.0863915047    0.4927899535
 H   -0.5013682820    1.9416225116   -0.8641616307
 H   -1.0890435537    1.7760836328    0.7978906495
 H   -1.4273961875   -0.3986669314   -1.4808908639
 H   -0.9294998258   -1.8041000482   -0.5188011364
 H   -2.0516258114   -0.6049922047    0.1617636879
 H    1.6919209167   -0.1832810617    3.2415216160
 H    0.0347517970    0.5767440045    3.0195548840
 H   -0.7524411860   -1.5265811657    2.2860822851