15

 C   -0.0183518478    1.4869534528    0.0114691369
 C   -0.0133826499   -0.0101137203   -0.0128000296
 C   -0.0561875037   -0.7264507242   -1.1391865771
 O   -0.0531325899   -2.0968728882   -1.1508022848
 C   -0.0031091159   -2.7081618137    0.0622291547
 N   -0.0548164968   -4.0562101199   -0.0780621366
 N    0.0529256692   -2.1364211536    1.2106674481
 C    0.0472186907   -0.7400860230    1.2800893140
 O    0.0944591795   -0.1491804195    2.3405580388
 H    0.8772322480    1.8615696215    0.5169007238
 H   -0.0617120060    1.9094468679   -0.9962300394
 H   -0.8725568497    1.8544424327    0.5887011277
 H   -0.0983086895   -0.3328289910   -2.1470935058
 H    0.1541331797   -4.4554587788   -0.9772314148
 H    0.1605544020   -4.5925549627    0.7453227139