18

 C    0.1485743073    1.3580245779    0.0059830654
 O    0.3756085978   -0.0303919946    0.0037183145
 C    0.3983842740   -0.5800332470   -1.2984702740
 C    0.5550121555   -2.0740373284   -1.1825615796
 C    1.2588819131   -2.8419319238   -2.2514843755
 N    1.8368796551   -2.7249424155   -0.9210826842
 C    3.0386257287   -1.9194179356   -0.7605225289
 H    0.9363022461    1.9042119054   -0.5377941778
 H   -0.8206739374    1.6150067007   -0.4510062875
 H    0.1460361807    1.6883653466    1.0475201874
 H   -0.5451390612   -0.3553504678   -1.8262668054
 H    1.2100327528   -0.1317692481   -1.8929393594
 H   -0.2754027688   -2.5481201424   -0.6616027433
 H    0.9131759350   -3.8294763191   -2.5461039897
 H    1.7124410585   -2.2632217914   -3.0572355345
 H    3.1567238019   -1.1160177248   -1.5048373210
 H    3.0346338624   -1.4656100832    0.2344524970
 H    3.9110183084   -2.5757331988   -0.8412726736