21

 C    0.4263626317    1.3323027851   -0.4167662991
 C    0.0294911794   -0.1140642214   -0.1175538848
 O    0.9622313235   -0.7283043968    0.7696662560
 C   -1.3994239409   -0.2314888974    0.4216914296
 C   -2.5178233738   -0.0563067040   -0.6468321395
 C   -2.6796892002   -1.6118151468   -0.7015128082
 C   -1.8706731449   -1.6956959538    0.6354750135
 C   -4.0168689596   -2.1648257553   -0.7409020318
 C   -5.1345560825   -2.6100445048   -0.7539634410
 H    1.4517520460    1.3734799421   -0.7935084931
 H   -0.2352590371    1.7883400800   -1.1597121157
 H    0.3718207907    1.9412636558    0.4946544933
 H    0.1119125531   -0.7046758223   -1.0397876731
 H    0.9534284449   -0.2273402120    1.5932381497
 H   -1.4952347360    0.4191671803    1.2993430714
 H   -3.4113720991    0.4229587198   -0.2423537318
 H   -2.2493950835    0.4364537646   -1.5849239205
 H   -2.0891245335   -2.0238777994   -1.5262505714
 H   -1.0871190001   -2.4528719483    0.6929829487
 H   -2.5365088112   -1.8018128183    1.4942499393
 H   -6.1182170969   -3.0087431771   -0.7715398616