21

 C    0.2220691507    1.3371211748   -0.2511168538
 O    0.0761631071   -0.0282798560    0.0515813302
 C   -1.2266057228   -0.5120083006   -0.2100971516
 C   -1.2719618259   -1.9803456696    0.1791181875
 C   -0.9947483418   -2.2636089901    1.6781598921
 C   -1.9130570174   -3.4213495963    1.9830922311
 C   -2.7679533655   -3.6724549109    0.9907261653
 C   -2.6334719576   -2.6728097739   -0.1328371524
 O   -3.7582097840   -1.7856701962   -0.1807768919
 H    1.2522382385    1.6181517202   -0.0177488026
 H    0.0303873844    1.5435256293   -1.3163448603
 H   -0.4608316323    1.9647140710    0.3441516507
 H   -1.9717782530    0.0631410048    0.3631415860
 H   -1.4808628486   -0.3846938706   -1.2753790744
 H   -0.5046150689   -2.5009224848   -0.4046617418
 H    0.0581359047   -2.4992900391    1.8623187685
 H   -1.2220437055   -1.3973211039    2.3154562460
 H   -1.8695993993   -3.9679297470    2.9198024197
 H   -3.5374391203   -4.4363447774    0.9889535018
 H   -2.6201485699   -3.1325225363   -1.1262750088
 H   -3.9833610726   -1.5623619374    0.7292425189