19

 C    0.0069387725    1.4339792142   -0.3518694858
 O    0.0035952237    0.0193209720   -0.2797613823
 C    0.4844008938   -0.5270541238    0.9408088447
 C   -0.3189743174   -0.1487830247    2.2144929992
 C   -0.5501944492   -1.4714931652    2.8994331464
 C   -0.1713136007   -2.5064755129    2.1539582104
 C    0.3827624775   -2.0782768334    0.8218426553
 C    1.9708511866   -0.1807224844    1.0690146565
 O    2.5302568865    0.1687033932    2.0743901705
 H    1.0099950947    1.8592229736   -0.2017375315
 H   -0.3366475898    1.6961310999   -1.3548751524
 H   -0.6709089984    1.8872035055    0.3837410085
 H    0.2392155916    0.5547613007    2.8405360655
 H   -1.2679628925    0.3283589664    1.9397380040
 H   -0.9953892718   -1.5390461873    3.8857432709
 H   -0.2554505034   -3.5498748539    2.4354056851
 H   -0.2885925566   -2.3148944241   -0.0129524466
 H    1.3483692267   -2.5445617740    0.5845624756
 H    2.5161929662   -0.3085578017    0.1049396359