16

 O    0.1165061982    1.3787290408   -0.3153144247
 C    0.0294711045    0.0202901205   -0.1220240669
 C   -0.2116467133   -0.8750693233   -1.2957574687
 C   -1.1694647881   -0.9514954730   -0.1276250424
 N   -0.5668048092   -1.6903186352    1.0144090336
 C    0.5764711772   -0.7263254891    1.1117588588
 C    1.5891480679   -1.8943343363    1.0271045847
 C    0.3398495239   -2.7735969417    0.7610964024
 O    0.1398869764   -3.8943754788    0.4029817726
 H   -0.2051319484    1.8244998613    0.4770173766
 H   -0.6125390637   -0.3308758098   -2.1454323801
 H    0.4334405284   -1.7071676356   -1.5636463520
 H   -2.2396435410   -0.8105073827   -0.2066634510
 H    0.5929832029   -0.1143069835    2.0187121560
 H    2.2959263891   -1.8823576109    0.1948273709
 H    2.1259030252   -2.1149804527    1.9525996299