20

 C   -0.0558206633    1.4116985266   -0.2980724005
 O   -0.0723031007    0.1175656458    0.2615276357
 C   -1.3172646593   -0.5088741621    0.1701182419
 C   -1.6241128808   -1.2060722629   -1.1845606908
 N   -1.1475637652   -2.4760510425   -0.6116981831
 C   -1.8299133587   -3.7043530498   -0.9440539524
 C   -1.2808067224   -1.9497619083    0.7656854000
 C   -0.2448263572   -2.3193161837    1.7130162711
 C    0.5885252751   -2.6452206256    2.5150872703
 H    0.9481297433    1.8140925496   -0.1462682498
 H   -0.2726478289    1.4015898923   -1.3766643194
 H   -0.7853150798    2.0742901111    0.1941223872
 H   -2.1112883692    0.1391475009    0.5643708629
 H   -2.7023989757   -1.1979735354   -1.4168223177
 H   -1.0646440599   -0.8619066379   -2.0607455199
 H   -1.6858826950   -3.9321608620   -2.0053541803
 H   -1.4053606824   -4.5287664632   -0.3622771189
 H   -2.9192587112   -3.6662608355   -0.7458886038
 H   -2.2701351755   -2.1795980503    1.2017953206
 H    1.3398251068   -2.9216257970    3.2126238972