19

 C   -0.2672233502    1.5033611199   -0.0792450969
 C    0.1034137206    0.0398616464   -0.0118079870
 O    1.3686843920   -0.2409158523   -0.7281206347
 C    1.9330933683   -0.7830762791    0.3880192703
 O    3.0043197586   -1.3013284728    0.4962979418
 C    0.7147109343   -0.5662629079    1.2847312404
 C    0.9263320071    0.3384980996    2.4952248777
 C    0.1425890110   -1.9372220805    1.6989751192
 O    1.0244989574   -2.6255337452    2.5590750287
 H    0.5316269802    2.1402820828    0.3075478502
 H   -0.4643458389    1.7920893262   -1.1156179035
 H   -1.1751377757    1.6895812171    0.5035862232
 H   -0.6811290549   -0.5845162301   -0.4511542325
 H    1.4934131387    1.2401159817    2.2519957098
 H   -0.0377536062    0.6415694003    2.9178096987
 H    1.4720926847   -0.2153459475    3.2619548094
 H   -0.7926216085   -1.7998747923    2.2538145866
 H   -0.0891651785   -2.5275563770    0.7977421256
 H    1.8752417497   -2.6974638592    2.1061015530