15

 N    0.0962004372    1.3652928310   -0.0027742790
 C    0.0286695817   -0.0201198368    0.0253526724
 C   -1.1255024210   -0.7161814364    0.1162491035
 O   -1.1887121601   -2.0827945118    0.2139900997
 C   -0.0298951285   -2.7651491492    0.2136203220
 C    1.1805313112   -2.1896154890    0.1136923650
 C    1.2959772576   -0.7522358008    0.0003964411
 N    2.3771116236   -0.0527402739   -0.1296253591
 O    3.5178112734   -0.8788947152   -0.1640081426
 H    0.9753138757    1.6948336628   -0.3788544498
 H   -0.7081932326    1.8380679498   -0.3865839622
 H   -2.1115465593   -0.2732191310    0.1341166384
 H   -0.1989388753   -3.8309239822    0.3017706899
 H    2.0719479201   -2.7990422569    0.1140648599
 H    4.2299606564   -0.2356424206   -0.2322696293