20

 C    0.3541140577    1.5267752317   -0.2219618292
 C    0.0023648181    0.0648001926    0.0396975588
 O   -1.3983345663   -0.1054367492    0.1580616897
 C    0.7531290358   -0.9372181760   -0.8976830467
 C    1.7519041528   -1.2389858473    0.2578821178
 C    0.7678177838   -0.5615135641    1.2177903548
 C    0.9859966980   -0.0054426805    2.5927190389
 C    0.1037552008   -1.2163518138    2.3911342879
 H    1.4372262696    1.6729264805   -0.2733449479
 H   -0.0699700656    1.8619556296   -1.1776426647
 H   -0.0409334124    2.1657234988    0.5740192359
 H   -1.8250968675    0.4170791318   -0.5289963006
 H    0.1109689867   -1.7924170920   -1.1186483250
 H    1.1639097892   -0.5391288525   -1.8295569178
 H    1.9764582489   -2.2913603083    0.4482880802
 H    2.6968285797   -0.6959733539    0.1540034657
 H    1.9604019762   -0.1459691431    3.0504586203
 H    0.5062408277    0.9343987407    2.8487500566
 H   -0.9680710213   -1.0873563206    2.4887918324
 H    0.4786727682   -2.1835891242    2.7116236931