18

 C    0.0296001180    1.6194453062   -0.0346371758
 C    0.0951127400    0.0996094940   -0.0038546961
 C    1.1295141789   -0.7039204135   -0.8471881968
 C    2.4877870192   -0.2261186316   -0.3093008310
 N    2.1796617310   -0.8627758957    1.0144459486
 C    1.1955971551   -1.7420245075    0.3362457132
 C    0.6800655568   -0.6471861834    1.2088623770
 C    0.1624810326   -0.6811579218    2.5322268263
 C   -0.3204438868   -0.6852918953    3.6341064996
 H    0.9967746736    2.0856319718    0.1696080735
 H   -0.3201940016    1.9743926380   -1.0102853425
 H   -0.6739428142    1.9804077093    0.7228334681
 H   -0.8993797091   -0.3207349539   -0.1887497704
 H    0.9485578224   -0.9043463406   -1.9014630409
 H    3.3308991153   -0.7679609294   -0.7457062116
 H    2.7121533747    0.8448279340   -0.2847788114
 H    1.1585447258   -2.8193854476    0.4292917718
 H   -0.7331295517   -0.6945232330    4.6121834284