18

 C    0.0307932103    1.1035947712    0.3782068262
 O   -0.1735719284    0.0023379696   -0.4904940443
 C   -1.3768999890   -0.6512179435   -0.2544718740
 C   -1.5399306540   -2.0261710302   -0.8489974393
 C   -1.3899435861   -1.8653616756    0.6339295644
 C   -0.2032760739   -2.3559345899    1.4651693460
 N   -0.7939489706   -2.6733937621    2.7790141750
 C   -2.0407961929   -2.4949998869    2.6469508080
 O   -2.5447643819   -2.0737823014    1.4584167971
 H    1.0016823601    1.5346974308    0.1250740025
 H   -0.7474240661    1.8688814748    0.2411497651
 H    0.0342951094    0.7985480817    1.4337051550
 H   -2.2604242016   -0.0110023973   -0.2290322145
 H   -2.5144448513   -2.2867939526   -1.2463226575
 H   -0.6907134828   -2.4413955798   -1.3827323250
 H    0.2645010938   -3.2551052363    1.0465232959
 H    0.5815111342   -1.6000797567    1.5642807004
 H   -2.7877366893   -2.6540306358    3.4165049889