15

 O   -0.0106770628    1.3990422568    0.0239531912
 C   -0.0357582821    0.0267678372    0.0737558141
 C    0.4574351940   -0.8179631117    1.2964492600
 C   -0.3976924985   -1.9356680855    0.6620078692
 C   -0.0445069080   -2.0631396625   -0.8713171700
 O   -1.3749846481   -1.5740197295   -1.2517880214
 C   -1.3382594584   -0.8896403185    0.0263314358
 C    0.6924751068   -0.7302084652   -1.0374614102
 O    1.5141615554   -0.3111908221   -1.8031087533
 H    0.5833292875    1.6457081308   -0.7002670858
 H    1.5349606678   -0.9569621312    1.4199187220
 H    0.0142553415   -0.4712286888    2.2331430016
 H   -0.7357261745   -2.8229895860    1.1898643071
 H    0.2777594541   -2.9654345918   -1.3850479319
 H   -2.2921981346   -0.5233664921    0.4005584017