23

 C    0.3820808250    1.5902462994    0.1980743185
 C   -0.1244544312    0.1658604360   -0.0622194149
 C    0.5508215352   -0.4904989885   -1.2535687198
 O    0.3428794126    0.1933749927   -2.4683514301
 C    1.8715198141   -1.2090055057   -1.0974922331
 C    0.6090457240   -1.9806213037   -1.4380935676
 C    0.0084464170   -2.9676660648   -0.4742495555
 O    0.6619281819   -4.2100774941   -0.6470104645
 C    0.1355280592   -5.2198229995    0.1773625084
 H    1.4616332075    1.5999274686    0.3847507233
 H    0.1776328005    2.2450302620   -0.6555932715
 H   -0.1127763696    2.0296723905    1.0689255552
 H    0.0360413486   -0.4436072134    0.8329836345
 H   -1.2064396499    0.1907797146   -0.2419164431
 H    0.8869330735    0.9879930838   -2.4549368001
 H    2.6107469100   -1.0853233614   -1.8808717098
 H    2.2787221310   -1.3267242668   -0.0977884023
 H    0.5266485108   -2.2866931114   -2.4764192588
 H    0.1181504713   -2.6270747253    0.5688193671
 H   -1.0737606734   -3.0816750996   -0.6621531369
 H    0.2408705563   -4.9746897513    1.2470416595
 H   -0.9326895030   -5.4010917903   -0.0251172465
 H    0.6933461585   -6.1365955919   -0.0292572018