21

 O   -0.1125853429    1.4640675115    0.2482227086
 C    0.0060744940    0.0584671445    0.0689519356
 C   -1.3906580134   -0.5047217137   -0.0748254247
 C   -2.2243001944   -0.5715377940    1.2250038032
 O   -2.3901363757   -2.0012892028    1.1090472759
 C   -1.5613567592   -2.0544698849   -0.0763015423
 C   -2.3509958211   -2.4236739806   -1.3282562159
 C   -3.1447201882   -1.1435290993   -1.6556182946
 C   -2.1645642835   -0.0031485410   -1.3080759135
 H    0.7687060225    1.8305875744    0.3656607801
 H    0.5965114788   -0.1809944607   -0.8315207702
 H    0.5111273787   -0.4096662483    0.9291382312
 H   -1.6786604307   -0.2937080700    2.1356839318
 H   -3.1854643650   -0.0429780235    1.2118316090
 H   -0.6709193168   -2.6733300506    0.0892591333
 H   -1.6481049570   -2.6595240735   -2.1378869766
 H   -2.9802371260   -3.3029960236   -1.1638668969
 H   -3.4895213290   -1.1042336445   -2.6922486188
 H   -4.0321204728   -1.0897287156   -1.0160772408
 H   -2.6594819105    0.9543139531   -1.1264045716
 H   -1.4609811076    0.1511257132   -2.1359043725