23

 C    0.5757371657    1.0718495890    1.0329133389
 C    0.3442389293   -0.3140339456    0.6512999023
 C    0.1507370203   -1.4603468793    0.3348550672
 C   -0.1013271563   -2.8568222939   -0.0514971371
 C   -1.5858477410   -3.1092444311   -0.3258320680
 O    0.5934468727   -3.2261363642   -1.2359270866
 C    2.0205946099   -3.2228981707   -1.1599693771
 C    2.5456025309   -4.4729310425   -0.4479527791
 C    2.5204851080   -3.1279821966   -2.5973274563
 H    1.3293145605    1.1502909017    1.8242942517
 H    0.9265945764    1.6633071324    0.1800875653
 H   -0.3436498760    1.5395915028    1.4021649130
 H    0.2116814501   -3.5040424060    0.7837605279
 H   -2.1834328301   -2.8697322912    0.5571882535
 H   -1.9211765129   -2.4864896609   -1.1587414262
 H   -1.7356877807   -4.1595722990   -0.5886948407
 H    2.3441231760   -2.3278061231   -0.6086741852
 H    2.1836489410   -4.5375538505    0.5825226300
 H    2.2270660776   -5.3749438563   -0.9805472409
 H    3.6398246200   -4.4604784985   -0.4113882957
 H    2.1361867869   -2.2229482371   -3.0746842741
 H    3.6140780396   -3.1035319340   -2.6263173612
 H    2.1786526220   -3.9919666455   -3.1766206518