19

 C   -0.2126782646    1.5321184810   -0.0812517548
 C    0.0457879892    0.0472609558    0.0612184631
 O    0.9091817599   -0.3834272798   -1.0073498920
 C    1.3699513782   -1.6865386960   -0.7015706075
 C    1.2927193461   -1.7934316964    0.8160129363
 O    1.5051684357   -2.7522668966    1.5128311226
 C    0.7696745113   -0.4460163979    1.3328711243
 C    1.9608119020    0.4319360997    1.7475930269
 O   -0.1218096148   -0.6421819698    2.4057019906
 H    0.7199357002    2.1012465916   -0.0694928275
 H   -0.7234077564    1.7334885411   -1.0267407778
 H   -0.8503765845    1.8779405411    0.7374714945
 H   -0.9104658766   -0.4995575339    0.0113639799
 H    0.7356772676   -2.4704776459   -1.1461490951
 H    2.3891565785   -1.8197133604   -1.0785770085
 H    2.6103119499    0.6601993963    0.8973568881
 H    1.5928885789    1.3683039371    2.1745051138
 H    2.5506356789   -0.0851892240    2.5103256826
 H    0.1702919407   -1.4463204230    2.8590528104