17

 C    0.2542062302    1.4552362754   -0.2057709463
 N    0.0857905055    0.0145568996   -0.1321481460
 C    0.3744377079   -0.5859067231    0.9509784913
 C    0.1980725876   -2.0915080089    1.0259656273
 C    0.5564170879   -2.7192153631    2.3358698750
 C    1.0051505398   -2.0243121343    3.3817846391
 C    1.1833778498   -0.5618816031    3.3212876951
 O    1.5891044743    0.1128793008    4.2459807262
 N    0.8511671691    0.0315166732    2.1050389262
 H    1.2984123663    1.7674856679   -0.0458777867
 H   -0.0405967861    1.8012363526   -1.1991195769
 H   -0.3687713290    1.9920867960    0.5271535047
 H   -0.8429552921   -2.3268768485    0.7710828806
 H    0.7889732126   -2.5455471385    0.2203990125
 H    0.4342487855   -3.7968914708    2.4067475128
 H    1.2642156268   -2.4808959628    4.3290825010
 H    0.9834241939    1.0330789373    2.0953586941