17

 C   -0.4163251203    1.4677808642    0.0314210556
 C    0.0554632202   -0.0016965790   -0.0258219968
 C    0.8190659849   -0.3034057630   -1.2816413399
 C    2.0491296728   -0.8174736476   -1.2958836344
 C    2.7687356647   -1.1533656755   -0.0652022171
 N    3.9442215864   -1.6515037908   -0.1215784110
 N    2.0701377784   -0.8866178034    1.1195790665
 C    0.8044503508   -0.3482569190    1.2591201692
 O    0.3273312415   -0.1641335646    2.3587774325
 H    0.4367272409    2.1517888787   -0.0076654166
 H   -1.0719971194    1.6908561322   -0.8149351712
 H   -0.9612465233    1.6405141767    0.9610185311
 H   -0.8487006280   -0.6281498087   -0.0061002200
 H    0.3165890343   -0.0696574162   -2.2168739968
 H    2.5894209173   -1.0229580261   -2.2114275077
 H    4.3233129012   -1.8369919367    0.8093731297
 H    2.5259013476   -1.0981239713    1.9983881467