17

 O    0.1693475268    1.0693922745   -0.8118232947
 C   -0.0267863778    0.0926089373    0.1994079408
 C   -1.4408785466   -0.4366710063    0.1841638106
 C   -2.4971065322    0.0816730215    1.0871143822
 N   -1.8916676641   -1.2568324876    1.3211490634
 C   -2.6949232091   -2.2947797917    0.7630085867
 N   -3.2292899544   -3.2014519285    1.4518253223
 O   -2.8007466423   -2.1665576293   -0.6018867116
 C   -1.9305237896   -1.1337184650   -1.0771222609
 H   -0.3589609292    1.8419077129   -0.5848873143
 H    0.6731857560   -0.7184591643   -0.0281634630
 H    0.2178922221    0.4697545239    1.2018705049
 H   -2.2517458623    0.8111326730    1.8531588376
 H   -3.5225167417    0.1115340265    0.7282753911
 H   -3.7449808840   -3.8413706173    0.8480030425
 H   -2.4913755666   -0.4886129753   -1.7584645280
 H   -1.0932205951   -1.5807938042   -1.6253266793