13

 N    0.0547136069    1.3431082804    0.1372272059
 C   -0.0439419073   -0.0130760880    0.0233050420
 N   -1.1302993939   -0.7230628429   -0.0908920768
 C   -0.6536132578   -2.0222343226   -0.0847563257
 O   -1.4589279242   -3.1105038187   -0.2147393277
 C   -2.7993231333   -2.9840821948    0.0365225027
 O   -3.5341096918   -3.9116808724   -0.1000045563
 C    0.6908732894   -2.0478201437    0.0236359842
 O    1.0976594057   -0.7185624654    0.0915834761
 H    0.9361241125    1.7410397119   -0.1493206773
 H   -0.7582316229    1.8439362619   -0.1867830701
 H   -3.0753848072   -1.9714914011    0.3578946009
 H    1.4527552040   -2.8025640348    0.0560827422