16

 O    0.1352678106    0.2042170614   -1.0565630320
 C    0.0644134134    1.1635401376   -0.3536644377
 C   -1.0272690986    1.8259249233    0.4974771505
 N   -0.1288525354    3.0012295011    0.6674672857
 C    0.2230535578    3.4281929173    2.0287782050
 C    1.4899758636    2.6727955472    2.3899569852
 O    1.3502829236    1.2549386262    2.2471984176
 C    1.9872539282    1.9839570333    1.1863083589
 C    1.0381873179    2.2978360501    0.0466086729
 H   -1.9696427614    2.0449997051   -0.0164995694
 H   -1.2309208068    1.2625888300    1.4175089472
 H    0.4155591965    4.5088892350    2.0597114301
 H   -0.5996558090    3.2174004189    2.7202835544
 H    2.1431969192    3.0077666071    3.1925314674
 H    3.0332106926    1.7518549943    1.0093244133
 H    1.5406918379    2.8277474420   -0.7705800493