15

 N   -0.4552455036   -1.0626851213   -0.6340884955
 C   -0.2318041433    0.0285191719   -0.3252531861
 C    0.0451579669    1.4038271719    0.0788966958
 C   -0.3440276104    1.6734780682    1.5686157874
 O    0.5269212535    2.6961944649    2.0217372653
 C    1.7231954416    2.6144554998    1.2901526141
 C    2.4084883775    1.2820530308    1.1477417627
 C    1.5173418722    1.8101555721    0.0372727290
 H   -0.5195756016    2.0737635684   -0.5786413103
 H   -1.3732706717    2.0202092546    1.6814729733
 H   -0.2215731971    0.7560328942    2.1573762052
 H    2.2853308916    3.5390149591    1.3316663344
 H    3.4759407395    1.2934700997    0.9581502020
 H    2.0738553765    0.4398911368    1.7435165437
 H    1.9438546483    2.0868133489   -0.9183245511