14

 O   -0.0563529971    0.4376464376   -0.7860134691
 C    0.0875439697    1.2660489977    0.0864834071
 N    1.2751777569    1.5953151791    0.6644205986
 C    2.5326843613    1.0125345827    0.2373889385
 C    3.5591833193    2.0782706049    0.0040450990
 N    4.3888973648    2.0657647362   -1.0028101749
 O    5.1664226790    3.2158405656   -0.7964192791
 C    4.6982990479    3.7848257823    0.3115446158
 N    3.7149922680    3.1490939883    0.8641029439
 H   -0.7500439151    1.8483686239    0.5169387617
 H    1.3071377383    2.3268664594    1.3574326169
 H    2.9147479261    0.3119666011    0.9925677829
 H    2.3480607062    0.4492482478   -0.6783138849
 H    5.1715170045    4.7003600534    0.6350721638