19

 C   -0.5937366018    1.2616017023   -0.0690897780
 C    0.0059329305   -0.1354305096   -0.0751454109
 C    1.2894344502   -0.4082423495   -0.9198952613
 O    2.0000140365    0.8014472593   -1.1047576373
 C    1.8437170651   -1.2863810344    0.2423175349
 C    0.7797550809   -0.6612349130    1.1478577392
 C    0.9682000177    0.0243355122    2.4425388349
 N    0.2532962057   -1.2697915547    2.3626928555
 H    0.1745720750    2.0134947037    0.1212869081
 H   -1.0619783068    1.4930514246   -1.0313842801
 H   -1.3677233386    1.3499973437    0.7022373215
 H   -0.7551814784   -0.8744592572   -0.3568928237
 H    1.1287402531   -0.9196307818   -1.8779370544
 H    2.8819971697    0.5810723563   -1.4200302431
 H    1.6762062765   -2.3561830744    0.0851116638
 H    2.8917534486   -1.1188334878    0.5060829794
 H    1.9306238402   -0.0177042380    2.9463872948
 H    0.3956966118    0.9278109059    2.6368842953
 H   -0.7509195760   -1.1135259175    2.4258055613