17

 C   -0.0931953577    1.5420272218   -0.0082134594
 C    0.0099352597    0.0138693155   -0.0119150470
 O   -1.2917978050   -0.5685568411   -0.0299868322
 C    0.9091295115   -0.4764345023   -1.1917364385
 C    2.2302476683   -0.7850387451   -0.5351510690
 C    2.1340256095   -0.7961995606    0.7937451089
 C    0.7341429276   -0.4978915648    1.2630041959
 H    0.9001545689    1.9976242604    0.0583021807
 H   -0.5633847537    1.9042069278   -0.9311479118
 H   -0.6924487601    1.8823051960    0.8415778748
 H   -1.7771364208   -0.1863429249   -0.7688839504
 H    0.4658157313   -1.3771616210   -1.6371131956
 H    0.9889442121    0.2692156289   -1.9929442766
 H    3.1305270663   -0.9995169092   -1.1008019881
 H    2.9443327211   -1.0206797380    1.4787150862
 H    0.6950795871    0.2324866256    2.0796227606
 H    0.2293043040   -1.4024329490    1.6253871115