23

 C   -0.2357573695    1.5411058104    0.0089319619
 C    0.0317316867    0.0339765303    0.0006784322
 C    0.8055881352   -0.4455026189   -1.2637027480
 C    1.9519902976   -1.3778137973   -0.8282146221
 C    2.9794568057   -0.5702990867   -0.0133670534
 C    2.2678439303    0.0079691202    1.2431336577
 C    0.8080518872   -0.4681702691    1.2350038610
 O    0.7830755379   -1.8993318661    1.2466161743
 C    1.3769761183   -2.4722051824    0.0762382107
 H    0.6936279199    2.1196511497   -0.0367738954
 H   -0.8413350811    1.8297170996   -0.8568148758
 H   -0.7776881609    1.8478150642    0.9105666557
 H   -0.9353546112   -0.4804765443    0.0385491235
 H    0.1331608501   -0.9644523304   -1.9551237465
 H    1.2193314102    0.4109453325   -1.8097195764
 H    2.4274570197   -1.8399230576   -1.6994411466
 H    3.8140889267   -1.2166438834    0.2774668249
 H    3.3998572013    0.2282896731   -0.6335627212
 H    2.7435764846   -0.3468215153    2.1616869945
 H    2.3126901959    1.1014240624    1.2652427385
 H    0.2953896530   -0.1683838634    2.1540808693
 H    0.6156838915   -3.0601323816   -0.4581628013
 H    2.1670810709   -3.1671080059    0.3949524724