19

 C    0.2664860721    1.6548293933   -0.0883284130
 C   -0.0334758500    0.1625870954    0.0279666078
 O    0.5495453387   -0.5285546626   -1.0865679699
 C    1.2325245767   -1.6842194074   -0.6535814034
 C    1.3147706271   -1.5471866864    0.8518170845
 C    0.5699702002   -0.5158781302    1.2310729441
 C    0.4597243953   -2.9721561066   -1.0282089499
 C    1.2812659668   -4.2477192417   -1.0598428468
 O   -0.7211986764   -2.9449008356   -1.2650311959
 H    1.3442964839    1.8354213055   -0.0409050342
 H   -0.1099987134    2.0381428629   -1.0406815132
 H   -0.2203497943    2.2086657681    0.7211160987
 H   -1.1246619275    0.0117147760    0.0095153760
 H    2.2254115491   -1.7221149475   -1.1292093564
 H    1.8688085317   -2.2266578628    1.4860138558
 H    0.3961061215   -0.1803718234    2.2456821809
 H    1.8934233772   -4.3479291542   -0.1566827051
 H    0.6237872479   -5.1117796485   -1.1617251612
 H    1.9733391834   -4.2172303842   -1.9098817290