23

 C   -0.1456184093    1.6369900990   -0.0521232210
 C   -0.0581450194    0.1041128598   -0.0176778719
 C    0.8493628702   -0.4132479415   -1.1456163196
 C    0.6756425518   -1.8965962055   -1.4843233607
 C    1.2863547141   -2.9040075109   -0.5038534205
 O    2.7232005721   -2.8358810795   -0.5255722139
 C    0.8003751674   -2.8680796914    0.9261899457
 C    0.4592452211   -1.8263485411    1.6896295391
 C    0.3802009803   -0.3499844068    1.3846541544
 H    0.8422995183    2.0901892252    0.0947435315
 H   -0.5314297094    1.9889007684   -1.0141674530
 H   -0.8053680010    2.0194667696    0.7340068402
 H   -1.0668616198   -0.2959684092   -0.1951047727
 H    0.6368305075    0.1676985435   -2.0511659338
 H    1.9020634064   -0.2081950404   -0.9041564626
 H   -0.3925826730   -2.1244821251   -1.5977440062
 H    1.1448024443   -2.0961118054   -2.4545181520
 H    1.0625096584   -3.9011507008   -0.9023678706
 H    2.9879658303   -2.2026023151    0.1486949190
 H    0.8297864819   -3.8391191974    1.4171704106
 H    0.2359876272   -2.0593306009    2.7305119036
 H    1.3610973518    0.1025802666    1.6070688791
 H   -0.3026369412    0.1014418187    2.1150587853