17

 O   -0.0457336424    1.4770444459    0.0513239786
 C   -0.0284441204    0.0582147355    0.0179284521
 C   -1.3896328232   -0.4544523370    0.0050807971
 C   -2.5034416617   -0.9190780985   -0.0064545722
 C   -3.8469422462   -1.4609619303   -0.0193902206
 O   -4.0507455829   -2.6616734896   -0.0461400953
 C   -4.9456858305   -0.4562491596    0.0022189846
 C   -6.2212453886   -0.8121109879   -0.7507869776
 C   -6.2220634137   -0.8450259118    0.7373447737
 H    0.8691416936    1.7767135164    0.0578140312
 H    0.4945545538   -0.3216301076   -0.8751765310
 H    0.4936482150   -0.3632509461    0.8927092824
 H   -4.6421276642    0.5831082370    0.0253858995
 H   -6.7296120154   -0.0029550071   -1.2619626114
 H   -6.2048413846   -1.7627507800   -1.2711483506
 H   -6.2062416784   -1.8177335179    1.2152105639
 H   -6.7310300203   -0.0592806416    1.2832692656