14

 O    0.0313162025    0.0443698600    0.0390524720
 C   -0.0011620308    1.2392790920    0.0212546477
 C   -1.2049002896    2.2120701988    0.0426350538
 C   -0.3675539047    3.5008376387    0.0208277753
 O    0.6194345148    3.1955285260   -1.0160429346
 C    1.1576604160    2.2572025246   -0.0388502478
 C    0.7380313510    3.2483445375    1.0958307199
 C    1.6599683080    4.3518972476    1.2936408740
 N    2.3901935856    5.2279237502    1.4796635213
 H   -1.8171549818    2.1149925030   -0.8565418457
 H   -1.8349408261    2.0681441272    0.9242251094
 H   -0.8530483633    4.4673716220   -0.0925784599
 H    2.1761606906    1.9196243098   -0.2100053590
 H    0.4279230678    2.8255243627    2.0557539438