16

 O    0.0351029522    0.0668199510   -0.3977112386
 C   -0.0205999826    1.2095974763   -0.0312071428
 C   -1.2888566711    1.9936259318    0.3412603004
 C   -0.7862791650    3.3051469110    0.9097466968
 N    0.0934568348    3.1094972196    2.0758539844
 C    0.6958659975    3.3965846974    0.7546380510
 C    1.1835627625    2.1439071941    0.1013092881
 C    2.5505487285    1.6163237539    0.1240756587
 O    2.0292426186    2.2404218541   -1.0499559535
 H   -1.8756664548    2.1487897112   -0.5723651825
 H   -1.9028441284    1.4182005974    1.0389824243
 H   -1.4074330573    4.1925146438    0.8579457543
 H    0.1105136944    3.9518365039    2.6453029299
 H    1.2118749809    4.3323706160    0.5729376522
 H    3.3232394914    2.1743269490    0.6503977213
 H    2.6897782186    0.5397097496    0.0505873162