25

 C   -0.5342203302    1.4193011209    0.2104810511
 C    0.1435618603    0.0657803951   -0.0191282478
 C    0.6620478067   -0.5771699824    1.2714911993
 C    1.3392205551   -1.9341097632    1.0423196887
 C    1.8567813883   -2.5617496840    2.3204490047
 C    0.9189350516   -3.3425313004    3.2271213524
 C    2.0083181432   -4.0463874019    2.4511719446
 O    1.6667272439   -4.8226579631    1.3465457378
 C    1.2394770808   -6.1221938973    1.6978511710
 H    0.1584445321    2.1365399769    0.6650860532
 H   -0.8929422811    1.8529529777   -0.7284132964
 H   -1.3944926530    1.3223689648    0.8823411638
 H   -0.5622353346   -0.6206625989   -0.5056653633
 H    0.9776299682    0.1880099337   -0.7230802425
 H    1.3699117718    0.1081509377    1.7590718940
 H   -0.1696403323   -0.7027333696    1.9780635000
 H    0.6395029895   -2.6251452959    0.5603632649
 H    2.1730455842   -1.8106547830    0.3377429807
 H    2.6209341520   -1.9776236517    2.8287127858
 H    1.0093714075   -3.2471010104    4.3037943182
 H   -0.0955156036   -3.4834876023    2.8668125381
 H    2.8634376650   -4.4295874527    3.0117107744
 H    2.0288893296   -6.6791986621    2.2256543792
 H    0.3476921489   -6.0971315420    2.3406379742
 H    0.9991702959   -6.6455011160    0.7692417637