17

 C    0.0010016561    1.4820332432    0.0580679082
 C   -0.1374866002   -0.0162408814   -0.1484739843
 O    0.8953773959   -0.4471945026   -1.0192300668
 C    0.8947648367   -1.8249398602   -1.2533938263
 C   -0.0785658008   -2.3873547828   -2.3214641918
 O    1.0229349953   -2.9261976804   -3.0811875945
 C    1.9910299181   -2.2792328485   -2.2285297638
 H    0.9749016031    1.7198249313    0.4950337544
 H   -0.0846051070    2.0101230830   -0.8957105630
 H   -0.7812817304    1.8479202695    0.7296222904
 H   -0.0639043398   -0.5512550498    0.8131983654
 H   -1.1243573760   -0.2564328880   -0.5765726983
 H    0.8719902309   -2.3833082888   -0.3065035949
 H   -0.7815284134   -3.1679375929   -2.0088107208
 H   -0.6169967165   -1.6014561855   -2.8684536110
 H    2.4872809029   -1.4340351165   -2.7219570260
 H    2.7428793550   -2.9801680997   -1.8499821071