15

 O   -0.0159343969    1.3957715572   -0.0813887645
 C    0.0325857785   -0.0068548473    0.0423850100
 C   -1.3632775763   -0.6582725432    0.0776936738
 N   -2.1855983426   -0.2671589656   -1.0815750165
 C   -1.5066126468   -1.5811840812   -1.0762114009
 C   -0.1852159280   -1.5888140111   -1.8296320436
 O    0.1777127954   -0.3323445449   -2.4057056678
 C    0.7477771573   -0.6853682760   -1.1398233725
 H   -0.5483810173    1.5563289692   -0.8729190368
 H    0.5701228549   -0.2240072951    0.9714535775
 H   -1.8470207463   -0.8301930945    1.0335915340
 H   -3.1693940357   -0.3962580542   -0.8571691941
 H   -2.0973540303   -2.4894818332   -1.0336686431
 H    0.1221120583   -2.4715557574   -2.3834260683
 H    1.8284709058   -0.8065793426   -1.1328531771