16

 C    0.1270417888    1.6409564633    0.0922005890
 C    0.1260342849    0.1225023402    0.0163070368
 C    0.8377272504   -0.6440324365   -1.1636944451
 C    1.9295800718    0.0935261604   -1.7707291447
 N    2.8325312703    0.6658628203   -2.2125412119
 C    1.3828519745   -1.7107318595   -0.1055373115
 O    2.6396873181   -2.2703105308   -0.2164161409
 C    1.0584251481   -0.6505917174    0.9696262941
 O    1.5363956412   -0.3933194620    2.0340757959
 H    1.1332074532    2.0435968248   -0.0497987508
 H   -0.5277306574    2.0771240086   -0.6673550572
 H   -0.2281751643    1.9583545289    1.0765087891
 H   -0.8924209352   -0.2726036895    0.1067877284
 H    0.1820005899   -1.0511644153   -1.9338213027
 H    0.6590548933   -2.5314359656   -0.0557809059
 H    3.3047823527   -1.5797466601   -0.1059369128