20

 C   -0.1226911891    1.5479228244    0.0402492928
 N    0.0903618259    0.1021580030    0.0241440745
 C    0.6558251613   -0.5481076236   -1.1465686845
 C    2.2097589571   -0.5887006988   -1.0332407145
 C    2.5603216716    0.0185267125    0.3041856716
 O    2.8698974306    1.3953028794    0.3310856319
 C    1.1771400113   -0.5308932217    0.8099645140
 C    1.3160661801   -1.6139615979   -0.3398655629
 C    1.2724355283   -3.1053028433   -0.3490865362
 H    0.7342346210    2.1394097596   -0.2996331552
 H   -0.9900621591    1.7730051206   -0.5907547713
 H   -0.3733893387    1.8540183241    1.0620008697
 H    0.1454243214   -0.6147852678   -2.1004949049
 H    2.8570268168   -0.7432917395   -1.8874368175
 H    3.3612552816   -0.5702612490    0.7747657275
 H    3.1276483671    1.6319607717    1.2277638159
 H    0.9895338340   -0.6990845362    1.8711363501
 H    0.3265677517   -3.4782976591    0.0590607049
 H    1.3685960228   -3.4866388283   -1.3714012799
 H    2.0873940143   -3.5390232399    0.2418144642