19

 C   -0.0975727925    1.6191270028    0.3084975564
 C   -0.0343730442    0.1195255265    0.1095345575
 C    1.2580440144   -0.5051264373   -0.3851181384
 C    0.8060313407   -0.7076028408    1.0424888015
 O    1.4580168079   -0.0369531187    2.0808118695
 C   -1.3294919356   -0.5364913634   -0.3750708232
 O   -2.4024713331   -0.3650119393    0.5465209341
 C   -1.6983469442   -0.0759096934   -1.7199536046
 C   -2.0170876340    0.3360871652   -2.8036881610
 H    0.8408746474    1.9928432453    0.7199338505
 H   -0.2984475154    2.1297995851   -0.6387085920
 H   -0.8882707625    1.8825446131    1.0196914227
 H    1.2094250285   -1.3409313450   -1.0760907646
 H    2.0944301932    0.1672148420   -0.5450439157
 H    0.4190969255   -1.6906611191    1.3130342917
 H    2.3248179460   -0.4398582785    2.1953402844
 H   -1.1687453420   -1.6212598905   -0.4136857177
 H   -2.7525607626    0.5239565959    0.4261429085
 H   -2.2991400274    0.6836576900   -3.7669312296