17

 C   -0.1030310831    1.6250257601    0.0800485095
 C    1.4039407605    1.2661329757    0.0840020803
 O    1.1111534176    0.1917620715    1.0656844485
 C    0.0407599131    0.0829751400    0.0356358387
 C    1.1340802336    0.2325840146   -1.0314994712
 C    1.0411323361    0.3016421941   -2.5716216294
 C    2.5805358706    0.1449106043   -2.6454836523
 C    2.0262991713   -0.8715213805   -1.6157977752
 O    0.9241775769   -1.1782276153   -2.5696590698
 H   -0.4758907014    2.0201797960    1.0254021752
 H   -0.5161283277    2.1337328485   -0.7947506008
 H    2.2703353534    1.8996138983    0.2741024897
 H   -0.7097055751   -0.6949831201    0.1638464446
 H    0.3658435044    0.8593577538   -3.2204778217
 H    2.9455628077   -0.2991713729   -3.5719885673
 H    3.2066006496    0.9638033048   -2.2819412454
 H    2.5177643526   -1.7080217428   -1.1222557733