20

 C    0.0035001717    1.3722955604    0.0464083799
 O   -0.0597750785   -0.0298981088   -0.0696904060
 C    0.6956869116   -0.5406810850   -1.1575179372
 C    0.5921095648   -2.0544543468   -1.0730335321
 O    1.0395517712   -2.5009518043    0.1883273997
 C   -0.7786150560   -2.7160200633   -1.5066487535
 C   -0.0066025711   -3.5004048122   -2.5718102375
 N    0.6234083674   -2.4848664829   -3.4524140519
 C    1.2793862021   -2.8692035586   -2.1760430137
 H    1.0360769733    1.7212865001    0.2028708710
 H   -0.3954928800    1.8707916814   -0.8499194321
 H   -0.6025355465    1.6584595179    0.9096425626
 H    0.3094101006   -0.1769966896   -2.1179562286
 H    1.7510037673   -0.2340657923   -1.0643023874
 H    0.6523320566   -1.8893346333    0.8282800654
 H   -1.1484132659   -3.3439800965   -0.6948784340
 H   -1.5682384304   -2.0583769005   -1.8774832044
 H   -0.2006836714   -4.5010044783   -2.9374737295
 H    1.1117113177   -2.9878603375   -4.1930147909
 H    2.2878377655   -3.2628852400   -2.1443571099