17

 O    0.2223170217    1.3665583807   -0.2564990968
 C    0.1262069416   -0.0084641221   -0.0733133516
 C    1.2731710680   -0.8018149627   -0.6277757804
 C    1.1115375125   -0.6742460826    0.8701617628
 C   -1.2463592015   -0.5910597545   -0.1406385205
 O   -2.2612261278    0.0321601468    0.6449517619
 C   -2.4336609875    0.0515130142   -0.7671567610
 C   -2.4570452551    1.3906968551   -1.4422144252
 O   -2.3485065343    2.4482521617   -0.8767375455
 H   -0.4760537365    1.7938867012    0.2590638105
 H    1.0708335104   -1.7595044953   -1.0953549489
 H    2.0551346246   -0.2198609570   -1.1011278791
 H    1.7848318295   -0.0028864730    1.3894191239
 H    0.7972584815   -1.5436293745    1.4376213379
 H   -1.2650287899   -1.6823304772   -0.1029173635
 H   -3.2003491222   -0.6263335779   -1.1539303878
 H   -2.6446002549    1.3297428071   -2.5366742966