19

 O    0.1679992814   -0.0398651768   -0.0971738153
 C    0.0257505750    1.1568043160   -0.0163109737
 C   -1.3651721813    1.7909351977   -0.0317108733
 C   -1.6834689870    2.6266690605   -1.2929347170
 C   -0.6098781125    3.6422705002   -1.6673604862
 C    0.1054425733    4.3498009856   -0.4975852686
 C    1.2139859729    3.3050772411   -0.7477750326
 C    1.2429601575    2.0751528106    0.1605585961
 O    0.6245015965    2.9662278707   -2.0330984318
 H   -2.0863277867    0.9754970548    0.0595455809
 H   -1.4645485090    2.4226980953    0.8601643293
 H   -1.8117481900    1.9552073204   -2.1495239199
 H   -2.6396512381    3.1431985836   -1.1444312963
 H   -0.9588242511    4.2848365370   -2.4827358354
 H    0.4253798383    5.3615012787   -0.7507871516
 H   -0.3829134992    4.3613787295    0.4781909091
 H    2.2237759386    3.7099064472   -0.8676319707
 H    1.2998963533    2.3897655811    1.2125439707
 H    2.1246807883    1.4634288269   -0.0461536338