17

 O    0.5010955698    0.5855398909   -0.7996536396
 C   -0.0761485332    0.3314538945    0.4637362409
 C   -1.4213011963   -0.4090328450    0.3274487498
 C   -2.2653278513    0.4367954437   -0.5257444225
 N   -2.8426062757    1.1578082944   -1.2221998702
 C   -1.5217654540   -1.9517398297    0.1162200773
 C   -1.1118046227   -2.0577916373    1.5986925962
 N   -2.1253147709   -0.8898791970    1.6339924142
 C   -2.9472413071   -1.8022369877    0.6915389298
 H   -0.0488785142    1.2298516274   -1.2606482233
 H    0.6522840536   -0.2692053419    1.0076058833
 H   -0.2491073598    1.2513979293    1.0408584343
 H   -1.1745570177   -2.5249533786   -0.7476171119
 H   -1.4681605972   -2.9308341552    2.1482471813
 H   -0.1010159835   -1.7991156780    1.9083100909
 H   -3.7003195328   -1.2723559318    0.1064170374
 H   -3.3754644669   -2.6623433879    1.2089476620