13

 C    0.0216617519   -1.2208946933   -0.0048975090
 C   -0.0222187983   -0.0202857208    0.0020858516
 C   -0.0336909431    1.4355018084    0.0099961006
 C    1.4066266916    2.0196918086   -0.0004959032
 C    1.4160113882    3.4716658302    0.0071969631
 C    1.3969134682    4.6797723151    0.0139367532
 C    1.3838943183    6.0448655718    0.0216045051
 N    1.3717455363    7.2065188963    0.0281788013
 H    0.0407159900   -2.2828121983   -0.0107369758
 H   -0.5800511160    1.8148022394   -0.8607099014
 H   -0.5634487063    1.8053878108    0.8948963865
 H    1.9558728999    1.6441171748    0.8704843025
 H    1.9392626194    1.6535346371   -0.8856867745