16

 O   -0.0581339245   -0.0123525291    0.1403651641
 C    0.0772778531    1.1529236922   -0.1456601800
 C    1.3659453579    1.8868477199   -0.0790959676
 C    2.7022201628    1.2593564449    0.3779241026
 C    3.1010458725    2.7128882186    0.7367374101
 C    2.9515729241    3.5497658992   -0.5526564484
 C    1.7038214394    2.9769688654   -1.1265828390
 N    1.6223552164    4.1526930751   -0.1942997085
 C    1.5998789883    3.1027878521    0.9142129193
 H   -0.7929120942    1.7716031506   -0.4638779393
 H    2.5595443928    0.6366274623    1.2649370251
 H    3.2987650224    0.7242508468   -0.3650370598
 H    3.8855073687    2.9628182583    1.4470896830
 H    3.6949706731    4.0971746668   -1.1182151223
 H    1.3990720707    3.0413050768   -2.1638289071
 H    1.0612189565    3.2721436000    1.8435848677