17

 O   -0.1516822160    0.1051227056   -0.0246677643
 C   -0.0071072342    1.2777521956    0.0912974712
 O   -1.0080172066    2.2315039523    0.3088654019
 C   -0.0338040865    3.2877745353    0.0498058683
 C    0.9892524162    3.2966275455    1.1169820038
 C    1.1048769773    2.2888238538   -0.0363469034
 C    1.9489252038    2.6023007931   -1.2558705400
 C    1.4527282473    4.0227377809   -1.6849238312
 C   -0.0231691811    4.1389409995   -1.1920157378
 H    1.7304059946    4.0895564309    1.1104904050
 H    0.7138480063    2.9382644506    2.1020486693
 H    3.0278060399    2.5834549600   -1.0789093581
 H    1.7365857950    1.8643112110   -2.0359056036
 H    2.0638652439    4.7925689370   -1.2021353411
 H    1.5405711735    4.1878512809   -2.7618536747
 H   -0.7101503268    3.6849734083   -1.9139262085
 H   -0.3330109067    5.1771860696   -1.0433923369