17

 C    0.3481602611    1.6099974701   -0.2386641518
 C    0.0140056485    0.1364561724    0.0412101586
 C    0.4302183423   -0.7135796568   -1.1573502982
 O   -0.3084203870   -1.4099113019   -1.8014212938
 C    0.7081648476   -0.4080675140    1.2610130497
 C    1.7324372692    0.1450814822    1.9696051715
 O    2.1067101332   -0.6655435828    2.9935731782
 C    1.3106780042   -1.7657671623    2.9368459860
 C    0.4402037846   -1.6703649332    1.9017984115
 H    1.4133140197    1.7394277520   -0.4600176219
 H   -0.2205268572    1.9810450187   -1.0956155393
 H    0.1060832053    2.2281362600    0.6301637566
 H   -1.0687462431    0.0113452940    0.1476903990
 H    1.5185986402   -0.6433350779   -1.3915104768
 H    2.2747417804    1.0718925401    1.8881099991
 H    1.4882185364   -2.5107951034    3.6946040273
 H   -0.3064365455   -2.3947513672    1.6149911543