15

 N    0.0459520788    1.3375527089    0.0666340058
 C   -0.0135757133   -0.0341467447    0.0039951377
 N   -1.0992327457   -0.7278979357    0.0349867432
 C   -0.7090252549   -2.1128190124    0.0437229976
 C    0.0140678008   -2.6353743694   -1.1950868239
 C    0.8378241777   -2.1377750917   -0.0493335772
 N    1.1942105842   -0.7394297834   -0.0777682191
 C   -1.4722459503   -3.0243107881    0.8516618043
 N   -2.0602989252   -3.7817086816    1.4987803398
 H    0.7556113920    1.7653430178   -0.5098330925
 H   -0.8599811752    1.7744374329   -0.0249390089
 H    0.0021481839   -3.7082899490   -1.3499288960
 H   -0.0666131844   -2.0285456000   -2.0907426996
 H    1.4773516177   -2.8046093326    0.5138309001
 H    1.9230897041   -0.4424575110    0.5580041987