18

 O   -0.2069306889    1.4756469457   -0.0390376752
 C   -0.0148419831    0.0823660425   -0.0001033433
 C    0.3304552777   -0.5971348176    1.3557074459
 C   -0.6946636776   -1.7095350080    0.9976667823
 C   -1.5641882099   -2.2838765961    2.1198972936
 C   -2.6147416401   -3.2343840896    1.5917179158
 O   -2.7253037950   -4.3896980102    1.9141923223
 C   -1.3242272296   -0.7289355155   -0.0362956742
 H    0.6553535685    1.9031538126   -0.0489886342
 H    0.6755102817   -0.2480670649   -0.7895215105
 H    1.3649121186   -0.8903214154    1.5512159052
 H   -0.0339444941    0.0242684414    2.1800568133
 H   -0.1889254648   -2.5300307901    0.4771318039
 H   -0.9576724733   -2.8146689975    2.8604768112
 H   -2.0814607287   -1.4562916825    2.6268963342
 H   -3.3070840268   -2.7846354966    0.8419440816
 H   -2.1267020075   -0.1366738449    0.4155695255
 H   -1.6648179271   -1.1201752135   -0.9970876773