17

 C   -0.0833613371    1.5873905528   -0.1149467778
 C   -0.0084804396    0.0718006886   -0.0554744300
 O   -1.2687241798   -0.5450213875   -0.2424630273
 C    1.1372309410   -0.6334989367   -0.8853035229
 C    1.6787095602   -1.2009303542    0.4281836513
 O    1.9632678726   -0.1131232546    1.2938985406
 C    0.6063311845   -0.5443269421    1.2280182079
 C   -0.0840423832   -1.0448037253    2.4413272201
 O    0.4783673921   -1.3404645044    3.4666331085
 H    0.8801555306    2.0253334936    0.1555592715
 H   -0.3358063388    1.9219688102   -1.1287244323
 H   -0.8500642741    1.9598680708    0.5712999003
 H   -1.6502900356   -0.2117301862   -1.0615980647
 H    0.7128182503   -1.3981118162   -1.5390567711
 H    1.8334778992    0.0016900980   -1.4386506320
 H    2.1865250046   -2.1380071329    0.6261343897
 H   -1.1806542970   -1.1472518037    2.3156520982