17

 C   -0.0208123374    1.5462619542    0.2077215802
 C    0.0331651640    0.0553650040    0.0843701031
 C   -0.0644924467   -0.7062075099   -1.0591975205
 N    0.0324921995   -2.0306673287   -0.7169129544
 C    0.2016546709   -2.1544063209    0.6404444708
 C    0.1985668328   -0.8747984642    1.1495882669
 O    0.3721822865   -0.4898779637    2.4589328676
 C   -0.3582580892   -1.1278219207    3.4052607729
 N   -0.0985951533   -0.9429006675    4.6249525886
 H   -0.1858756555    2.0130934006   -0.7672613895
 H   -0.8285135151    1.8672117592    0.8749261834
 H    0.9092431357    1.9512205150    0.6214603479
 H   -0.1987427386   -0.4044018211   -2.0857396487
 H   -0.0035793711   -2.7990166907   -1.3620257519
 H    0.3336154432   -3.1109039194    1.1172248935
 H   -1.1435030467   -1.7619097211    2.9747543630
 H   -0.7558779588   -1.4663613452    5.1995652270