20

 C   -0.2944693291    1.4984723730    0.0455248819
 C   -0.0486569106    0.0034468036   -0.0216959661
 C    0.5043309775   -0.5946189715   -1.3312042811
 O    1.5172942617    0.2427054898   -1.9266747830
 C    2.5822231321   -0.3894227079   -1.1549984696
 C    3.1503781456    0.5142553362   -0.0587981851
 C    2.2102233433    0.2750487562    1.1652998228
 N    1.1115998978   -0.6064759465    0.7422573663
 C    1.5595783802   -1.3275761273   -0.4805122009
 H    0.5365545392    2.0635003909   -0.3830358247
 H   -1.1960622143    1.7456226227   -0.5252712293
 H   -0.4585087831    1.8263092412    1.0773139638
 H   -0.9572199799   -0.5302771909    0.2871658641
 H   -0.1716754300   -1.0230339226   -2.0739812383
 H    3.3352382756   -0.8169818341   -1.8243368073
 H    4.1853050755    0.2413439829    0.1718262466
 H    3.1510627550    1.5531097608   -0.4002313868
 H    2.7650602511   -0.2238034411    1.9686236600
 H    1.8124318513    1.2012316145    1.5864849440
 H    1.7317758009   -2.4005673398   -0.3968137671