20

 C    0.0479201661    1.6099480462    0.1515358390
 C    0.0569798175    0.0762661212    0.0931129018
 C    0.7926573561   -0.5340928219    1.2918087131
 O   -1.2956194429   -0.4477085003    0.0091463289
 C   -2.1773854106   -0.1996228469    0.9955963970
 N   -3.3512701974   -0.6581236497    0.9082974379
 C    0.7021734528   -0.4161195633   -1.2188149796
 C    0.0200243100    0.0964581851   -2.4731445285
 O    0.6007183930    0.6480501838   -3.3738225937
 H    1.0683974088    1.9918473159    0.0548353407
 H   -0.5503456729    2.0278506422   -0.6627813433
 H   -0.3550358271    1.9786150095    1.0986377861
 H    0.3652717683   -0.1990789072    2.2411340835
 H    0.7408399971   -1.6256050103    1.2553473905
 H    1.8449003783   -0.2353571115    1.2794686570
 H   -1.7833483351    0.4018689792    1.8218538418
 H   -3.8903313267   -0.3857839728    1.7277740251
 H    1.7564681502   -0.1306127618   -1.2562779535
 H    0.6354520015   -1.5119553232   -1.2333754870
 H   -1.0733762069   -0.0864874041   -2.5145235868