20

 C    0.0975725666    1.5195636942   -0.0731855333
 C    0.0132972809   -0.0033532809   -0.2189325448
 C   -1.3893460206   -0.5525597289    0.0056353359
 C   -1.6054970351   -2.0666617009   -0.1163437779
 N   -0.8041470315   -2.7004235840    0.9586872253
 C   -2.1482328141   -2.1651904731    1.2617872791
 C   -1.9849590598   -0.6497839665    1.4902201451
 C   -1.1901250686   -0.2212086368    2.6240658467
 C   -0.5453931153    0.1381111366    3.5739523641
 H    1.1170260428    1.8753568031   -0.2523034043
 H   -0.5608674859    2.0254121111   -0.7892710765
 H   -0.1934471745    1.8349037160    0.9329829070
 H    0.3350710750   -0.2945345850   -1.2281605729
 H    0.6992980660   -0.4917011436    0.4792225119
 H   -2.1125989633   -0.0146291262   -0.6162735502
 H   -1.8731064798   -2.6202891608   -1.0082476007
 H   -0.9019218872   -3.7097013778    0.8538559257
 H   -2.9248084118   -2.7982495392    1.6725330019
 H   -2.9632543929   -0.1607783668    1.5173295300
 H    0.0310112292    0.4445255396    4.4112378079