20

 O    0.5814342598    0.4387790289    1.1754643290
 C    0.0430661003    0.1144084376   -0.0980472518
 C   -1.3235703997   -0.5692612666   -0.0425025542
 C   -1.7140444402   -1.9860499775   -0.2968749717
 C   -0.8276739764   -3.1931476200    0.0314236935
 C   -1.6020954508   -3.6769066749    1.3171642770
 C   -1.0479750191   -2.3170781787    1.8526044366
 C    0.2253112587   -2.6536331166    1.0384345655
 N   -1.9123159537   -1.3839909615    1.0583549448
 H   -0.1277231872    0.8226655026    1.7015159321
 H   -0.0785323968    1.0239054451   -0.7058249349
 H    0.7947502206   -0.4974368424   -0.6012931223
 H   -2.1034191305    0.1206769873   -0.3677604870
 H   -2.6074843523   -2.1806701034   -0.8879000540
 H   -0.5696625566   -3.8669281086   -0.7852189117
 H   -2.6885071081   -3.7712131963    1.2532867258
 H   -1.1557799224   -4.5546077387    1.7892394953
 H   -1.0226710529   -2.0573862890    2.9098459470
 H    0.7690292468   -3.4810318988    1.4997122391
 H    0.9257264706   -1.8684923786    0.7827895321