21

 C   -0.2909652702    1.3610858320    0.1319142123
 C    0.1381931764   -0.0815981227   -0.2090765126
 C    0.9039557344   -0.1408752941   -1.4531474392
 C    1.5565449261   -0.1795632237   -2.4621076729
 C    0.9594912338   -0.6669746300    0.9341689780
 O    0.2510640804   -0.9925078619    2.1314090013
 C    0.9051048999   -2.0606133388    1.4100457040
 C   -0.0131881604   -3.0949371570    0.7962219845
 C    2.1182890657   -2.6309663815    2.1148752807
 H    0.5843380109    2.0053407967    0.2575813837
 H   -0.9096720103    1.7794496896   -0.6657493703
 H   -0.8627455555    1.3615392204    1.0636416343
 H   -0.7694371341   -0.6832781582   -0.3263508565
 H    2.1220085996   -0.2188975276   -3.3599853996
 H    1.8933066532   -0.1242744288    1.1023763386
 H   -0.9189501995   -2.6480024976    0.3843161115
 H    0.5014785358   -3.6404689712   -0.0017246789
 H   -0.3162500528   -3.8222146353    1.5572477954
 H    1.8097828310   -3.3111301235    2.9163047074
 H    2.7421429387   -3.1977964741    1.4154813431
 H    2.7232165569   -1.8351947125    2.5558876853