15

 O    0.8098618079    0.7946441177    1.3804046019
 C    0.3754115825    1.3743525206    0.4055877658
 N    1.0636554672    1.5621801667   -0.7499461789
 C    2.4511245763    1.1268987455   -0.8899074107
 C    3.4461011171    2.0910695264   -0.3157015329
 N    4.2478336469    2.8242797614   -1.0932504592
 N    4.9511106783    3.5325653105   -0.2199540379
 N    4.6837235885    3.3311645726    1.0640506961
 C    3.7210896258    2.4108490549    1.0284857076
 H   -0.6468464860    1.7975844155    0.3577499341
 H    0.6712354988    2.1671339989   -1.4536696495
 H    2.5319511069    0.1629699821   -0.3813874313
 H    2.6642390371    0.9804323380   -1.9507214307
 H    5.6616947809    4.1819750365   -0.5159185185
 H    3.2658359420    2.0243458227    1.9255189040