19

 C    0.0189683551    1.5847702153    0.0140359952
 C    0.0110329155    0.1294236888    0.0085578222
 C    0.0058286882   -1.0751328259   -0.0044335610
 C   -0.0394206692   -2.5180956954    0.0049851810
 C    0.3175826688   -3.3191952193    1.3078047697
 C   -0.8932859859   -4.2745771593    1.0733272662
 C   -1.8043286696   -4.6676113764    2.2273464150
 C   -1.4209482763   -3.2411367605    0.0642403912
 O   -2.5011996055   -2.9949717963   -0.3791784640
 H    1.0383311834    1.9795339868   -0.0616075383
 H   -0.5546057497    1.9849972467   -0.8292892228
 H   -0.4240924520    1.9828451203    0.9335828123
 H    0.5158721653   -2.9351625135   -0.8462137610
 H    1.3088837885   -3.7721370679    1.3323215072
 H    0.1784850491   -2.6997876619    2.1964021266
 H   -0.5688173266   -5.1659322273    0.5202228384
 H   -2.1326623297   -3.7847221248    2.7849945202
 H   -2.6975658723   -5.1778199422    1.8550939530
 H   -1.2921878872   -5.3388185574    2.9237383688