17

 C   -0.1376104673    1.5768476109    0.1632330450
 C   -0.0091587794    0.0572142836    0.0260463431
 C    1.1368280751   -0.4268754110   -0.9066040804
 O    1.8715927686   -0.9666974043    0.2013788123
 C    0.8184861090   -0.6302677760    1.1341882780
 C   -1.3863077292   -0.5683260453   -0.1862112183
 N   -1.8859224147   -0.4516558783   -1.4523720561
 O   -2.0115336852   -1.0923283113    0.7150621386
 H    0.8421582046    2.0251099308    0.3556924161
 H   -0.5477186166    2.0297785995   -0.7455486628
 H   -0.8013634058    1.8327148358    0.9952110721
 H    0.8582299716   -1.2018205234   -1.6342343925
 H    1.6900331080    0.3672195892   -1.4258190093
 H    1.1770186370    0.0277589668    1.9343172552
 H    0.3421413892   -1.5136057057    1.5694781218
 H   -1.3361613408   -0.1094946350   -2.2206167875
 H   -2.7784783141   -0.8736871461   -1.6508366954