20

 C   -0.2356216024    1.7726248749    0.4474937376
 C   -0.0895228428    0.2816265212    0.2388442391
 C    1.2851274235   -0.3378462566    0.0633183754
 C    0.4783301678   -0.5975600696    1.3126663654
 O    0.8579729986    0.0155859104    2.5080766327
 C    1.9268865591   -0.6356245789    3.1701653272
 C    2.2407508831    0.0361096504    4.5067864104
 N    1.4001492786    1.0447575445    4.8438066945
 O    3.1756398921   -0.3432824802    5.1844033518
 H    0.5629167875    2.1591886413    1.0851290630
 H   -0.1974625647    2.3047532338   -0.5086980661
 H   -1.1912721975    2.0131507963    0.9261713145
 H   -0.8867497366   -0.1726473974   -0.3437053873
 H    1.4236712349   -1.1420403849   -0.6508423699
 H    2.1346288496    0.3299487666    0.1659633944
 H    0.0526160143   -1.5923021536    1.4501247975
 H    1.6830369506   -1.6884417755    3.3764887934
 H    2.8410289494   -0.6253164202    2.5618039536
 H    0.6431770972    1.2960576333    4.2315591202
 H    1.5414167278    1.5261524942    5.7155542424