23

 C    0.0358950472    1.5461709846   -0.0569393999
 C    0.0003762832    0.0388258065   -0.0639930507
 C    0.4327263674   -0.8168849435   -1.2650619978
 C   -0.3174405571   -1.9510497883   -0.5202883864
 C    0.6086535230   -2.1611209525    0.6957683131
 C    0.3725276197   -0.7509452822    1.2756921262
 C   -1.1416623965   -0.8196625490    1.6019000892
 C   -1.3057083320   -0.8433188572    0.0740997919
 C   -2.6125179775   -0.5774103105   -0.6294253349
 H    1.0694442872    1.9132815627   -0.0697266792
 H   -0.4712626380    1.9613617070   -0.9354230013
 H   -0.4461290163    1.9634841742    0.8343204558
 H   -0.0761076932   -0.4910690061   -2.1776284720
 H    1.4979434081   -0.9623877338   -1.4777101757
 H   -0.6962959527   -2.8290542430   -1.0444685116
 H    0.2851869470   -2.9507483662    1.3807617925
 H    1.6427280188   -2.3622296741    0.3997422043
 H    1.0955428827   -0.3530046881    1.9884884422
 H   -1.4971502400   -1.6640954634    2.2032632750
 H   -1.5346758733    0.1120884072    2.0205012053
 H   -3.0712309246    0.3547798300   -0.2802350499
 H   -2.4853330812   -0.4999462648   -1.7150885343
 H   -3.3290865720   -1.3866522694   -0.4428406020