15

 N    0.1176797693    1.2776880142    0.0970289463
 C   -0.0052984448    0.0183115255    0.0493052658
 N   -1.2336496859   -0.6424326425    0.0142408006
 C   -1.2456831525   -2.1113847578   -0.0863512870
 C   -2.7145405894   -2.5241975595    0.0943448978
 C   -3.5026140554   -1.2322633665   -0.0455587898
 O   -4.6883266252   -1.1017281855   -0.1565180934
 C   -2.5000719568   -0.0571423012   -0.0073141849
 O   -2.7859225890    1.1086370856    0.0042390220
 H    1.1058071097    1.5261048830    0.1221488099
 H    0.8230428351   -0.7025249216    0.0344801209
 H   -0.8617817211   -2.4239907044   -1.0642305115
 H   -0.5942458765   -2.5425833768    0.6793038084
 H   -3.0498946353   -3.2721575848   -0.6262517663
 H   -2.8984402421   -2.9283531077    1.0956240412