17

 C   -0.0818381116    1.5478870863    0.1217701162
 C    0.1505345573    0.0654315074    0.0110538414
 O   -0.7439868441   -0.7713414510    0.7362210309
 C    0.6553165745   -0.8084219971    1.1123713965
 C    1.2930289015   -2.0270099433    0.5068910299
 C    1.3321095936   -1.8436799389   -0.8128959296
 C    0.8434267833   -2.4661290814   -2.0993200517
 O   -0.0208430153   -1.2981495909   -2.2635455809
 C    0.7419319516   -0.5438575109   -1.2622478815
 H    0.7985066548    2.1069030152   -0.2117205406
 H   -0.9280635833    1.8469312300   -0.5062555669
 H   -0.3080636032    1.8308118789    1.1524900577
 H    0.8698777084   -0.4358085292    2.1097291445
 H    1.4208614544   -2.9564083918    1.0482393735
 H    1.5714155452   -2.5350688499   -2.9177559625
 H    0.2769511221   -3.3990032369   -2.0203427044
 H    1.3983540307    0.1802341834   -1.7639040222