19

 O   -0.1113012860    1.3839429322    0.0488647398
 C    0.0466620930    0.0013273221    0.0598538863
 C    0.9192280541   -0.7907606170   -0.9848407841
 C    0.7464614208   -1.9093454687    0.1101929578
 O    1.5184797560   -3.0658755011    0.1660876364
 C    0.8478741800   -0.7605232375    1.1551321496
 C   -0.7609222714   -2.1880040963   -0.0138385302
 C   -1.7159651160   -1.7023803169    1.0476049429
 C   -1.2821173356   -0.7649783126   -0.0513283264
 H    0.7605074791    1.7908287551    0.0765268912
 H    0.4913937119   -0.9735075597   -1.9736196924
 H    1.9466831441   -0.4165655957   -1.0651696824
 H    2.4463370021   -2.8120459575    0.1980786901
 H    1.8735998342   -0.3831124809    1.2206943222
 H    0.4387869315   -0.8839502328    2.1574194623
 H   -1.0669997976   -2.9472508519   -0.7240185389
 H   -2.7309985428   -2.0765922172    0.9546991250
 H   -1.4073879511   -1.5622657252    2.0760497736
 H   -1.9938360562   -0.4166945485   -0.7906859028