19

 O   -0.4293455415    1.4630161001    0.1151739050
 C   -0.2267372087    0.1009723301   -0.0953457483
 C   -1.4785609618   -0.7145062903    0.1619453713
 O   -2.4940875979   -0.1329976141    0.5116101883
 C   -1.4152294719   -2.2053267496   -0.0247195683
 C   -2.0150038063   -2.9953376351    1.1901757371
 C   -3.3483612593   -3.1828008153    0.4041457507
 O   -4.3929876282   -2.3341568142    0.7920239554
 C   -2.5970468667   -2.7589514340   -0.8945903908
 H   -1.3578531434    1.5453748625    0.3843372849
 H    0.0999083139   -0.1065177974   -1.1294407247
 H    0.5704784637   -0.2972495088    0.5565941313
 H   -0.4125256511   -2.5038383342   -0.3385212852
 H   -1.4781564249   -3.9321137669    1.3567907410
 H   -2.1021075952   -2.4540508080    2.1346619564
 H   -3.7598632124   -4.1948443224    0.4042728741
 H   -4.0417507738   -1.4299405400    0.7965922072
 H   -3.1237622090   -2.0391257017   -1.5247132522
 H   -2.2765795456   -3.6078439207   -1.5030284533