23

 C   -0.1163390432    1.5774012678    0.0703840793
 C    0.0019994361    0.0379526086    0.0031164541
 C   -1.4182553556   -0.5625674421   -0.0065741317
 C    0.7560021621   -0.4019700148   -1.2754548897
 C    2.2771557608   -0.2637260685   -1.1488001572
 C    2.8094072913   -1.1443679683   -0.0129422120
 O    4.1842461222   -0.8891120732    0.2712143705
 C    1.9582624464   -0.9965769799    1.2239403487
 C    0.7392504403   -0.4587525212    1.2302515923
 H    0.8636604749    2.0609225349    0.0218196260
 H   -0.7256433489    1.9542207693   -0.7589049638
 H   -0.5926244238    1.8925922410    1.0050207214
 H   -1.9676407596   -0.2397336982   -0.8981832615
 H   -1.3847602156   -1.6567284735   -0.0061680637
 H   -1.9893696426   -0.2421878215    0.8718261518
 H    0.5152878814   -1.4533564099   -1.4813261695
 H    0.3884436444    0.1716475920   -2.1342973531
 H    2.7755325670   -0.5277936398   -2.0867025970
 H    2.5464142000    0.7787845857   -0.9322091891
 H    2.8009331904   -2.1947827655   -0.3363831227
 H    4.2394278068    0.0035916806    0.6306178502
 H    2.4128083765   -1.3519641516    2.1462057458
 H    0.2015719688   -0.3633107419    2.1732913211