17

 C   -0.2412603738    1.5876977515   -0.0104316464
 C    0.0054700731    0.0688840532    0.0306642068
 C    0.7180302242   -0.4475013606   -1.1825634946
 C    2.0856021170   -0.6723652515   -1.3284992025
 N    2.2613781551   -1.1119787256   -2.6116607360
 N    1.1193633053   -1.1920309298   -3.3030388215
 C    0.1843283753   -0.7891009054   -2.4432720222
 C    3.1546995286   -0.5221455035   -0.4231529535
 C    4.0699045370   -0.3961859199    0.3504053250
 H    0.7048791333    2.1338771302   -0.0719733138
 H   -0.8435514043    1.8654686132   -0.8810796695
 H   -0.7697049668    1.9200214766    0.8887165079
 H    0.5906188011   -0.1779370142    0.9231460205
 H   -0.9545841425   -0.4501749281    0.1347025261
 H    3.1297473836   -1.3776877819   -3.0455124691
 H   -0.8503229455   -0.7619117023   -2.7543882542
 H    4.8742032693   -0.2829518317    1.0345021771