23

 C   -0.0694961856    1.5133109178    0.0450973169
 C   -0.0159319113   -0.0041253128    0.0392498099
 C   -1.2626598615   -0.6450150158   -0.5442244668
 C    1.3165019977   -0.6678758846   -0.2275610756
 C    0.7180202860   -0.7163188386    1.1616585750
 C    1.3954587802    0.0515054687    2.3136095493
 C    1.5266723210   -0.9913616080    3.3951861407
 C    0.9003823446   -2.1242641777    3.0858844847
 C    0.2284072037   -2.0596203962    1.7372297945
 H    0.8552880687    1.9572981279    0.4227567672
 H   -0.2297036118    1.8957936718   -0.9699505869
 H   -0.8947037385    1.8810649373    0.6674142204
 H   -1.4361363536   -0.2870300129   -1.5660046100
 H   -1.1858190446   -1.7346956160   -0.5850711801
 H   -2.1531865563   -0.3951169358    0.0456922124
 H    1.3253258046   -1.5846715179   -0.8107596422
 H    2.1834317264   -0.0324756124   -0.3869693708
 H    2.3655420084    0.4733457790    2.0211606111
 H    0.7893805401    0.8995925464    2.6647018754
 H    2.0552649118   -0.8002459076    4.3228073172
 H    0.8388938202   -3.0005545398    3.7220845881
 H   -0.8654538380   -2.0938988132    1.8474154666
 H    0.4949150977   -2.9105065195    1.0973044632