19

 C    0.2774761870    0.7135153481    0.6409609029
 N   -0.3667126904    0.3286145436   -0.6236105246
 C    0.3742772302   -0.5623826445   -1.4216584116
 C    0.6761696504   -1.9069627942   -1.2985784785
 O    0.2341448446   -2.6499354181   -0.2418543849
 C    0.6052553181   -4.0119460872   -0.2529326076
 C    1.4674208969   -2.2932676029   -2.4159383423
 C    1.6323984310   -1.1630317752   -3.1934797284
 N    0.9738955448   -0.1334750206   -2.5891464204
 H    0.5159477304   -0.1410347694    1.2897540177
 H    1.2075283735    1.2467924180    0.4228873708
 H   -0.3837815296    1.3956701934    1.1849154900
 H   -1.2845073478   -0.0564182450   -0.4292666284
 H    0.2128832913   -4.5311959124   -1.1382290760
 H    1.6969645490   -4.1343888839   -0.2298602755
 H    0.1761033826   -4.4612074386    0.6450216352
 H    1.8730682517   -3.2689114181   -2.6291936112
 H    2.1644085563   -1.0239601851   -4.1202524930
 H    0.8823774500    0.8067915121   -2.9324387343