18

 C    0.0349976671    1.5290614866    0.0515285243
 C   -0.0187811008    0.0306705424    0.0118276531
 C   -0.0509898067   -0.6548190380   -1.1350237678
 N   -0.0863914661   -2.0625761441   -1.1728196546
 C   -0.3136012651   -2.8333031013   -0.0711703984
 O   -0.2038819026   -4.0476301477   -0.0549608158
 C   -0.7698867457   -2.0583577752    1.1681379446
 O   -0.6367586228   -2.8694813927    2.3017372705
 C   -0.0028137989   -0.7410215807    1.3136746319
 H    0.9181583891    1.8759070948    0.6038494423
 H    0.0743074260    1.9611472699   -0.9524845207
 H   -0.8382816325    1.9486474300    0.5671829793
 H   -0.0425091861   -0.1788919007   -2.1086033505
 H    0.1602803821   -2.5503292322   -2.0210907335
 H   -1.8328758265   -1.8101020289    0.9836577814
 H   -0.5167334825   -3.7683813176    1.9543241240
 H    1.0308539222   -0.9600598987    1.6201059266
 H   -0.4463713201   -0.1557255559    2.1252982234