12

 N   -0.0207181465    1.3252887351    0.0081918440
 C    0.0034348444   -0.0169965595    0.0009461602
 N   -1.1822493386   -0.6591252384    0.0038385449
 C   -1.0740132866   -1.9809481071   -0.0038574906
 N    0.0510196760   -2.7014046133   -0.0135564397
 C    1.1545760859   -1.9449593535   -0.0154192577
 N    1.2094138468   -0.6225010831   -0.0087177710
 C   -2.3180425653   -2.7252783289   -0.0008622519
 N   -3.3098517697   -3.3174255273    0.0015180406
 H    0.8450954311    1.8349079607    0.0062296455
 H   -0.9029304854    1.8062076052    0.0154105712
 H    2.1047290281   -2.4742054999   -0.0232820554