21

 C   -0.0515866096    1.5359492938   -0.1271904106
 C   -0.0246795692    0.0428443055    0.0865603952
 O    1.2151921478   -0.6380791811   -0.1059347242
 C    0.6298108035   -0.6362851503    1.2256727355
 C    1.3820910874    0.1404411176    2.2941217924
 C    2.2079023147   -0.8008533834    3.1819675179
 C    1.3133226953   -1.8556322976    3.8459270184
 C    0.3877541634   -2.4973971473    2.8463397873
 C    0.1059406036   -1.9559406277    1.6600227707
 H    0.7841718501    2.0371194570    0.3639749409
 H   -0.0004013416    1.7613759515   -1.1977746721
 H   -0.9869324168    1.9569778064    0.2576448933
 H   -0.8768053038   -0.4792893558   -0.3580223208
 H    2.0285969928    0.8801778541    1.8169410893
 H    0.6582660699    0.6859129733    2.9153571100
 H    2.9582287619   -1.3061718859    2.5620471044
 H    2.7507668944   -0.2269098693    3.9397963541
 H    1.9261149504   -2.6259801875    4.3294501226
 H    0.7240027118   -1.3988159502    4.6559680509
 H   -0.0561102192   -3.4523917713    3.1172901847
 H   -0.5351818969   -2.4743513819    0.9519393702