20

 C    0.1723251326    1.4014876680    0.0486290498
 O   -0.2789348890    0.0931074431   -0.2182122300
 C    0.5127810683   -0.5805376192   -1.1671315461
 C    1.9053514326   -1.1709282211   -0.7430447224
 C    1.4223467741   -2.5428828019   -1.2276216800
 C    0.2057414942   -2.9998893520   -0.4744112184
 C   -0.0566635719   -2.8015571738    1.0048096273
 C    0.0279761497   -1.9681319684   -1.5601233800
 H    1.1861269946    1.4108832689    0.4768308305
 H    0.1798388517    2.0212430439   -0.8623628562
 H   -0.5175378280    1.8449489252    0.7707445053
 H    0.6352029199    0.0531951614   -2.0588275400
 H    2.7316816493   -0.7623002393   -1.3285520683
 H    2.1574343043   -1.0975476392    0.3191660342
 H    2.0168757601   -3.2243762528   -1.8238764233
 H   -0.1251274370   -3.9750506137   -0.8306063794
 H    0.2033969194   -1.7976005883    1.3401260251
 H   -1.1200967402   -2.9467479150    1.2234156710
 H    0.5087552603   -3.5287949396    1.5990541877
 H   -0.6023828349   -2.1616245461   -2.4202936269