22

 C   -1.9429488484    1.3086459762    1.9733948277
 C   -1.8091002970   -0.1959628157    1.7265557983
 C   -1.9753287008   -0.5737249233    0.2480975844
 C   -1.7456135531   -2.0512249523    0.0105187469
 C   -2.8656529815   -3.0897596241    0.0476043007
 C   -4.2659521836   -2.6806102067    0.3107123045
 O   -4.8330091272   -1.6998108026   -0.1224041571
 N   -2.1225494199   -2.7608269299   -1.1819694320
 C   -2.7784479036   -2.0841694096   -2.2992504638
 H   -1.8217405931    1.5497136024    3.0339368366
 H   -1.1854001210    1.8702049243    1.4153104991
 H   -2.9256492240    1.6751355899    1.6577342314
 H   -0.8302615052   -0.5413303704    2.0853659808
 H   -2.5583222161   -0.7345821694    2.3204508282
 H   -2.9685076575   -0.2779544030   -0.0969129813
 H   -1.2441434862   -0.0152967889   -0.3532312122
 H   -0.8075086287   -2.4145693498    0.4350796880
 H   -2.6296180406   -4.0735300424    0.4497758047
 H   -4.8048807849   -3.3883619075    0.9804686073
 H   -3.5631327379   -1.3768393993   -2.0176643805
 H   -2.0054313573   -1.5636028692   -2.8729642520
 H   -3.2195326026   -2.8486259687   -2.9457985196