19

 N    0.0234935069    1.5329456362   -0.0395229971
 C   -0.0023300729    0.0657941448    0.0071623410
 C    0.6157254541   -0.5733680791   -1.2714799455
 O    1.9041684575   -0.0622910854   -1.5444867769
 C    0.8564279714   -0.3560090451    1.1383352881
 N    1.5747072447   -0.7191917637    1.9681973708
 C   -1.4315204956   -0.4285618911    0.1891188598
 C   -1.7714935852   -1.7056978295    0.9162046818
 C   -2.1349771272   -0.3728024387    1.5184249658
 H    0.8791600007    1.8194633565   -0.5103992480
 H   -0.7555555938    1.8584901158   -0.6040526874
 H    0.6132340285   -1.6685131329   -1.1852133280
 H   -0.0141253731   -0.2926640400   -2.1220576018
 H    2.5125418593   -0.4172179800   -0.8853602889
 H   -2.0372533317   -0.2043080901   -0.6861302681
 H   -2.5588627275   -2.3251805141    0.5023628422
 H   -0.9636341188   -2.2589967484    1.3822143388
 H   -1.5608024241   -0.0372532817    2.3746146897
 H   -3.1756367631   -0.0699958634    1.5289720237