14

 O    0.1266170939    0.0655231696   -0.1575158041
 C    0.1844975094    1.2502084804   -0.2671739043
 O    1.0495340700    2.0009575056    0.4592851870
 C    1.0227919786    3.3927679031    0.2356560143
 C    2.1246663932    4.1655255527    0.8439791976
 C    2.0655922296    4.0226989582   -0.6800733574
 C    3.0928635878    3.1759384439   -1.3391128172
 O    3.5363487788    3.3986694195   -2.4378306362
 H   -0.4456957400    1.8558838449   -0.9450295578
 H    0.0236039963    3.8181960615    0.2099767853
 H    1.9174609031    5.1382922207    1.2725134735
 H    2.8934169169    3.5906401794    1.3497381208
 H    1.7507503107    4.8795691365   -1.2653257337
 H    3.4410376117    2.3099731339   -0.7358480477