19

 C    0.0473167875    1.4203178727   -0.0926652684
 O    1.3696801366    1.9087203735   -0.0664992722
 C    2.1509767655    1.4394108788    1.0403693748
 C    1.6600193439    1.9722858036    2.4026042007
 C    0.5433723166    1.1562058490    3.0048796648
 C    0.0879871094    0.0298502011    2.4550087986
 C    0.6645770390   -0.4945754024    1.1580785320
 C    2.1365405267   -0.0918600529    1.0285043703
 O   -0.0411730323    0.0216242724    0.0074525791
 H   -0.5486193072    1.8991006321    0.7001502199
 H   -0.3593965395    1.6850858821   -1.0715669948
 H    3.1524413202    1.8313186431    0.8436568622
 H    2.5087243932    1.9958364112    3.1017537024
 H    1.3469298231    3.0171725726    2.2834806904
 H    0.1121433661    1.5272562000    3.9324030604
 H   -0.7383169277   -0.5144141874    2.9022212172
 H    0.5371878271   -1.5775518640    1.0900902033
 H    2.5412990063   -0.4612038934    0.0825719252
 H    2.7270486053   -0.5000532918    1.8551689241