24

 C   -2.2070898445   -0.0238742907    3.3331910629
 C   -1.5879122027   -0.3443957158    1.9660794014
 C   -0.1140836795   -0.6892017094    2.0631173684
 N    0.4006139439   -2.0281107814    2.4007511498
 C   -0.5090194482   -3.1401533667    2.6346815537
 C    0.6235466512   -1.4973317022    1.0428139313
 C   -0.0572129837   -2.0940077388   -0.1742715005
 C    2.1034163114   -1.2113336428    0.8238158192
 O    2.8519000478   -2.4156629198    0.7925411241
 H   -1.6723014561    0.7965141309    3.8237482348
 H   -3.2552359764    0.2734233428    3.2312160107
 H   -2.1664835121   -0.8897173426    4.0016335464
 H   -2.1563534979   -1.1424678636    1.4812256591
 H   -1.6825242456    0.5310568357    1.3104118846
 H    0.4542638640    0.1013367621    2.5587106851
 H   -1.4591501459   -3.1110898906    2.0844130926
 H   -0.0020323716   -4.0737480899    2.3693958868
 H   -0.7436948470   -3.1816154253    3.7036028205
 H   -1.0698209799   -2.4503448851    0.0183814169
 H   -0.1147589720   -1.3499355182   -0.9764349852
 H    0.5384888630   -2.9344272116   -0.5447983637
 H    2.2678798107   -0.7195425676   -0.1415572603
 H    2.4687370408   -0.5397041530    1.6145313725
 H    2.6692009803   -2.8454509163    1.6374093987