18

 C   -0.0230714616    1.4918774425    0.0457998880
 C    0.0161819965   -0.0104853932    0.0359556740
 N    0.9106903133   -0.7176012764   -0.9328657671
 C    0.8207140543   -1.8641318653   -0.0204265040
 C   -0.6826532622   -2.1216635075    0.4285356068
 O   -0.3550892884   -1.7224240915    1.7996092668
 C    0.6701251457   -0.9233824732    1.1803856436
 C   -1.3221426939   -0.8082280713   -0.0763960096
 O   -2.3796179758   -0.3598701692    0.7275516013
 H    0.9643869689    1.9140130018    0.2523985370
 H   -0.3603044124    1.8785878021   -0.9228727877
 H   -0.7299663012    1.8411951115    0.8039818811
 H    0.4928179637   -0.8585523378   -1.8533619077
 H    1.5152558816   -2.6977722228   -0.1090684352
 H   -1.2192899459   -3.0662936704    0.3634614304
 H    1.4438388632   -0.5399788267    1.8415107250
 H   -1.6774461372   -0.8460431546   -1.1110602472
 H   -2.1220780585   -0.5903200380    1.6325242846