20

 O    0.6837647053    0.7749160410   -0.7202368397
 C    0.1935405555   -0.3460660317   -0.0293088759
 C    0.2916584066   -0.4541238367    1.5174845362
 C   -0.1233717550    0.8127056833    2.3191272817
 C   -1.5487183415    0.2224189926    2.5380863003
 C   -1.2109494038   -0.9379594958    1.5723822129
 C   -1.3233768031   -0.5797207812    0.0826665525
 C   -2.3712270113    0.1858828790   -0.6323639583
 N   -2.1755071704   -1.2545266971   -0.8876707748
 H    0.2783764659    1.5603252286   -0.3369290101
 H    0.6831206555   -1.2098963641   -0.4946193206
 H    1.1266564069   -1.0273320845    1.9197801168
 H    0.4509784742    0.9744255978    3.2332875089
 H   -0.0909701656    1.7486133957    1.7501011311
 H   -1.6962614897   -0.1220592627    3.5648184880
 H   -2.3985928569    0.8533057680    2.2625492768
 H   -1.5132345296   -1.9519399082    1.8339864610
 H   -3.3045766985    0.4392040297   -0.1363841237
 H   -2.0436701729    0.8968854828   -1.3875853919
 H   -1.6672007313   -1.3855400164   -1.7607420111