15

 C   -0.0183522053    1.4515071370    0.1440012186
 C   -0.0078350276   -0.0311660137   -0.0463080724
 N   -0.0887612370   -0.6041675902   -1.1724778517
 C   -0.0749651868   -2.0352237894   -1.2510985032
 O   -0.1596000473   -2.5827863877   -2.3293681812
 C    0.0381439244   -2.7291062675    0.0183690224
 C    0.1295621459   -2.0274623867    1.1698036597
 N    0.3089359358   -2.5149338123    2.4361406655
 O    0.1026515233   -0.6694595644    1.1748101132
 H    0.9007740329    1.7778005036    0.6412259313
 H   -0.1046213537    1.9355717218   -0.8272419003
 H   -0.8573568973    1.7481627112    0.7817403917
 H    0.0540475795   -3.8109074635    0.0249783713
 H    0.0828823102   -3.4876725963    2.5708042897
 H    0.0129333830   -1.9059489621    3.1840175354