17

 N   -0.0074267272    1.2947022034    0.1793241361
 C    0.0205310011   -0.0229446178   -0.1599211329
 O    1.0279279433   -0.5802917084   -0.5542535489
 C   -1.3298198049   -0.7429645483   -0.0536266040
 C   -2.1444751476   -0.5086904630   -1.3569005801
 O   -3.5286921203   -0.7043025676   -1.1863514933
 C   -1.0485387252   -2.2349244648    0.2289400830
 C   -2.2267223706   -3.0862258633    0.0962302641
 N   -3.1690803763   -3.7441437641   -0.0352671753
 H    0.8358876263    1.8350277992    0.0742213756
 H   -0.8375859766    1.7501853589    0.5155843814
 H   -1.9213154528   -0.3137812105    0.7621185743
 H   -2.0234443060    0.5352979554   -1.6626452783
 H   -1.7268670036   -1.1322998696   -2.1618013295
 H   -3.7037654710   -1.6480014745   -1.0931764115
 H   -0.2743079209   -2.5725911193   -0.4675909190
 H   -0.6366994078   -2.3617911257    1.2354860484