15

 O    0.0966368446    1.3596318403   -0.3799190283
 C    0.0231817825    0.1337237600    0.3103782722
 C   -1.3617843258   -0.4855916506    0.1754689299
 N   -1.6577944068   -0.9816493223   -1.1828093795
 C   -1.5568527159   -1.9632915052   -0.0854752108
 C   -0.4597554418   -2.8900441112   -0.0976250650
 C    0.4334684952   -3.6937037767   -0.0841033454
 C   -2.4267904159    0.1791879797    0.8927552248
 N   -3.2860566400    0.7062964426    1.4596767522
 H   -0.0626020720    1.1660750303   -1.3113388375
 H    0.7582549376   -0.5958781266   -0.0516503399
 H    0.2373202061    0.3475613731    1.3611718483
 H   -2.6354087427   -0.8275478467   -1.4192940912
 H   -2.4899705969   -2.3718411516    0.2956042711
 H    1.2273623618   -4.3998092150   -0.0780987711