15

 C    0.1252194214    1.3840380442    0.4251721377
 C   -0.0040898825   -0.0678552066    0.0481075431
 C   -1.1724151817   -0.7444947849    0.2062298917
 C   -1.4310583395   -2.0980989556   -0.2518858877
 N   -0.5870249682   -3.0528177983   -0.4103519316
 C    0.7289017484   -2.8447894367    0.0385187568
 O    1.2244768033   -3.4811149379    0.9283730443
 N    1.4529748123   -1.9094360161   -0.7216874136
 C    1.1392810867   -0.6703450127   -0.6414835827
 H    0.9154376111    1.5206595314    1.1725589581
 H    0.4035477928    1.9918613271   -0.4435200227
 H   -0.8065726786    1.7774256082    0.8363111719
 H   -2.0331155898   -0.2004421729    0.5886531414
 H   -2.4702981579   -2.3184670655   -0.5082742159
 H    1.7859585522    0.0321769162   -1.1750575306