25

 C    0.3583331614    1.4813479297   -0.2954556917
 C   -0.0319343825    0.0222076614    0.0152769410
 C   -1.5605329439   -0.0697105888    0.1000338304
 C    0.5403061538   -0.9000614187   -1.0813154206
 O    1.8783005813   -1.2198336075   -0.7117392678
 C    2.1083943492   -0.8417408005    0.6421848179
 C    0.7346708410   -0.5345773040    1.2742119029
 C    0.8506822633    0.4497998173    2.4445554138
 C    0.1106749591   -1.8461019816    1.7924470139
 H    1.4409047097    1.6100445389   -0.3812185503
 H   -0.0842319356    1.7873774395   -1.2492483154
 H   -0.0067068065    2.1703344999    0.4716002853
 H   -2.0173287719    0.3294048255   -0.8124181725
 H   -1.9101896756   -1.0981013992    0.2191228921
 H   -1.9480191827    0.5196237830    0.9385624080
 H   -0.0509400758   -1.8237085707   -1.1730751175
 H    0.5514230537   -0.4164942817   -2.0656842452
 H    2.6268174784   -1.6610264178    1.1550167572
 H    2.7675098633    0.0389293408    0.6752204685
 H    1.3783625884    1.3657882943    2.1678788828
 H   -0.1369682916    0.7297767787    2.8276494383
 H    1.4000416970   -0.0082929315    3.2745456812
 H    0.7465601366   -2.2744311580    2.5743748301
 H   -0.8783507954   -1.6792981213    2.2287401028
 H    0.0123703454   -2.5968321879    1.0033898646