14

 C   -0.0383428085    1.4136563490    0.0095881952
 O   -0.0020763263   -0.0102741852    0.0050163337
 C   -1.1657870689   -0.6569813942    0.0121662910
 C   -1.3693245396   -2.0350160380    0.0102258400
 C   -2.7850536635   -2.1701032631    0.0206740521
 N   -3.4037565449   -1.0056225325    0.0278629402
 N   -2.3917465109   -0.0874738632    0.0226561442
 C   -0.3813708890   -3.0418635218    0.0003435493
 N    0.4204163690   -3.8783592831   -0.0076779989
 H    1.0006249049    1.7410588919    0.0028454631
 H   -0.5453068123    1.7983369787   -0.8839290651
 H   -0.5319594859    1.7929067321    0.9128427210
 H   -3.3511752604   -3.0892950573    0.0227231859
 H   -2.6241576135    0.8902062566    0.0268962383