17

 O    0.1185269390    0.0845267186    0.2695748434
 C    0.0268806999    1.2789033033    0.1048916116
 C   -1.2117782467    2.0722534305   -0.1772567525
 N   -1.2987508151    3.2592498356    0.7307402115
 C   -0.7770136394    3.4298511315   -0.6272724169
 C    0.7462885732    3.5086789784   -0.6584671153
 C    1.1959266843    2.2336124010    0.0466201226
 C    2.2042938708    2.1372649065    1.1425012491
 N    2.5231458012    1.6585149962   -0.1999021598
 H   -2.1160096466    1.5775152242   -0.5093160324
 H   -2.2744399221    3.5480948866    0.7614398875
 H   -1.3615956876    3.9830707266   -1.3548457501
 H    1.1059132020    3.5061307688   -1.6928898484
 H    1.1120774046    4.4180206538   -0.1732226361
 H    2.7209731231    3.0431425213    1.4480737139
 H    2.0227860798    1.4108509627    1.9300642673
 H    2.4118366994    0.6430033745   -0.2222120354