18

 C    0.5767036439    1.4747727234    0.1382817042
 C   -0.0476711042    0.0913563800    0.0007434953
 C    0.4022978205   -0.6900739684   -1.2678159616
 C    1.1129838720   -1.9326649813   -0.7352631080
 C    2.3468059570   -1.6894283947    0.1394504493
 C    1.0013292168   -1.8484034599    0.7785839272
 O    0.2853594148   -0.7188823429    1.1477656919
 C    0.9873945951   -3.1697686323   -1.4449394810
 N    0.8867307599   -4.1698080000   -2.0191646707
 H    1.6696194056    1.4268090693    0.1017727426
 H    0.2348437025    2.1252566104   -0.6736557514
 H    0.2849400094    1.9287510628    1.0889715278
 H   -1.1392552955    0.1964273040    0.0077783630
 H   -0.4566590554   -0.9876747469   -1.8730486238
 H    1.0581922342   -0.0829557098   -1.8987389885
 H    3.0459183826   -2.5133383149    0.2281112899
 H    2.7963417393   -0.7035492840    0.1003562130
 H    0.7826318616   -2.7173569449    1.3887142210