14

 C    0.0895684905    1.4710095790    0.1074260629
 C   -0.0470357845    0.0009310993   -0.0891163626
 C    0.5630265675   -0.9456241637   -1.1601531681
 C   -0.0074554170   -1.8720606330   -0.0603978286
 O    0.5086406866   -0.9255210618    0.9568734440
 C    0.1669697577   -3.2805817182    0.1339141274
 N    0.2674005928   -4.4254209150    0.2592894459
 C   -1.2825359998   -0.9410986121   -0.0303040648
 O   -2.4539868303   -0.9620558374    0.1102661352
 H    1.1429572195    1.7621933548    0.1419711518
 H   -0.3918601739    2.0007288961   -0.7199875287
 H   -0.3927442208    1.7760369655    1.0399082221
 H    0.1156546107   -0.9814015378   -2.1558486917
 H    1.6537934408   -0.9297668556   -1.1683678149