14

 O   -0.0472673259   -0.0183920010    0.0396927010
 C    0.0048792984    1.1860965820    0.0073928688
 C    1.2804840703    1.9657881589    0.0014959892
 C    2.7346035075    1.4580729727    0.0318251139
 N    2.9325780026    2.9899750401   -0.0068995974
 C    1.8067762542    2.9749098461   -1.0563811384
 C    1.7830062797    3.0302999865    1.0157345939
 H   -0.9233698103    1.8039825429   -0.0208164123
 H    3.0960114615    0.9945201607    0.9521587628
 H    3.1167801779    0.9461724028   -0.8538434559
 H    2.1138094992    2.5734975494   -2.0253036254
 H    1.2923725434    3.9335448244   -1.1604522054
 H    1.2669194817    3.9927976918    1.0566183830
 H    2.0674462797    2.6814011424    2.0115137622