15

 O   -0.1026479638    1.4922130660   -0.0647853400
 C   -0.0263528524    0.0914801354    0.0050092949
 C    0.2258365324   -0.5948246209    1.3828487080
 O    1.1899361210   -0.6388241041    2.0944120639
 C   -1.1004162005   -1.2823888816    1.3657060901
 C   -2.1813689641   -0.2356852726    1.1584957410
 C   -1.3837225347   -0.6297430099   -0.0440771384
 C   -1.9310593586   -1.2591649213   -1.1952444548
 C   -2.3792532199   -1.7844852191   -2.1804252417
 H    0.7535654077    1.8460285207    0.2012118806
 H    0.6695453715   -0.3284830641   -0.7367876959
 H   -1.3338286003   -2.2818460640    1.7098431318
 H   -3.1905276227   -0.6297810969    1.1974336579
 H   -2.0624568576    0.7627384549    1.5641116626
 H   -2.7778998481   -2.2465626226   -3.0493897701