19

 C   -0.0735497393    1.5532535187   -0.0147715103
 C    0.0846290013    0.0468136360    0.0534202330
 C    1.3191667118   -0.7241820425   -0.2387055191
 C    2.5901215525   -0.0237544091    0.2597906002
 C    2.0383305293   -0.0571577124    1.7108469042
 O    2.0044978981    1.2013044127    2.3466819867
 C    0.7301287479   -0.6918946905    1.2194446035
 C    0.0380140136   -1.7686058649    1.9277984687
 O    0.2873881539   -2.1039849254    3.0649590704
 H    0.7755653016    2.0792414754    0.4197797599
 H   -0.1972030921    1.8724636361   -1.0555599322
 H   -0.9669391008    1.8624870405    0.5374100485
 H   -0.8036714346   -0.4884205898   -0.2840843172
 H    1.3105263246   -1.5857380170   -0.8957059803
 H    3.4969158277   -0.6170475170    0.1350764488
 H    2.7637587265    0.9769615277   -0.1429061610
 H    2.5762920356   -0.7907767313    2.3227322020
 H    1.6208304032    1.0793541336    3.2217570757
 H   -0.7577137308   -2.2818268608    1.3377743383