13

 O   -0.9367560120    1.1991483995   -0.1460919922
 C    0.1974806222    0.8409031453    0.0737830618
 C    1.3699978742    1.7362195033   -0.0289982248
 C    1.3526702045    3.0443312979   -0.3464587869
 C    2.7296395095    3.6315406189   -0.2665236850
 O    3.2773109856    3.5296570314    1.0631213971
 C    3.6458967938    2.5396233033    0.0906362403
 C    2.7821689540    1.2842921958    0.2049627406
 O    3.1622920625    0.1579098505    0.4020517395
 H    0.4375462655   -0.2002207033    0.3645728345
 H    0.4608239557    3.6090346532   -0.5906003961
 H    3.0230584588    4.5061681008   -0.8360454987
 H    4.6942685155    2.4825501233   -0.1827007901