21

 C    0.0942532258    1.5205444109   -0.0433495784
 C    0.0709336874   -0.0055962134   -0.0045768478
 O    0.7401862643   -0.4652690144   -1.1713108862
 C    0.9689300390   -1.8760082583   -1.1627051498
 C    1.3972721958   -2.2841549738   -2.5622399490
 C    2.0126730563   -2.1881794446   -0.0777713679
 O    3.3203444281   -1.7551832640   -0.4518208827
 C    1.5878443520   -1.5490679931    1.2231430086
 C    0.6980780406   -0.5588867252    1.2500986699
 H    1.1231618070    1.8876067262    0.0145336935
 H   -0.3505398329    1.8770628434   -0.9759286275
 H   -0.4719203821    1.9353097568    0.7958603330
 H   -0.9844085071   -0.3395190070   -0.0453516056
 H    0.0315127249   -2.3932792211   -0.8954528631
 H    2.3419320342   -1.8046598545   -2.8265567073
 H    1.5391036623   -3.3679508235   -2.6149573929
 H    0.6337304965   -1.9944394952   -3.2885603587
 H    2.0960689052   -3.2747807002    0.0419693745
 H    3.2540470128   -0.7996998042   -0.5710917944
 H    2.0628202044   -1.9032325821    2.1335752208
 H    0.3894200555   -0.1030712529    2.1880947211