19

 C   -0.0142967999    1.2865684149   -0.5284110373
 C   -0.0204670545   -0.1854482887   -0.1012481378
 C   -1.4178081680   -0.6864572312    0.2069414024
 O   -2.3256871270   -0.6056867041   -0.9287411703
 C   -2.7138662151   -1.9882856924   -0.7904764081
 C   -1.6965150442   -2.2028544282    0.3656262524
 N   -0.9744600218   -3.1167056360   -0.5209488215
 C   -1.8168016237   -2.9079968591   -1.6247402962
 N   -1.8577707821   -3.2774638194   -2.8304512960
 H    0.9974919693    1.6194839465   -0.7768918352
 H   -0.6482740340    1.4289821407   -1.4076253737
 H   -0.3942734226    1.9331521269    0.2699991056
 H    0.4134698436   -0.8017705578   -0.8968096186
 H    0.6008387285   -0.3252589906    0.7938495721
 H   -1.8475277979   -0.1248307898    1.0500181478
 H   -3.7919530379   -2.1435099153   -0.7606090875
 H   -1.9202798371   -2.5933763447    1.3579137960
 H    0.0238554623   -3.2763393025   -0.5454793027
 H   -1.0444524978   -3.8411800890   -3.0860736116