18

 C    0.0857942040    1.4603551235    0.1378372257
 C    0.0688292472    0.0056065266    0.0690678687
 C    0.0376712812   -1.1998226771    0.0227996181
 C    0.0166223907   -2.6353364562   -0.0421632662
 C   -0.5567446007   -3.4201920240    1.1432024293
 C   -1.3364044893   -3.3515527859   -0.1211714387
 C    1.1379298060   -3.3505980943   -0.7725089080
 N    2.0841165811   -2.5423110898   -1.3126527014
 O    1.1686769929   -4.5663668031   -0.8569839977
 H    0.9990930781    1.8304285986    0.6170068769
 H    0.0248429562    1.9119474126   -0.8586685847
 H   -0.7643278886    1.8330605940    0.7199563916
 H   -0.0449266741   -4.3486425035    1.3652060047
 H   -0.8825206009   -2.8328739492    1.9928504147
 H   -2.2121928989   -2.7158027131   -0.1635175898
 H   -1.3489018111   -4.2338520553   -0.7493896396
 H    2.0258669823   -1.5424216563   -1.2238855572
 H    2.8497021237   -2.9659143873   -1.8085797063