20

 C   -0.0017846636    1.4714606877   -0.0159459166
 C   -0.0003701684   -0.0320687564    0.0040082906
 C    0.6193668612   -0.9894956277   -1.0696130265
 C    0.0104217171   -1.9073527585    0.0132454087
 C    0.6326351308   -0.9651125684    1.0843539471
 C   -1.2402406280   -0.9812375303    0.0176863642
 N    0.0367981417   -3.3361725613   -0.0126366013
 C   -0.5186293435   -4.1068993437    0.9620233476
 O   -1.0880593104   -3.6802004830    1.9435612568
 H    1.0194421111    1.8677891012   -0.0267657089
 H   -0.5199686275    1.8547602988   -0.9017540624
 H   -0.5078321190    1.8732217154    0.8684099598
 H    0.1363363784   -0.9998343007   -2.0519463600
 H    1.7107573098   -0.9862201321   -1.1550446228
 H    1.7248097773   -0.9613483645    1.1530143818
 H    0.1599495413   -0.9786664239    2.0676027187
 H   -1.8445783142   -0.9962227206    0.9259071475
 H   -1.8563884659   -0.9922174266   -0.8866422691
 H    0.4887859663   -3.7956317109   -0.7874190914
 H   -0.3910207545   -5.1892368145    0.7560469363