13

 N   -0.0724648254    1.1925934480    0.4123415064
 C   -0.0109776175   -0.0138383482    0.0455754535
 N    0.9467166772   -0.8750669882   -0.5030431615
 C    0.1028347048   -2.0849671956   -0.4152919859
 C   -1.0174656822   -1.1473390042    0.0768558881
 C   -2.1503311410   -1.3647097729    0.9741752075
 O   -2.3292393223   -1.1036726122   -0.4255634609
 H    0.8159120647    1.6799896959    0.2859420848
 H    1.9410781389   -0.8368949996   -0.3340808392
 H   -0.0816819500   -2.5668438243   -1.3795128649
 H    0.4351111664   -2.8275503551    0.3185910377
 H   -2.3956997238   -2.3756567168    1.2963545906
 H   -2.4551113898   -0.5592210969    1.6391023637