18

 C   -0.0212572400    1.5395862874    0.0193212837
 C    0.0024143549    0.0398238559    0.0009008376
 C    0.6507452542   -0.8537659962   -1.1303803684
 C    1.2731988142   -1.7660736108   -0.0315395023
 C    0.6702821564   -0.8801998469    1.0992540499
 C   -0.5795332896   -1.8092058678    1.0592058341
 C   -1.2700513990   -0.8978138298    0.0009429745
 C   -0.5983188564   -1.7838188737   -1.0903437689
 N    0.0466441544   -2.6827410831   -0.0314566531
 H    0.9947245200    1.9525028777    0.0156857753
 H   -0.5462999379    1.9390541891   -0.8567309223
 H   -0.5309849705    1.9172486134    0.9139014709
 H    1.1501470958   -0.4700378378   -2.0194170671
 H    2.2666400082   -2.2154067599   -0.0456013804
 H    1.1851939236   -0.5176983296    1.9883347443
 H   -1.0576257622   -2.2929038662    1.9115492868
 H   -2.3023020479   -0.5494696697    0.0141379095
 H   -1.0912519483   -2.2473770720   -1.9453954041