19

 C   -0.2718597600    1.2826234711   -0.0686415438
 C   -0.0368072064   -0.2097105740    0.0933100608
 C    1.2034633548   -0.8240199074   -0.6266752451
 O    1.7049245253   -1.3607238413    0.6274591265
 C    0.6561464289   -0.7180348715    1.3570831242
 C    0.9231163778   -0.0195628130    2.6510108090
 C    0.1026650694   -1.3045795973    2.6079886585
 C    0.9683357243   -1.8349556197   -1.6408939145
 C    0.7577198785   -2.6591053465   -2.4902757497
 H    0.6351376560    1.8531911348    0.1549252499
 H   -0.5824383490    1.5191086900   -1.0916708097
 H   -1.0622200454    1.6307820846    0.6049234293
 H   -0.9440138662   -0.7750157457   -0.1346214077
 H    1.8890885464   -0.0571580467   -1.0123002600
 H    1.9313098094   -0.0856503371    3.0459067926
 H    0.4141683597    0.9166658680    2.8578057954
 H   -0.9675055505   -1.2452104027    2.7808436860
 H    0.5730743285   -2.2097553892    2.9769726695
 H    0.5781006986   -3.3919158565   -3.2377664113