17

 O    0.0297486156    1.4031320998   -0.3326417688
 C    0.0057011139    0.0130010277   -0.0215759884
 C   -1.4501277843   -0.3676218544    0.1883102163
 N   -2.2155875188   -0.0469094838   -1.0031018621
 C   -3.3749510880   -0.7195548543   -1.2922895496
 O   -3.7817817517   -1.6722360467   -0.6723114861
 N   -4.0194134335   -0.1886432466   -2.4378297337
 C   -5.2699157647   -0.5282839774   -2.9316243613
 O   -6.0585212580   -1.2932083867   -2.4497743782
 H    0.9296889219    1.6517611309   -0.5614905008
 H    0.4302263094   -0.5828837746   -0.8427129292
 H    0.5749792344   -0.2041733251    0.8938518927
 H   -1.5499919047   -1.4378498916    0.3784526196
 H   -1.8414248868    0.1644961185    1.0666439823
 H   -2.0428297588    0.8706866378   -1.3836774587
 H   -3.5097843517    0.4882058811   -2.9860352422
 H   -5.4624912843    0.0324400056   -3.8708891519