15

 C    0.2279383201    1.4856477030    0.0404319436
 C    0.0957675038    0.0014583560   -0.0402890191
 C   -0.0199475951   -0.8007689229   -1.1337749103
 C   -0.0451439111   -0.5792999292   -2.6129166014
 O    0.8656493943    0.4248642397   -3.0356942360
 O   -0.1201625389   -2.1002103567   -0.6906602579
 C   -0.0647730280   -2.0012658732    0.6545566057
 N    0.0667069332   -0.7983248564    1.1037029829
 H    1.0864972782    1.7622254785    0.6609972471
 H    0.3590506258    1.9126144235   -0.9553414464
 H   -0.6590227536    1.9322620482    0.5033287749
 H    0.1367580141   -1.5432040528   -3.1110261842
 H   -1.0292268144   -0.2283159504   -2.9442228664
 H    1.7394508059    0.1776880770   -2.7137827173
 H   -0.1327544041   -2.9223654044    1.2123210348