18

 C   -0.1704053631    1.5821173741   -0.0734447661
 C   -0.0489499255    0.0576688221   -0.0230082460
 C    0.8244201444   -0.4671970979   -1.1775690400
 C    1.6012432123   -1.4467991530   -0.6784609109
 C    2.9183567281   -1.2053580041    0.0301379114
 C    2.3487138296   -0.4306868812    1.2294185998
 C    0.7819433648   -0.5327525303    1.1792954520
 C    1.1221207027   -1.9454940838    0.6992538481
 N    2.5482258227   -1.9261114910    1.2695005137
 H    0.8151086514    2.0534199354   -0.1564141499
 H   -0.7727323167    1.9060012673   -0.9279438835
 H   -0.6468182801    1.9595298531    0.8374522534
 H   -1.0591467814   -0.3732350037    0.0399109044
 H    1.1383196625    0.2079338283   -1.9689987714
 H    3.9449843366   -1.0944713652   -0.3019743384
 H    2.9540612814    0.2289861726    1.8422038367
 H    0.3360817387   -0.4078620387    2.1709504384
 H    0.5005914416   -2.8291275741    0.8312997884