19

 O    0.1335205273   -0.2558258424    0.0458845761
 C    0.0182892127    0.9602361933    0.0091828047
 N   -1.2266832432    1.5522860137    0.0707053242
 C   -1.6507489787    2.8759942683    0.5203284446
 C   -0.7681796744    3.6048153423    1.5594015746
 O    0.0425152817    4.6152971779    0.9908436018
 C    1.2902698076    4.2127539556    0.4710107851
 C    1.2264324546    3.1265300225   -0.6126456799
 N    1.1281813348    1.7727854774   -0.0888804165
 H   -1.9220083787    0.8280636131    0.1558704881
 H   -1.7851829041    3.5700313554   -0.3196948616
 H   -2.6424901786    2.7319519727    0.9600493461
 H   -1.4321709577    4.1358406994    2.2487866446
 H   -0.1768429839    2.8872984329    2.1444119688
 H    1.7264856691    5.1235629593    0.0468560964
 H    1.9535423736    3.8574378921    1.2763946906
 H    0.4028043476    3.3359316467   -1.3032394239
 H    2.1487533287    3.1854182897   -1.2006365751
 H    1.9613999718    1.2085203901   -0.1385195387