14

 O    0.0373251399    0.2609057106   -0.5674610105
 C    0.0233296083    1.3908799134   -0.1646027875
 N    1.0969868638    1.9702169478    0.5357564799
 C    2.4572754268    1.8424700538    0.1474262011
 C    1.7611945340    3.2149983334    0.1866567076
 C    1.5056420534    3.8519726529   -1.1514901958
 O    0.9310592104    3.2872943387   -2.0481751234
 C    2.0950503200    4.1216680213    1.3332530855
 O    2.4280522788    5.2706886675    1.1982675736
 H   -0.8535863065    2.0578309464   -0.1965067215
 H    3.1753195179    1.6036931615    0.9277537343
 H    2.6674151455    1.4506165961   -0.8448334871
 H    1.8900485508    4.8838466303   -1.2429791887
 H    2.0138416869    3.6313624263    2.3269734126