14

 O    0.0240603554   -0.0517618734   -0.0399941300
 C    0.0121584132    1.1524954919   -0.0107542691
 N   -1.1470690648    1.9008622789    0.0377850568
 C   -1.1765017531    3.2968842269   -0.0267153879
 N   -0.2065490681    4.0412689936   -0.3581406617
 C    1.0272278495    3.3673442040   -0.7324929062
 C    1.2773901909    2.0339571379    0.0188265445
 C    1.6568621956    2.2624443850    1.4149049121
 N    1.9522084696    2.4534780144    2.5156484579
 H   -2.0069315427    1.3826826480    0.1536084303
 H   -2.1423916792    3.7309421454    0.2243801281
 H    0.9942481526    3.1538770741   -1.8101479678
 H    1.8687203582    4.0437930094   -0.5658656429
 H    2.0743499830    1.4619415039   -0.4640653440