19

 C   -0.5631722621    1.3845461732    0.0776789787
 C   -0.0995265567   -0.0496250196   -0.0170281307
 C    0.7241592111   -0.5446782260   -1.2026530327
 N    1.2497066635    0.4151672382   -2.1334399937
 C    2.7084122141    0.4717958726   -2.0588186653
 C    3.1103083867    0.9699669819   -0.6877225836
 N    4.1173828201    1.7139463006   -0.5184433065
 O    2.3025963857    0.5991497202    0.3541517673
 C    1.3508104616   -0.4243326348    0.1585853036
 H    0.1165622484    2.0493114488   -0.4564166371
 H   -1.5584917268    1.4938946068   -0.3652572064
 H   -0.6203490953    1.7097459770    1.1213404666
 H   -0.7891955982   -0.7860761709    0.3882405811
 H    0.5332587098   -1.5535997060   -1.5707165587
 H    0.9236275987    0.2534809611   -3.0762909011
 H    3.1934568451   -0.5049176895   -2.2385961518
 H    3.1028134230    1.1784878587   -2.7898268501
 H    4.2357219904    1.9251413551    0.4748890246
 H    1.6067601008   -1.3180519373    0.7194346359