11

 C    0.1350086663   -1.2090405021   -0.0057770690
 C    0.0709719900   -0.0081727150    0.0015855648
 C   -0.0157032333    1.3985206585    0.0105494496
 C   -1.1456692237    2.1806329061    0.0312375066
 O   -0.7493970335    3.4910455748    0.0326493687
 C    0.5978294498    3.4296675365    0.0127546890
 N    1.0951421335    2.2375506342   -0.0009984592
 C   -2.5203006418    1.8828054230    0.0495684674
 N   -3.6478838368    1.6179549446    0.0644960166
 H    0.1903009700   -2.2700808293   -0.0121191134
 H    1.1237932296    4.3717324987    0.0102682688