23

 C    0.0166074987    1.5319425107   -0.1173786302
 C    1.4411091024    2.0987662852   -0.0189880462
 C    2.2512438533    1.6665372803    1.2170937227
 C    1.5952459677    1.9462580764    2.5411721231
 C    1.1767813311    1.0171236171    3.4081202245
 C    1.2488144794   -0.4364018869    3.1686267761
 C    0.5662293319   -1.1108586969    2.2376078730
 C   -0.5288599625   -0.5722247516    1.3488734867
 C   -0.1367691672   -0.0071558536   -0.0497746489
 H   -0.6036504149    1.9809919950    0.6677888955
 H   -0.4057334892    1.8846388656   -1.0659259799
 H    2.0098201858    1.8086033979   -0.9122103964
 H    1.3739383667    3.1945148780   -0.0465562052
 H    2.4768265418    0.5988137942    1.1483934846
 H    3.2153894389    2.1934553060    1.1876340568
 H    1.5039352303    2.9954260789    2.8213757078
 H    0.8080903824    1.3381142846    4.3825570558
 H    1.9263073446   -0.9951595023    3.8155234244
 H    0.7642304985   -2.1777547557    2.1433683868
 H   -1.2404421031   -1.3912438025    1.1920470734
 H   -1.0758558572    0.2088071388    1.8879610205
 H   -0.9322785709   -0.2923491838   -0.7465120302
 H    0.7703374116   -0.5012755455   -0.4185734848