18

 O   -0.1234105585    1.5040536805    0.0027260412
 C    0.0423144944    0.0991465589   -0.0751281560
 C   -1.3489855095   -0.5163941425    0.0301272369
 C   -1.3464403116   -2.0597106236    0.0375169747
 C   -2.7766727041   -2.6218700622    0.2384310518
 C   -2.8229167016   -4.1339997917    0.3545359675
 O   -3.3705356087   -4.7187696428    1.2523021851
 C   -0.7481507356   -2.5899683623   -1.1947354265
 N   -0.2868826536   -2.9995643037   -2.1725529329
 H    0.7309169739    1.9187707130   -0.1481356500
 H    0.5147700827   -0.2012347626   -1.0219632184
 H    0.6781864023   -0.2768240498    0.7439932265
 H   -1.8162567116   -0.1702131362    0.9577622200
 H   -1.9655412696   -0.1518201232   -0.7982392032
 H   -0.7198016898   -2.4032584406    0.8715552302
 H   -3.2178082137   -2.1929236129    1.1414573698
 H   -3.3944482741   -2.3278861170   -0.6207326916
 H   -2.3112881014   -4.6837211315   -0.4657447851