15

 N   -0.1408547578    1.3782398792    0.4380730773
 C   -0.0569418066    0.0293269417    0.1229274271
 C   -0.2460852930   -0.6287971341   -1.0530001789
 O    0.0398888677   -1.9603341334   -0.8293647669
 C    0.3769446495   -2.0257091193    0.4723194453
 C    0.7894623108   -3.3476946108    1.0179950491
 C    2.2253859764   -3.7048593175    0.6338941949
 O    2.5642705143   -4.7839713191    0.2313355619
 N    0.3434777747   -0.8825917872    1.0892769878
 H   -0.2880738309    1.5238106414    1.4275746088
 H   -0.8098868574    1.8963620068   -0.1132787174
 H   -0.5507226056   -0.3579899924   -2.0473636321
 H    0.7472668404   -3.2810105993    2.1109936187
 H    0.1308928941   -4.1516591880    0.6810326258
 H    2.9514807935   -2.8736013481    0.7716092986