20

 C    0.0656140755    1.6166057264    0.0836274592
 C    0.0628514102    0.0894414400    0.0937479212
 N    0.6553343789   -0.4447046510   -1.1346759857
 C   -0.2515083863   -0.5046652482   -2.3200109431
 C    0.4999041106   -1.7347116405   -2.8941212179
 O   -0.6981832718   -2.5268814841   -3.1254214656
 C   -0.9952341929   -1.8188778408   -1.8884776007
 C    0.4890099308   -1.9195208302   -1.3436620589
 C    1.1300516285   -2.9837369404   -0.5091363567
 H    1.0812622606    1.9945067393   -0.0633684114
 H   -0.5601958088    2.0098241685   -0.7245585830
 H   -0.3226033207    2.0119859036    1.0272292062
 H    0.6693791141   -0.2710054780    0.9335875703
 H   -0.9654356305   -0.2800186678    0.2642512353
 H   -0.6363854343    0.3699662624   -2.8443149919
 H    1.3249915473   -1.7879045773   -3.6027873504
 H   -1.9643967469   -1.9972162742   -1.4224858154
 H    0.8957519444   -3.9671415399   -0.9285721731
 H    2.2175076062   -2.8603035213   -0.4922519490
 H    0.7663977150   -2.9574836864    0.5233078507