18

 C   -0.0247044961    1.4356979656    0.0661425412
 N    0.0792037377   -0.0076417867   -0.0165051400
 C    0.5939271523   -0.6443096269   -1.1128815304
 O    1.0020033879   -0.0477409324   -2.0969898679
 C    0.6202009194   -2.1293614730   -1.0171356632
 C    1.0818216612   -2.9270655843   -1.9789116144
 C    0.9637387355   -4.3586251162   -1.5627340907
 O    0.3874570113   -4.3258215100   -0.2574295764
 C    0.1481706308   -2.9810308173    0.1396002632
 H    0.5598849059    1.8304479638    0.9047330348
 H    0.3690297530    1.8416862554   -0.8660330523
 H   -1.0663508338    1.7545991255    0.1848180752
 H   -0.2413951491   -0.5563615217    0.7633652375
 H    1.4840569313   -2.5901511463   -2.9247979835
 H    0.3214497350   -4.9408159755   -2.2425354879
 H    1.9401981563   -4.8674266190   -1.5292516176
 H    0.6970089175   -2.7670152177    1.0718679071
 H   -0.9248994463   -2.8430662332    0.3535745253