19

 C   -0.0449648130    1.5341654978    0.0131264244
 N    0.0957256862    0.0846985665    0.0164172544
 C    0.7653695140   -0.5698906230   -1.0997413178
 C    2.2996584794   -0.6114528531   -0.8287676922
 C    2.5042786269    0.0452628302    0.5325154547
 C    1.1118476611   -0.5548968675    0.8992013328
 C    1.3458917168   -1.6396584141   -0.2363391268
 C    1.2793815177   -3.1297168576   -0.2579633141
 H    0.8733158177    2.0893190000   -0.2343537712
 H   -0.8101806403    1.8118557750   -0.7199573159
 H   -0.3930375708    1.8632932779    0.9982505953
 H    0.3422952374   -0.6313748650   -2.0960754263
 H    3.0186546521   -0.7585395763   -1.6257368270
 H    3.2927083300   -0.4604207844    1.0967708731
 H    2.6443042194    1.1290009841    0.6059172240
 H    0.8204181771   -0.7246179113    1.9357462154
 H    0.2927865588   -3.4899652525    0.0547754416
 H    1.4670264025   -3.5088130295   -1.2685742110
 H    2.0266866671   -3.5794485073    0.4061725864