14

 O    0.1164382335    0.0516309037    0.5508749730
 C    0.0218381889    1.1566453545    0.0809132257
 N    1.0311012766    1.8029885781   -0.6301382674
 C    2.4308734198    1.7675184945   -0.2103515060
 C    3.3796519002    1.9018412341   -1.3653238694
 C    3.2300137686    3.0804881908   -1.9844354152
 C    2.1960880544    3.9118959032   -1.3009924753
 O    1.8631051934    5.0413237441   -1.5593714092
 C    1.6587196814    3.0467169739   -0.1603662537
 H   -0.9088457814    1.7541090125    0.0952340032
 H    2.6734629914    1.1920395602    0.6751841056
 H    4.0556948695    1.1079185364   -1.6587687395
 H    3.7459056562    3.4221615160   -2.8719531898
 H    1.3086231975    3.5006015680    0.7599808679