17

 O   -0.0165204802    1.3725899436    0.0474844507
 C    0.0277785747   -0.0116691534    0.0237447381
 C   -0.2314757029   -0.8926425265   -1.1472970239
 O    0.7247728018   -1.9100368117   -1.2419700746
 C    1.7831854261   -1.5823074101   -0.3255857040
 C    1.0802161287   -0.8395439006    0.8288262233
 C    0.2392422727   -1.8319854333    1.6105916043
 C   -1.0107762702   -1.8729162382    1.1430428277
 C   -1.2132023722   -0.8664072875    0.0654366779
 H    0.6539603619    1.7098032163   -0.5574678443
 H   -0.6005295054   -0.5216140159   -2.0983699952
 H    2.2666128431   -2.5176680750   -0.0326248781
 H    2.5276860863   -0.9338221118   -0.8176840662
 H    1.7595775801   -0.2232662908    1.4234986692
 H    0.6591277402   -2.4886700160    2.3634426362
 H   -1.7872436908   -2.5563948242    1.4646096142
 H   -2.1857150638   -0.4313067750   -0.1372302654