16

 C   -0.0109656897    1.3607457635    0.0115215158
 O    0.0358725746   -0.0657762643    0.0351533139
 C    0.6392091029   -0.5881953058    1.1118385635
 N    1.1742251472    0.0555258630    2.1186699969
 C    1.6809754577   -0.9319892123    2.9492846552
 N    2.2775931472   -0.6009235618    4.1740951630
 C    1.4315611433   -2.1665012200    2.4274944417
 O    1.7663205658   -3.4269301377    2.8259285216
 N    0.7402816944   -1.9328526693    1.2245177752
 H    0.9984280723    1.7828855805    0.0203103987
 H   -0.5261219433    1.6250364752   -0.9126269763
 H   -0.5574865295    1.7457879304    0.8775081449
 H    2.6335236321    0.3467254533    4.1432184285
 H    3.0283902925   -1.2375408950    4.4130190300
 H    1.1232240843   -3.7389141477    3.4747519102
 H    0.4752701581   -2.6198427821    0.5402265672