16

 C   -0.0087562866    1.5651021845    0.0236014375
 C    0.0104063118    0.0605246470    0.0015597761
 C   -0.0168944342   -0.6553699059   -1.1467603724
 O   -0.0631636334   -0.1103801625   -2.3722504494
 O   -0.0009963140   -2.0007662358   -1.1988693660
 C    0.0463392589   -2.8103772188   -0.0379975761
 N    0.0589428099   -4.0738287508   -0.1564151284
 C    0.0761352039   -2.0747989446    1.2006462153
 C    0.0587744334   -0.7217600122    1.2051824555
 H    0.8799952267    1.9672964800    0.5241161177
 H   -0.0371414559    1.9742940860   -0.9875396878
 H   -0.8837600062    1.9449250979    0.5643326130
 H   -0.0730466603   -0.8302192259   -3.0157862569
 H    0.0314947996   -4.3544391049   -1.1357954705
 H    0.1126419441   -2.6648658963    2.1059975185
 H    0.0821039724   -0.1898597978    2.1522376939