18

 N   -0.0022212611    1.4781091190   -0.0831276569
 C    0.0508110693    0.0278726877   -0.0460238266
 C    1.0177045429   -0.5876284263   -1.0541078400
 O    2.2989742822   -0.0514502640   -0.7632529649
 C    0.1609494112   -0.4949299936    1.4162530879
 N   -1.3060906323   -0.7121368555    1.4351602667
 C   -1.3792552087   -0.6147153476   -0.0341010290
 C   -2.4830838882    0.1820205602   -0.5721878248
 N   -3.3367954602    0.8014144996   -1.0450034242
 H    0.9512856585    1.8306399594   -0.0660111036
 H   -0.4182326480    1.7944982386   -0.9559508037
 H    1.0161740929   -1.6860786736   -0.9709771107
 H    0.6905533698   -0.3269118520   -2.0743229474
 H    2.9208313174   -0.3540693600   -1.4309248867
 H    0.7640555310   -1.4080787090    1.4955856424
 H    0.5056400215    0.2377010385    2.1496345805
 H   -1.6247929696   -1.5941655559    1.8184726760
 H   -1.3786336986   -1.5806744856   -0.5606112050