18

 N    0.7845416907    0.0915768736   -0.3750952218
 C   -0.0275867434   -0.1490011335    0.6753824851
 O    0.0255966181    0.3905671590    1.7639076366
 N   -1.0202375735   -1.1371901437    0.4511238059
 C   -1.3174190465   -1.8881747954   -0.6678463676
 N   -0.6588278161   -1.7497091255   -1.7589017429
 C   -2.4404208675   -2.8829914767   -0.4462175724
 C   -1.9726785335   -4.1266967164    0.3173700426
 O   -3.1003186132   -4.9702575499    0.4611126019
 H    1.4833899862    0.8033584648   -0.2576914798
 H    0.6268887368   -0.3975540957   -1.2517682711
 H   -1.5930596104   -1.2599863490    1.2710846445
 H   -1.0068601764   -2.3815030636   -2.4743303841
 H   -3.2614452870   -2.4194517474    0.1125499956
 H   -2.8424527506   -3.1940029082   -1.4138127122
 H   -1.1644653838   -4.6171315655   -0.2466788577
 H   -1.5583725644   -3.8334678258    1.2942914117
 H   -2.8280067956   -5.7635400611    0.9318944155