22

 C    0.2400664041    1.5458888436   -0.0147988282
 N    1.2944645569    0.5371568765   -0.1579296543
 C   -0.1050160329    0.0929325864    0.0230846460
 C   -0.4457374193   -0.6537324777    1.2637710484
 C   -1.4578010720   -1.5287590351    1.2593056828
 C   -1.8815397279   -2.3529478254    2.4466794855
 C   -0.8233464278   -2.3533496095    3.5585466076
 C   -0.2715682400   -0.9406086719    3.7754077053
 C    0.3928096874   -0.4076860202    2.4990034067
 H    0.2816473329    2.1249325219    0.9031952926
 H   -0.0764323189    2.1118443850   -0.8876857949
 H    1.5677171272    0.4435654361   -1.1320157162
 H   -0.6220123496   -0.2738642622   -0.8623482100
 H   -2.0295216084   -1.6674903982    0.3425652389
 H   -2.8366337738   -1.9686018342    2.8372123820
 H   -2.0950623552   -3.3803319798    2.1244684018
 H   -1.2475517610   -2.7531372459    4.4858781097
 H    0.0005252251   -3.0206168189    3.2738197123
 H   -1.0951205891   -0.2734686113    4.0629936403
 H    0.4464064018   -0.9274986012    4.6026576641
 H    1.3766928508   -0.8727800659    2.3535805014
 H    0.6021536495    0.6630409578    2.6058075684