19

 C    0.0172144159    1.5598135620    0.0130978416
 C    0.0699546885    0.0335395642    0.0075062859
 C    0.8384213742   -0.5849680999   -1.1890091968
 C    1.2928374272   -1.9636917212   -0.7071054819
 C    2.5576785168   -2.0310616265    0.1104345100
 C    1.2234740005   -1.9716479551    0.8097917689
 C    0.7263176003   -0.5978249948    1.2626184975
 H    1.0262223899    1.9867102445    0.0614739716
 H   -0.4637405695    1.9472291346   -0.8916868302
 H   -0.5444882919    1.9379702897    0.8742199690
 H   -0.9581594795   -0.3502560286   -0.0415183439
 H    0.2066455876   -0.6517980310   -2.0800343830
 H    1.6972340704    0.0437839895   -1.4597389733
 H    1.0083715394   -2.8379688067   -1.2819245750
 H    3.0995294057   -2.9712504452    0.1302799985
 H    3.1950569712   -1.1509865252    0.1441968593
 H    0.8881523502   -2.8517555738    1.3470701783
 H    1.5565397792    0.0276470710    1.6171589700
 H    0.0158965239   -0.6736741373    2.0915224435