18

 O    0.3410135699    1.2516270698    0.2278036735
 C    0.1192255937   -0.0941577930   -0.1482196362
 C   -1.3573349493   -0.4533298157   -0.2179240700
 C   -2.0990493020    0.0438062595   -1.4365345533
 O   -1.9879819147    1.4767493917   -1.5337158971
 C   -2.9599534042    2.2168838281   -0.9450767611
 O   -2.8814063149    3.4034692564   -0.8550413531
 C   -1.8397530676   -1.6797390298    0.4700187916
 N   -2.1515933583   -0.3508253375    1.0164923655
 H   -0.0952490428    1.8130033657   -0.4243987957
 H    0.6007612527   -0.3335130515   -1.1104731408
 H    0.6082404711   -0.7041600332    0.6191527791
 H   -1.6660699269   -0.3477730701   -2.3610941452
 H   -3.1536291653   -0.2479179634   -1.3861994511
 H   -3.8054442432    1.6040790460   -0.5868954300
 H   -2.6935190856   -2.2285637929    0.0807400081
 H   -1.1009194174   -2.2981790139    0.9729526646
 H   -1.5406209651   -0.1206285962    1.7968780913