21

 C   -0.1315108512    1.5382515896    0.2931782425
 C    0.0432012799    0.0181478536    0.1818753063
 C    0.8124307731   -0.5408087012    1.3868716109
 C   -1.3195870695   -0.6691313805    0.0187187494
 C   -1.2649954473   -2.1108037119   -0.4521160681
 O   -0.2420539325   -2.6749743256   -0.7681092805
 C   -2.6003544786   -2.8606665588   -0.5117149389
 C   -2.5416463727   -4.1150659251    0.3497604417
 O   -3.3976213477   -4.4341583193    1.1305621432
 H    0.8386946127    2.0364904289    0.3866681415
 H   -0.6371534514    1.9523840042   -0.5859650718
 H   -0.7256026408    1.8048448493    1.1756767941
 H    0.6262765644   -0.2019523826   -0.7204974890
 H    0.9731923111   -1.6166665605    1.2883877004
 H    1.7918228909   -0.0604761419    1.4777328345
 H    0.2655437758   -0.3557362366    2.3197843368
 H   -1.8953145491   -0.6387302065    0.9560282277
 H   -1.9462570458   -0.1306463854   -0.7090676404
 H   -3.4588854945   -2.2537521326   -0.2189392197
 H   -2.7287389083   -3.1935216546   -1.5502171577
 H   -1.6234680384   -4.7189397325    0.1955779170