17

 C   -0.3032988693    1.6476538705    0.3359830375
 C    0.2162350929    0.2847330033   -0.1388052686
 C    0.9163529672   -0.4537035335    0.9770011293
 N    0.0874855583   -1.1790646872    1.9255781244
 C    0.9940919594   -1.9645254245    1.0739020835
 C    0.3684238751   -2.8409168233    0.0450487773
 O   -0.7496393621   -2.7426889790   -0.3950508937
 C    1.2801035840   -3.8912413321   -0.4688330307
 N    1.9963750210   -4.7105820852   -0.8599824111
 H    0.5115696773    2.2858697108    0.6958256493
 H   -0.8051226103    2.1766254439   -0.4789745812
 H   -1.0214920415    1.5228386241    1.1519226541
 H   -0.6134842062   -0.3245260462   -0.5047058013
 H    0.9198178832    0.4185271608   -0.9698562643
 H    1.8037063999    0.0456532918    1.3689229837
 H    0.4634904889   -1.1369573238    2.8690833284
 H    1.9069836522   -2.3684225405    1.5048209733