18

 C    0.0852940480    1.4938554800    0.0283339801
 C   -0.0047828499    0.0001727083   -0.0033544765
 C   -0.1218497260   -0.7774271795   -1.0915376922
 C   -0.0600304190   -2.2217350897   -0.7255716986
 O    1.1912095413   -2.6050801423   -0.0976126040
 C    0.0798840368   -2.2782118407    0.7380256486
 C    0.0765478952   -0.8531366078    1.2301427104
 C    0.7324408824   -0.4165545825    2.4922706696
 N   -0.7251605170   -0.5780847872    2.4421372834
 H    1.0857200771    1.8265055622    0.3313796951
 H   -0.1238501989    1.9191517434   -0.9561679164
 H   -0.6246208290    1.9348728448    0.7394718686
 H   -0.1988218826   -0.4184325339   -2.1107372376
 H   -0.5290072370   -2.9970948536   -1.3226959583
 H   -0.3103839047   -3.0687168608    1.3723468438
 H    1.2578059935   -1.1481468836    3.0995744892
 H    1.1505246506    0.5860640521    2.5295183813
 H   -1.1805923308    0.3286321107    2.3646646836