22

 C   -0.1942374831    1.5012499667   -0.0002369642
 C    0.0732646065   -0.0117692355   -0.0098047458
 C    0.6946144331   -0.4614844814   -1.3368889684
 C    0.6860238035   -1.9787715993   -1.5531322898
 N    1.4813292499   -2.8177086808   -0.6710525294
 C    1.4957813029   -2.7249471768    0.5851819829
 O    0.8962976518   -1.8568627840    1.4496607400
 C    0.8920024904   -0.4303607977    1.2242069445
 C    2.3279648845    0.0952976831    1.2845363254
 H    0.7173633887    2.0769568734   -0.1924512145
 H   -0.9161749858    1.7652297620   -0.7789404792
 H   -0.6041734102    1.8326426566    0.9599115160
 H   -0.8948153284   -0.5221705530    0.0946487904
 H    0.1273643092   -0.0115035582   -2.1616254292
 H    1.7177098610   -0.0776945775   -1.4314197202
 H   -0.3548591764   -2.3337305288   -1.4971820235
 H    1.0202180300   -2.1854413013   -2.5756789563
 H    2.0255200654   -3.4890842632    1.1574178539
 H    0.3563272336   -0.0616656236    2.1055313966
 H    2.9423653894   -0.3055464377    0.4743037817
 H    2.3484993946    1.1866616160    1.2234517408
 H    2.7836218496   -0.2008426290    2.2330078284