18

 O    0.0319852442    1.4801190675   -0.0732135607
 C    0.0261153062    0.0755739098    0.0260364521
 C    0.1536091860   -0.5991993483    1.4176674859
 C   -0.9134141731    0.0594142138    2.3032656889
 C   -1.5081112909   -1.1218134436    3.0992577897
 N   -2.0499774706   -1.6410991435    1.7987352638
 C   -2.0817668469   -0.1988987482    1.2816892939
 C   -1.3525290368   -0.5776779505   -0.0310454856
 C   -0.8476889351   -1.7242720243    0.8952044733
 H    0.9388586256    1.7898558957    0.0162759933
 H    0.7053117453   -0.3891070991   -0.7036339083
 H    1.1215407152   -0.8294491270    1.8626830693
 H   -0.6935739987    1.0347208416    2.7356635077
 H   -0.8303650845   -1.7957901811    3.6349618671
 H   -2.3399458420   -0.8383207916    3.7508068998
 H   -3.0160098398    0.3564118826    1.3410964100
 H   -1.9243916868   -0.7127236876   -0.9460846448
 H   -0.4859212371   -2.7012133262    0.5830553644