17

 C   -0.3814266312    1.6069850947   -0.2421535316
 C    0.0272641685    0.1619133362   -0.0193966897
 C    0.7859565455   -0.5824750085   -1.1916913770
 C    1.9263258000   -0.7185143265   -0.1983464232
 C    3.1229018012   -1.1708946028    0.3093756970
 C    3.1391786391   -0.7190784734    1.6692056566
 C    1.9653083031   -0.0333827741    1.9466098896
 N    1.2599035614   -0.0404801005    0.7749121626
 H    0.4530454068    2.1893584193   -0.6440334162
 H   -1.2151951391    1.6567835311   -0.9501432615
 H   -0.7067079159    2.0725699090    0.6937560140
 H   -0.8102089024   -0.4223983342    0.3777542101
 H    0.3129035640   -1.5126203555   -1.5186472820
 H    0.9757611526    0.0451488167   -2.0678507564
 H    3.8923762071   -1.7388570140   -0.1890240810
 H    3.9446835862   -0.8717330121    2.3728139462
 H    1.6222394031    0.4538069146    2.8444824528