21

 O    0.4095799261    0.9883894338   -1.1909637547
 C    0.2506652443   -0.1301583977   -0.3662855029
 C    1.1351339480   -1.3215791120   -0.6974030049
 C    2.6315334293   -1.1329578635   -0.3727929295
 C    3.3840146584   -0.2181216554   -1.3101309989
 O    3.1933599002    1.1969805807   -1.1549677240
 C    4.4760471458    0.6460340575   -0.8409832531
 C   -0.1424782433    0.1184664483    1.0736322419
 C   -1.1658950515   -0.3651048590    0.0622734420
 H    1.2850135424    1.3646824186   -1.0226730317
 H    0.7740831278   -2.1890958271   -0.1336178570
 H    1.0127560979   -1.5644282465   -1.7610452507
 H    2.7404119492   -0.7613226788    0.6532680647
 H    3.1279772951   -2.1115389133   -0.4103022727
 H    3.4036252932   -0.5315966204   -2.3551998178
 H    4.7370429494    0.6486136361    0.2162631226
 H    5.2773314225    0.9348571773   -1.5187478237
 H    0.1917119918   -0.5736464812    1.8402577633
 H   -0.2079125310    1.1529631649    1.3904127078
 H   -1.8960568870    0.3547013564   -0.2886576074
 H   -1.5289226087   -1.3843448286    0.1399327265