20

 C   -0.0766909942    1.5016036785   -0.1481445779
 N   -0.0193520330    0.0524194107   -0.0236912094
 C   -1.3389326372   -0.5666550632    0.0879778393
 C   -1.4096343858   -1.9118321029   -0.6353528171
 C   -0.6471683797   -3.0864095787   -0.0395665686
 O   -1.0160983403   -4.2217846123   -0.2811540353
 C    0.5359632626   -2.8987563832    0.8308800231
 C    1.1456287705   -1.7880433879    1.2640543014
 C    0.9002891584   -0.3304947656    1.0273997723
 H    0.9298252358    1.8965341815   -0.3213004147
 H   -0.6964563478    1.7764979924   -1.0060741653
 H   -0.4859264490    2.0070110711    0.7476758729
 H   -1.6585707798   -0.6686323418    1.1408090509
 H   -2.0637780454    0.1011522239   -0.3867351570
 H   -2.4483637339   -2.2431734915   -0.7317527991
 H   -1.0270401451   -1.7681992106   -1.6538359286
 H    0.9240514670   -3.8558652497    1.1701798640
 H    1.9816630183   -1.9391594466    1.9468421926
 H    1.8746173504    0.1286786540    0.8075054194
 H    0.6042456184    0.0985561420    2.0132553973