19

 C    0.0162798070    1.6195479034   -0.0223759920
 C    0.0819331751    0.1105083156    0.0842166336
 O    1.0634780380   -0.4915185501   -0.8179722539
 C    1.6229113565   -1.2379340863    0.2586751535
 C    2.2267269787   -0.3381003670    1.2869588407
 C    0.7268572263   -0.5841254172    1.2929516209
 C   -0.0014841543   -1.1495901171    2.4504188511
 C   -1.1944315407   -0.5142484650    3.0309219416
 O   -1.3133260683   -1.6730444825    2.2038357528
 H    0.9690355002    2.0867822535    0.2401878758
 H   -0.2349855091    1.9095993678   -1.0475350976
 H   -0.7615467467    2.0155103526    0.6394373088
 H   -0.8978435516   -0.3395711629   -0.1138962634
 H    1.8949554091   -2.2718576752    0.0803999117
 H    2.7597842009   -0.8398448336    2.0898425754
 H    2.6397766826    0.6225549073    0.9943113110
 H    0.6045024231   -1.7717157102    3.1115207462
 H   -1.4290772737   -0.6617237892    4.0844011960
 H   -1.5768664532    0.4093407259    2.5982989676