13

 O   -0.0573367637   -0.0295582475    0.0312686468
 C   -0.0208720774    1.1719908438   -0.0432209477
 N   -1.0950086125    2.0558233867   -0.1513770904
 C   -0.5072627285    3.3707724730    0.0095095397
 C    0.7978345436    3.3984824362   -0.8320860965
 O    1.4410601597    4.2954413193    0.1335591092
 C    0.7424091675    3.3104101980    0.9566642705
 C    1.1668536953    2.1312146097    0.0071062048
 H   -1.9985245932    1.8042021072    0.2203160218
 H   -1.1817294365    4.2228432955    0.0193430621
 H    0.9444243140    3.5832903225   -1.8961474479
 H    0.8295306814    3.3867884591    2.0410246271
 H    2.1776513004    1.7352356364    0.0204863506