25

 C   -0.2920110032    1.5603292420    0.2141545225
 C   -0.0172719497    0.0572370441    0.0652481260
 C    0.9459134541   -0.4263684334    1.1573305928
 C   -1.3524403015   -0.7118362615    0.0218848337
 C   -1.2684293354   -2.2241796747   -0.2174135577
 O   -0.3488364840   -2.4178331882   -1.2741627541
 C   -1.0763311662   -3.0946597865    1.0708420691
 C   -2.6068826950   -3.3435591470    1.0973735809
 C   -2.6772387586   -2.8777236094   -0.3802182361
 H    0.6384509084    2.1365976691    0.1748321512
 H   -0.9486277654    1.9298523842   -0.5808762585
 H   -0.7763790388    1.7804913347    1.1737628839
 H    0.4732717720   -0.1056107877   -0.9009804383
 H    0.4954700591   -0.3472269811    2.1548287730
 H    1.2449126725   -1.4652948972    0.9984072594
 H    1.8562125638    0.1831763104    1.1614336865
 H   -1.9147953185   -0.5349234810    0.9488181411
 H   -1.9569475146   -0.2848673328   -0.7890657942
 H   -0.3034267223   -3.3608952059   -1.4608001808
 H   -0.5216966193   -4.0093013129    0.8328552415
 H   -0.6155628019   -2.6305332659    1.9440680856
 H   -2.9429613255   -4.3586293135    1.3175342204
 H   -3.1254916284   -2.6573005941    1.7716369473
 H   -3.5023011172   -2.2265324296   -0.6817196730
 H   -2.6306991143   -3.7226332323   -1.0761444121