15

 C   -0.4626345387    1.1904685152   -0.0559932211
 N    0.3752729116    0.0161375883    0.1928309782
 C    0.8637420879   -0.6431101175   -0.9613063391
 C    0.6869347007   -1.9794482510   -1.2269395481
 N    0.1198655034   -2.9691269642   -0.4704721761
 O    1.2378020567   -2.3101189419   -2.3941443437
 N    1.8178834676   -1.1462790241   -2.9743851218
 C    1.5858364582   -0.1963781562   -2.1040647866
 H    0.0408654295    1.9964442271   -0.6134579205
 H   -1.3440871670    0.8890886122   -0.6296729505
 H   -0.8011373187    1.5992277122    0.9010080063
 H    1.1262372057    0.2539681735    0.8318696476
 H   -0.4712566813   -2.5976720839    0.2610757825
 H   -0.2976291044   -3.7268551988   -0.9913733500
 H    1.9405371487    0.8011720690   -2.3284101569