16

 O   -0.2226829868   -0.0052031560   -0.1036722547
 C   -0.1646498569    1.1800041662    0.0277089805
 C   -1.1564635600    2.3190592476   -0.0804300443
 N   -0.8418962713    3.1990223182    1.0966545597
 C   -0.0101833196    3.2977002973   -0.1094802456
 C    1.0427289312    2.1944641389    0.0661749379
 C    2.1622896086    2.1907002990    1.1150394861
 C    3.0839154280    1.9125455322   -0.0897353842
 O    1.9667664349    2.0083163675   -1.0099991072
 H   -2.1276184920    2.3514931628   -0.5570405877
 H   -1.5260534347    3.9552354240    1.0690712489
 H    0.0844539026    4.2009572473   -0.6972969985
 H    2.3130809262    3.1484238943    1.6148168253
 H    2.0975836367    1.3970631838    1.8597801242
 H    3.8480548104    2.6663192020   -0.3084345857
 H    3.5384013926    0.9166108549   -0.1145514847