21

 C   -0.0604385961    1.5271117656   -0.1014666828
 C   -0.0711582058    0.0230556489   -0.0742191626
 C    0.8427998611   -0.9527949858   -0.8873829496
 C    1.9623777911   -0.9126513088    0.2030873288
 C    0.6342509580   -0.8928576780    0.9935495666
 C   -0.1403152402   -0.8482131253    2.2959569635
 C   -1.5841092079   -0.8876146075    1.6539191537
 C   -1.2723886066   -0.9323407262    0.1290645645
 C   -0.0587422454   -1.8690010065   -0.0109154809
 H    0.9629451344    1.9190434618   -0.0807167798
 H   -0.5431515809    1.9112570318   -1.0072831746
 H   -0.5951491406    1.9450504749    0.7596353180
 H    0.9730075419   -0.9921862422   -1.9702417845
 H    2.5830873290   -1.8091576042    0.3017282669
 H    2.5856443967   -0.0133962822    0.2453674267
 H    0.0471280931   -1.7043703676    2.9506868753
 H    0.0309721393    0.0638645083    2.8763990893
 H   -2.1459597020   -1.7697822952    1.9771500422
 H   -2.1762921600   -0.0079271412    1.9265843262
 H   -2.1296997806   -0.9620299891   -0.5485427987
 H   -0.0152671184   -2.9579050016    0.0589739119