20

 C   -0.0129525579    1.4726552208    0.0189399758
 N    0.0105492696    0.0287807954   -0.0331612775
 C    0.0401651118   -0.7595872834   -1.1974177522
 C    0.0554123190   -2.0641181539   -0.9126126768
 C    0.0350709067   -2.2423967636    0.5894569526
 C   -1.2274951840   -2.9671092516    1.0942041757
 C    1.3031378314   -2.9285880519    1.1328505816
 C    0.0052349882   -0.7796348147    1.0883357039
 O   -0.0185264976   -0.3958766343    2.2392920481
 H    0.8772903416    1.9045707895   -0.4524175455
 H   -0.9032075803    1.8766415229   -0.4765964434
 H   -0.0317601668    1.7547969545    1.0732202050
 H    0.0475706804   -0.2647129917   -2.1590423529
 H    0.0786979696   -2.8726459311   -1.6282158351
 H   -1.2147629649   -4.0174503378    0.7861367156
 H   -1.2686796376   -2.9209823345    2.1864919206
 H   -2.1360662054   -2.5063317234    0.6957570335
 H    2.2089931355   -2.4400190160    0.7623054387
 H    1.3094248713   -2.8819828584    2.2258781595
 H    1.3319127096   -3.9786174768    0.8248021429