16

 C   -0.0095657697    1.5869001622    0.0415477371
 C    0.0227033543    0.0859906060    0.0925889063
 C   -1.2600053144   -0.7905582558    0.2217739563
 C   -0.3523684025   -1.8564870086    0.8408818522
 C    0.9612942399   -1.8710316138    0.0447623459
 C    0.6993639045   -0.8586283028    1.1862691604
 C    0.8870733037   -0.7199751796   -0.9047515320
 O    1.4705166286   -0.4136189348   -1.9079006783
 H    1.0021483727    2.0027152024    0.0034900820
 H   -0.5351700913    1.9212916435   -0.8593064223
 H   -0.5257746232    2.0091551624    0.9096755512
 H   -1.9523892566   -0.3818896143    0.9637525491
 H   -1.7999996922   -1.0269475290   -0.7023580289
 H   -0.6387008734   -2.7414482116    1.3951341026
 H    1.6328598993   -2.7182356532    0.0522029431
 H    1.3177561504   -0.6645658630    2.0490412855