20

 C    0.1663633066    1.2845743082    0.2647005330
 C   -0.0068415651   -0.1718231840   -0.1638195858
 C    0.6224863417   -0.4872165957   -1.4835691764
 N    1.2449130163    0.3142855155   -2.2456021677
 C    1.6609821192   -0.4560607449   -3.4253082993
 C    1.2049238667   -1.9090389843   -3.1392600639
 C    2.3405728926   -2.9016529936   -2.9299496464
 O    1.8727510644   -4.1671989101   -2.5159296958
 O    0.4818544761   -1.7889026842   -1.8833572824
 H    1.2244584960    1.5429495031    0.3509047667
 H   -0.2761059744    1.9626117882   -0.4688594077
 H   -0.3141825389    1.4552207459    1.2320657698
 H    0.4181736865   -0.8557081903    0.5820163244
 H   -1.0689848398   -0.4403773213   -0.2294103816
 H    1.1991110691   -0.0389601195   -4.3261847313
 H    2.7476580468   -0.3854089802   -3.5569131458
 H    0.5001540493   -2.3023535677   -3.8775165029
 H    2.8729920122   -3.0500558393   -3.8760686437
 H    3.0563551207   -2.4725689433   -2.2083353810
 H    1.3171534941   -4.0114258426   -1.7434284521