15

 O   -0.0479925664    1.3059836558   -0.0241649712
 C    0.0186906915   -0.0403077012   -0.0796287606
 C   -0.1508376666   -0.8269747073   -1.1888712882
 N   -0.0678718142   -2.1314409690   -0.6729063422
 C    0.2122233582   -3.4771361264   -1.1240863352
 C    0.2244064277   -4.1953048104    0.2557670045
 O    0.4995455694   -3.1732918182    1.2423288935
 C    0.2153165452   -2.0007611288    0.6395998804
 N    0.2595802975   -0.7716741746    1.0727879357
 H    0.1205555647    1.5449570327    0.8952111736
 H   -0.4132884656   -0.6055219663   -2.2066488633
 H   -0.5633641189   -3.8774297313   -1.7823809196
 H    1.1789686097   -3.5378149568   -1.6408240037
 H   -0.7549598783   -4.6334484451    0.4750619592
 H    0.9941926461   -4.9628385133    0.3394798773