18

 C    0.1590536552    1.4603594410   -0.0579730020
 C   -0.0399846508   -0.0608068198    0.0714109903
 C    0.6598454787   -0.5794061223    1.2508187144
 N    1.2267144471   -0.9925637204    2.1689614328
 C   -1.5485589528   -0.4510023693    0.1479444259
 O   -2.1707668254    0.1985548121    1.2128161397
 C   -2.2797681348   -0.1263267557   -1.1648014218
 C   -1.8109068435   -0.7754254319   -2.4446374190
 O   -3.2244536666    0.6318015739   -1.1235433500
 H    1.2214380147    1.7120659461   -0.0675050110
 H   -0.2912572321    1.8265872976   -0.9855064395
 H   -0.3174233678    1.9677952400    0.7821208350
 H    0.3986505704   -0.5673252573   -0.7972756956
 H   -1.6024745219   -1.5441436911    0.2823635518
 H   -2.8973953890    0.7069877299    0.8141039548
 H   -1.5370757669   -1.8227846573   -2.2867408116
 H   -2.5928588468   -0.6987865509   -3.2010256085
 H   -0.9184196578   -0.2578515047   -2.8163194357