17

 C    0.0200965420    1.5869654733    0.2629127527
 C    0.0018760096    0.0669685305    0.0163924804
 C   -1.3734551116   -0.5068814006   -0.0911469772
 C   -2.1499041396   -0.7911250895   -1.1974031175
 O   -1.7922296235   -0.6165901301   -2.5034191586
 C   -3.3646980605   -1.2839955389   -0.6769004887
 O   -4.4073153513   -1.6869967751   -1.4437495352
 N   -3.3728608842   -1.3150133261    0.6445604615
 N   -2.1532574513   -0.8266338088    0.9828388336
 H    1.0479882804    1.9563185317    0.3327411982
 H   -0.4802416142    2.1165734810   -0.5526681105
 H   -0.4963580278    1.8433608007    1.1933599989
 H    0.5329332220   -0.1584614088   -0.9138160858
 H    0.5517245084   -0.4423561002    0.8183869247
 H   -2.5069943236   -0.9599526407   -3.0498784055
 H   -5.1034223514   -1.9904846463   -0.8487231009
 H   -1.8984006636   -0.7904071521    1.9533525499