15

 O   -0.1484944194   -0.1058522506    0.1292645298
 C   -0.0490541487    1.1011222857    0.1511200106
 N   -1.0853475336    2.0529251198    0.1608841071
 C   -0.6186831017    3.3733440385    0.2838062824
 C    0.7245040928    3.2770428658    0.2510104495
 C    2.1097590688    3.6363611680    0.7194322441
 C    2.4196510289    2.7833748670    1.9457288382
 C    2.4327740210    2.1377430002    0.5893248361
 N    1.0713293606    1.9296205088    0.0871954930
 H   -2.0384550341    1.7769949660   -0.0002827268
 H   -1.2889770489    4.2068854632    0.4042851266
 H    2.7087593994    4.4862139057    0.4265021408
 H    3.3995640796    2.9507499667    2.3845727358
 H    1.6340700802    2.5460757037    2.6558509271
 H    3.2793584153    1.6362502714    0.1417700459