21

 C   -0.0170070237    1.4946268840    0.0021571768
 C    1.2903750287    0.7342386556    0.0337361367
 C   -0.0266185104   -0.0051068061   -0.0028666616
 C   -0.4670854400   -0.8291243658    1.2029926088
 C   -0.1657385188   -2.2712414641    0.7556642429
 C   -0.5120178404   -2.2649171937   -0.7321978233
 C   -0.3876260040   -3.4442422724   -1.5926715602
 O   -1.6711870948   -3.0092021445   -1.1355834371
 C   -0.4225672269   -0.8174802086   -1.2368097091
 H   -0.3316719693    2.0063796132    0.9062201643
 H   -0.2830103333    2.0125729286   -0.9138516312
 H    1.9025712190    0.7383337804   -0.8625660164
 H    1.8569884464    0.7329909168    0.9596706600
 H    0.0455939871   -0.5424802684    2.1255188195
 H   -1.5450639191   -0.7077225413    1.3711062353
 H    0.9023794247   -2.4839077109    0.8852457591
 H   -0.7332680944   -3.0377093760    1.2882674359
 H   -0.2032281477   -3.3196635363   -2.6598720788
 H   -0.0361125219   -4.3880347733   -1.1745002761
 H   -1.4111769486   -0.5265291851   -1.6098794766
 H    0.2871577275   -0.7004271921   -2.0613082189