12

 N   -0.0325864084    1.3393454031   -0.1327708331
 C   -0.0174962455    0.0649446335    0.0149730327
 C    1.1836755452   -0.7740856889    0.1498115794
 N    1.2336150784   -2.0477763360    0.2985730221
 O    0.0271698493   -2.7399780485    0.3405086504
 C   -1.1438007579   -2.0521804521    0.2240978976
 C   -1.2352088434   -0.7185278644    0.0670996925
 C   -2.2766569682   -2.9217054067    0.2888553011
 N   -3.2023048742   -3.6130576742    0.3395590716
 H    0.9178533642    1.7168009462   -0.1464115689
 H    2.1654199039   -0.3045917642    0.1265384524
 H   -2.1990043234   -0.2352171177   -0.0191484979