19

 C    0.0973297690    1.5520546482    0.2074461232
 C    0.0483932762    0.0358806959    0.1230545865
 C    0.3633196849   -0.4904875563   -1.2782981795
 O    0.4061520214   -1.9110847578   -1.2954877430
 C    1.3399719100   -2.4141323769   -0.3577120057
 C    1.0285074373   -1.8950575275    1.0491754551
 O    1.0033404169   -0.4805212890    1.0490984646
 C    1.2977494769   -3.9287282557   -0.4445909514
 O    1.7912862330   -4.6552423246    0.3781209499
 H    1.0863121948    1.9216490882   -0.0802486295
 H   -0.6502959067    2.0006212123   -0.4536455512
 H   -0.1037923312    1.8778493678    1.2309104740
 H   -0.9541298667   -0.3289613254    0.4057355206
 H   -0.4103941644   -0.1944473955   -1.9924048412
 H    1.3305167193   -0.0789237136   -1.6117361221
 H    2.3619736440   -2.0880328884   -0.6274446016
 H    0.0585773851   -2.3006137150    1.3790940880
 H    1.7999114113   -2.2145237454    1.7524569386
 H    0.7675955586   -4.3119157112   -1.3437598952