20

 C   -0.0918025565    1.5956416440    0.2571260378
 C   -0.1084017068    0.0655390949    0.1979742508
 C   -1.4824577930   -0.5489406958   -0.1652487923
 C   -1.9368900172   -0.1676782882   -1.5814028561
 C   -1.4555305628   -2.0420847940    0.0262577412
 C   -1.5068010750   -3.0469693077   -0.8898149828
 O   -1.4389470500   -4.2497636607   -0.2955525886
 N   -1.3395103128   -4.0656059858    1.0780846280
 C   -1.3490705350   -2.7685222159    1.2515994058
 H    0.8862556702    1.9584429118    0.5875016881
 H   -0.2955514901    2.0491651175   -0.7174988676
 H   -0.8406627691    1.9727671082    0.9630404834
 H    0.6358913707   -0.2915109115   -0.5256024681
 H    0.2040840156   -0.3321855505    1.1708547004
 H   -2.2162308715   -0.1396724459    0.5445610716
 H   -2.9019259127   -0.6242846438   -1.8208718860
 H   -2.0462867749    0.9144424708   -1.6843626524
 H   -1.2085683712   -0.5002538434   -2.3301342810
 H   -1.5949171201   -3.0651439497   -1.9644872151
 H   -1.2852804879   -2.3768796243    2.2579188527