18

 C    0.0593874695    1.5129065489   -0.0152194096
 C    0.0130704545   -0.0006376190   -0.0094444500
 C   -1.3001805305   -0.7060023185    0.4293514313
 N   -0.5632210128   -1.6130043623    1.3736502520
 C    0.6362764947   -2.1848796034    0.6615756029
 C    0.6626518168   -0.7914957655    1.1732527873
 C    0.6995293088   -2.1618333611   -0.8402745888
 O    0.9185491093   -3.1068629965   -1.5552150848
 C    0.5236095593   -0.7014318032   -1.2750083851
 H    1.0800606543    1.8766869555   -0.1784581446
 H   -0.5692990895    1.9203190642   -0.8145336809
 H   -0.2974466466    1.9247190360    0.9346490213
 H   -1.9523400578   -0.0664458522    1.0295717781
 H   -1.8933085642   -1.2135935012   -0.3398790763
 H    1.0736390643   -3.0192341818    1.1961712301
 H    1.2771825819   -0.4247913208    1.9878744964
 H   -0.1462860207   -0.6167159089   -2.1359429208
 H    1.5069938488   -0.3146205403   -1.5735951083