19

 C    0.0542796595    1.3850185739   -0.1962774180
 N   -0.0190664036   -0.0510383584    0.0634903669
 C    0.7298670020   -0.4195718637    1.2628176400
 C   -1.3785524682   -0.5552426343    0.0693848590
 C   -2.0949697753   -0.5545034380   -1.3125259438
 O   -2.2817452369   -1.9776128701   -1.2712898332
 C   -1.5163296788   -2.1000880924   -0.0625859821
 C   -2.2007218178    0.0162227241    1.1565682513
 N   -2.7895313494    0.4995323279    2.0270513569
 H    1.1030659206    1.6696338385   -0.3169970513
 H   -0.4689343586    1.6259982657   -1.1260911662
 H   -0.3795470158    1.9946755965    0.6140907821
 H    0.3447941682    0.0597954204    2.1785189847
 H    0.7027792897   -1.5038125654    1.4044850309
 H    1.7743055028   -0.1233362373    1.1327208694
 H   -3.0427901857   -0.0111172347   -1.3695593484
 H   -1.4280155858   -0.2459967216   -2.1256362902
 H   -0.5504066412   -2.5901525323   -0.2298727995
 H   -2.0700563459   -2.6093877485    0.7316977516