10

 O    0.0273263669    1.4101904451    0.0096627693
 C   -0.0254740880    0.0116101535    0.0024275163
 C   -1.4788233546   -0.4435175569    0.0137177129
 O   -2.4202982569    0.3105901444    0.0266779813
 C   -1.6363679554   -1.8915267792    0.0074352944
 C   -1.7587079359   -3.0888596510    0.0023283585
 H    0.9516999394    1.6748732457    0.0007930495
 H    0.4478553027   -0.4383556369   -0.8879182904
 H    0.4646245133   -0.4481056078    0.8786277910
 H   -1.8829033815   -4.1447362670   -0.0020694127