15

 C    0.0295107504    1.4959088621    0.0689282958
 C   -0.0308468162   -0.0404282063   -0.0116812859
 C    0.7771381490   -0.6018395040   -1.2373672377
 N    2.0076889752   -1.0430447596   -0.5749788335
 C    1.7193289805   -1.1383482313    0.7703996280
 N    0.6305295316   -0.6167009661    1.1896091114
 C   -1.4332127530   -0.4808889386   -0.0669272435
 N   -2.5350591177   -0.8195599675   -0.1450977739
 H    1.0758024096    1.8133383372    0.0621236813
 H   -0.4883567311    1.9522115783   -0.7795239201
 H   -0.4338643856    1.8387486648    0.9959166184
 H    0.2530559613   -1.4342958109   -1.7199565498
 H    0.9729773788    0.1718675870   -1.9840214450
 H    2.5706955058   -1.7583128972   -1.0102356471
 H    2.4415701214   -1.6056452581    1.4337147915