19

 C   -0.1961350007    1.4666338978    0.1205253619
 O   -0.0421078632    0.0570734609    0.0757090222
 C   -1.2498245617   -0.6204480193   -0.0228410248
 C   -2.1478606923   -0.7269796714    1.2268586829
 O   -2.2292956505   -2.1655473221    1.0895150335
 C   -1.3324291379   -2.1708792836   -0.0441686943
 C   -2.1083127228   -2.1401609700   -1.3789854002
 C   -2.0088494410   -0.5784048739   -1.3906279783
 O   -3.1743654530    0.1945372554   -1.5282729403
 H    0.8071115066    1.8963146240    0.1513635733
 H   -0.7252340019    1.8476094276   -0.7632263722
 H   -0.7465898061    1.7857020449    1.0176742604
 H   -1.6296148716   -0.4366422086    2.1491517967
 H   -3.1328560476   -0.2440844633    1.1983328682
 H   -0.4824821209   -2.8433903987    0.0819524220
 H   -1.6134370265   -2.6230413370   -2.2247174621
 H   -3.1224800818   -2.5369812509   -1.2834046346
 H   -1.3190830067   -0.2272253411   -2.1635618825
 H   -3.8690046403   -0.2052836908   -0.9946048920