19

 C   -0.2794002275    1.3750704635   -0.0779178654
 C    0.1416728050   -0.0942490000   -0.0759602559
 C    0.6397846260   -0.5379029320    1.3043370808
 O   -1.0191845652   -0.8395190660   -0.4511532994
 C    1.2290742362   -0.3149639332   -1.1465956411
 O    1.5380369692   -1.7006430684   -1.2719960337
 C    0.8616765184   -2.3991757112   -2.2075439576
 N    0.8656774998   -3.6612675883   -2.1736711897
 H    0.5762883446    2.0298671809    0.1128422574
 H   -0.7190785008    1.6445331141   -1.0426634895
 H   -1.0296094805    1.5509555110    0.6973450878
 H   -0.1703606665   -0.4605065294    2.0347273103
 H    0.9894374018   -1.5745306881    1.2718073651
 H    1.4728253874    0.0856519750    1.6444281387
 H   -0.8530326746   -1.7675011487   -0.2504072316
 H    0.8831287425    0.0844235367   -2.1086111528
 H    2.1608400723    0.1875896267   -0.8710245017
 H    0.3669141073   -1.7633287488   -2.9531026423
 H    0.3523419645   -4.0291917136   -2.9720579792