18

 C   -0.0343816327    1.5989180241    0.1850625316
 C    1.4709315556    1.4322801620   -0.1128215582
 C    2.3874026034    1.3331985434    1.1203291032
 C    2.4142957871   -0.0687140364    1.7718605260
 C    1.0846312618   -0.7336142727    2.0559201257
 C    0.0070436027   -0.7111740664    1.2694401907
 C   -0.0651280990    0.0618059192   -0.0182773205
 O    1.2212461468    0.1245147240   -0.6939429114
 H   -0.3266216720    1.9797376662    1.1644919413
 H   -0.5582859440    2.1414079645   -0.6046925504
 H    1.8893620720    2.1174862182   -0.8571450126
 H    3.4153415642    1.5877585687    0.8376288559
 H    2.0736656527    2.0867004855    1.8532048813
 H    2.9910473261   -0.7340784239    1.1177432609
 H    2.9831550310    0.0016057618    2.7054788894
 H    1.0369472349   -1.3152519461    2.9740268373
 H   -0.8931065337   -1.2413922941    1.5714746265
 H   -0.8404005468   -0.3328685781   -0.6825740968