20

 C    0.4240761067    1.6036919016    0.4319475457
 C    1.4794848735    1.5400862535   -0.7059327383
 C    1.3534790986   -0.0119345118   -0.7113501527
 C    2.4618040173   -0.7557099665    0.0025183447
 N    2.8575945652   -0.2725822822    1.3345966444
 C    2.1516418375   -1.5807163938    1.2056703297
 C    0.7596265833   -1.6301977199    1.7134906622
 C   -0.2043630352   -0.8481795573    1.2211615590
 C    0.0271953175    0.1225247567    0.1109840875
 H    0.8976021445    1.6769097738    1.4115696128
 H   -0.3660039118    2.3542755677    0.3474789895
 H    1.1257633614    1.9861877849   -1.6395360869
 H    2.4677893876    1.9429539432   -0.4744429991
 H    1.2211986498   -0.4693507797   -1.6964272117
 H    3.2588502144   -1.1180428737   -0.6445901005
 H    3.8517776662   -0.4353113413    1.4771474875
 H    2.7518303847   -2.4716554807    1.3720625950
 H    0.5471671893   -2.3282460792    2.5184820484
 H   -1.2098153495   -0.9107686667    1.6315280839
 H   -0.8336405908    0.1189842513   -0.5672082610