17

 C   -0.0900289337    1.5074220475    0.0730883896
 C    0.0015226521   -0.0105238338   -0.0355026807
 C    0.8580511371   -0.4831291729   -1.1996906484
 O    0.6338505418   -0.5583318557    1.1584660825
 C   -0.1141566330   -0.7001352565    2.2369326156
 N   -1.3877829983   -0.3840132399    2.3263271564
 O   -1.6993834712   -0.7444116164    3.6531694123
 C   -0.5739781751   -1.2223916466    4.1791728541
 N    0.4429069712   -1.2291090680    3.3810312796
 H    0.9083267957    1.9436873054    0.1761650303
 H   -0.5537526892    1.9151744672   -0.8303484846
 H   -0.6993144533    1.8015734134    0.9300470372
 H   -1.0032885409   -0.4412571537   -0.1007009895
 H    1.8763328466   -0.0925625422   -1.1103846193
 H    0.9077245796   -1.5745012499   -1.2277677605
 H    0.4332544538   -0.1292116703   -2.1433110023
 H   -0.6140577931   -1.5553519477    5.2063315177