17

 C   -0.0859269814   -1.2322315079   -0.0043299970
 C   -0.0718973057   -0.0305396971    0.0025198265
 C   -0.0207308106    1.4257137516    0.0104541525
 C    1.4211541776    1.9700331420   -0.0008007556
 C    1.4468324126    3.5126272130    0.0079412133
 C    2.7946346779    4.0577716037   -0.0022861548
 C    3.9234678497    4.4942845315   -0.0112304669
 C    5.1926326151    4.9850389067   -0.0214333029
 C    6.3188111486    5.4209454548   -0.0304776082
 H   -0.1095370713   -2.2936903934   -0.0104468518
 H   -0.5666051970    1.8158311248   -0.8590566949
 H   -0.5490614966    1.8056493518    0.8951763626
 H    1.9635943502    1.5897501642    0.8697657068
 H    1.9460207773    1.5999854054   -0.8864198058
 H    0.8939225154    3.8938823323   -0.8617795337
 H    0.9114389164    3.8836508196    0.8929087223
 H    7.3091078016    5.8032399569   -0.0384069425