18

 C   -0.0800210537    1.4892185601   -0.1624933054
 C    1.4792236630    1.6472807421    0.0536516792
 C    2.0542348645    2.4879934943    1.2270402398
 C    2.4959289588    1.5832533479    2.4169146430
 N    1.3590950790    0.7205143909    2.7941623651
 C    1.0077148329    0.0662256333    1.7798734546
 O   -0.2436665442   -0.4313947399    1.4734787690
 C    0.0117623796   -0.0558173836    0.0711155430
 C    1.5114383830    0.1264268235    0.3565236057
 H   -0.7220035804    2.0025130004    0.5565377943
 H   -0.3986361638    1.7487323433   -1.1742312926
 H    1.9696128685    1.9070093959   -0.8866734281
 H    2.9098498639    3.0830142649    0.8904064338
 H    1.2981922260    3.1932784811    1.5890613114
 H    3.3825005837    1.0008252700    2.1245679378
 H    2.7801053372    2.1922929651    3.2779937827
 H   -0.4532589016   -0.7510980930   -0.6245352578
 H    2.3131374535   -0.5341289963    0.0323877845