18

 C   -0.1490383328   -1.2402767228   -0.3116587412
 C   -0.0556473868   -0.0575532258   -0.1210084230
 C    0.0240168842    1.3840823337    0.0920446822
 C   -0.6777476919    1.8400530423    1.3995579112
 O    0.1401135154    1.7006433860    2.5382975722
 C    1.2161961910    2.6169060190    2.5386707904
 C    2.0589513402    2.5216326301    1.2835924867
 N    2.4467796567    1.1654794484    0.8875908662
 C    1.4725041743    1.8952442726    0.0662513205
 H   -0.2177208387   -2.2880090356   -0.4684013998
 H   -0.5097800466    1.8762101332   -0.7324371546
 H   -0.9819721942    2.8937325398    1.2790112986
 H   -1.5720169626    1.2391698127    1.5775141399
 H    0.8389654274    3.6504151589    2.6377955340
 H    1.8159221052    2.3844536349    3.4241797707
 H    2.7710996185    3.3339427643    1.1471704541
 H    3.3562737607    1.1657496187    0.4350400009
 H    1.8090296302    2.2582137595   -0.9013948390