14

 C   -0.1682933089   -1.2774023006   -0.1676257123
 C   -0.0879434127   -0.0812211959   -0.0927681900
 C    0.0007652272    1.3620389257    0.0011460769
 C   -0.2740278452    2.0002090128    1.4361787354
 N    1.1027591031    2.5236146969    1.3337604377
 N    2.0961012448    3.2532232509    1.8605760211
 N    3.0586705058    3.1756354045    0.9670022352
 C    2.6836574601    2.4162115021   -0.1115196335
 C    1.3976163158    1.9952804776    0.1394912583
 H   -0.2332732974   -2.3355558652   -0.2355433740
 H   -0.6053347044    1.8380746768   -0.7753698020
 H   -1.0406027907    2.7760949929    1.4669089472
 H   -0.4097569309    1.2772412994    2.2406778895
 H    3.3538436734    2.2475039822   -0.9364770797