15

 C   -0.0071159215    1.5003287529    0.0106672086
 C    1.5610273568    1.7901596115   -0.1052445657
 C    1.8975593128    0.3230818919   -0.1079587579
 O    2.9288400136   -0.7027041322   -0.1665570122
 C    1.6260010234   -1.4494042707   -0.0629210870
 C    0.9966082370   -0.4245500484    0.8994431971
 N   -0.1790910750   -0.0103596303    0.0448145480
 C    0.8644624679   -0.4514361896   -0.9555184755
 H   -0.4304110349    1.9260983745    0.9233253491
 H   -0.5563569136    1.9004710093   -0.8446831784
 H    1.8243595620    2.3159528794   -1.0255210378
 H    1.9510518132    2.3417208443    0.7528770987
 H    1.6943358537   -2.5351394098   -0.0520540180
 H    1.0081422039   -0.3805944339    1.9880575518
 H    0.7214968905   -0.4389134589   -2.0355880109