17

 N    0.2970814522    1.1087776415   -0.1467059968
 C   -0.2830449911   -0.0802357119   -0.4443617906
 O   -0.1591555313   -0.5859137618   -1.5545343486
 C   -1.0907613071   -0.7103412931    0.6807455316
 C   -1.0151168977   -2.2563102133    0.7441098432
 O   -1.2341809970   -2.6675108226    2.0649696190
 C   -2.0618700358   -2.9662481419   -0.1482107913
 N   -2.0067935428   -2.7012140478   -1.4629133350
 O   -2.8623421075   -3.7275932054    0.3814868001
 H    0.8276570370    1.5775894883   -0.8631724002
 H    0.2437197288    1.5196434280    0.7682108999
 H   -0.7453643653   -0.3424776301    1.6510794927
 H   -2.1333688151   -0.3860350378    0.5749805324
 H   -0.0156399785   -2.5697839777    0.4045548801
 H   -1.9821285321   -3.2913513053    1.9929268671
 H   -1.3379910113   -2.0167280501   -1.8108606244
 H   -2.6778351153   -3.1398410591   -2.0718001493