17

 C   -0.0147656004   -1.2198160144    0.0124238319
 C   -0.0031957406   -0.0159665641    0.0020366066
 C    0.0038129043    1.4189191370    0.0039154742
 C   -0.4613093831    2.2050654497   -1.2707668425
 C    0.8722439426    3.0127478454   -1.2738517819
 C    1.3448282180    2.2609427740    0.0010367593
 C    0.9195051210    2.8615567496    1.3597023842
 O   -0.3517409105    3.5054373588    1.1847082553
 C   -0.3344061021    2.0928156303    1.3738439643
 H   -0.0246581650   -2.2815029286    0.0140090934
 H   -0.5867536339    1.5508977292   -2.1347903101
 H   -1.3666372996    2.7954185625   -1.1251364655
 H    1.5007414058    2.8104806150   -2.1435069273
 H    0.7628719998    4.0916563450   -1.1554291807
 H    2.3081061743    1.7529014458   -0.0033286481
 H    1.5434132256    3.2280528091    2.1668531824
 H   -0.9331411462    1.6820652958    2.1790556945