16

 O    0.2061843961    1.3627614292   -0.1373559140
 C    0.0417983573   -0.0186472589    0.0179764406
 C    0.4915357684   -0.6036863521    1.3769613015
 O   -0.1926236681    0.1455667635    2.4343199327
 C   -1.4760329889    0.4649973412    2.1594571061
 N   -2.1478980755    0.2270165833    1.1036272038
 C   -1.4184770548   -0.5338419119    0.0611734777
 C   -1.1969611096   -1.9527783152    0.5553529557
 C   -0.0917609182   -1.9943563646    1.3092154755
 H   -0.5173784630    1.8041561681    0.3237189459
 H    0.5995483746   -0.5077535823   -0.7844339184
 H    1.5512424416   -0.5105785194    1.6089704237
 H   -1.9239803483    0.9964172578    2.9979402744
 H   -1.9597128868   -0.4472090859   -0.8817358885
 H   -1.8824825601   -2.7695514947    0.3646556142
 H    0.2953867655   -2.8459622181    1.8542179790