22

 C   -0.0511818371    1.5739344496    0.0760654478
 C    0.0118023151    0.0333184227    0.0580025731
 C    0.7196582251   -0.4895430204    1.3242389500
 C   -1.3942539994   -0.5518433666   -0.0410357461
 N   -2.2277801350   -0.1209273627    1.1864277752
 H   -3.1835923552   -0.4799467671    1.1832234907
 H   -1.7429739342   -0.4400205042    2.0300352301
 H   -2.2444968424    0.9024213630    1.2181958670
 C    0.7645659300   -0.4488162897   -1.2039286059
 C    2.2868633917    0.0309254641   -1.3511330829
 O    2.7297655430    0.7555769632   -0.4263140291
 O    2.8171152034   -0.3924183922   -2.3787563653
 H    0.9845757207    1.9223787400    0.0160713886
 H   -0.6095265925    1.9638868203   -0.7838464378
 H   -0.4941900239    1.9849914754    0.9989050791
 H    0.2857828483   -0.1028036327    2.2618107100
 H    0.7164549065   -1.5857743859    1.3633212702
 H    1.7543423024   -0.1382275481    1.2624461720
 H   -1.9464507518   -0.1871159241   -0.9101389599
 H   -1.4021461361   -1.6441258014   -0.0290067574
 H    0.7702124571   -1.5457962483   -1.2362631701
 H    0.2343954842   -0.1117902549   -2.1038015796