14

 O   -0.0647348722    1.4863301410    0.1450262497
 C    0.0183254316    0.1028293271    0.0340839855
 C   -1.2916872493   -0.7061406239    0.0332136639
 N   -2.0030213522   -0.2220523500   -1.1472816575
 C   -0.9843022325   -1.3421505685   -1.3075532844
 C   -1.3341633057   -2.6071887972   -1.8375447336
 C   -1.5957872294   -3.6836102907   -2.3072779775
 C    0.3357412245   -0.5711465270   -1.3588301949
 O    1.2795469972   -0.5853544866   -2.0839647670
 H   -0.7460176223    1.7695105204   -0.4791524255
 H    0.7417315529   -0.2551996839    0.7737590513
 H   -1.7995512844   -1.1703695821    0.8684306776
 H   -2.9182939366   -0.6697090403   -1.1922441772
 H   -1.8235392716   -4.6356850683   -2.7195555804