21

 C   -1.1743587090    0.3860097302    0.3023219003
 C    0.2513110048    0.0013159944   -0.1260989359
 C    0.5292129221    0.4871400765   -1.5404395538
 C    1.6770782617    0.4398765608   -2.2153200794
 C    3.0405257610   -0.0070417682   -1.7199158443
 C    3.1165035572   -1.2587181718   -0.8715914881
 C    2.9059734652   -1.2977788563    0.4498410960
 C    2.3961806330   -0.1537117234    1.2125412390
 C    1.2521018941    0.4723682931    0.9103718786
 H   -1.2953389254    1.4753425482    0.3282790182
 H   -1.9136496855   -0.0155082235   -0.3980557600
 H   -1.4048111215   -0.0021228575    1.2989214302
 H    0.3129951636   -1.0946540361   -0.1514301568
 H   -0.3376555465    0.8914653902   -2.0610911176
 H    1.6665690680    0.8087786867   -3.2388902515
 H    3.6879364275   -0.1455722165   -2.5919928129
 H    3.4755045378    0.8239961013   -1.1475966515
 H    3.4401598332   -2.1652313030   -1.3780115843
 H    3.1275315226   -2.2136736317    0.9963504584
 H    2.9764544782    0.1853858810    2.0697667344
 H    0.9607612579    1.3485154554    1.4877124709