16

 C    0.0147564454    1.5601819384    0.0230652619
 C    0.0036664993    0.0206621458    0.0636078844
 C    0.7591881281   -0.5401857514    1.2792326999
 O    2.1136932598   -0.1259962120    1.1459073799
 C    2.9369645038   -0.4219135760    2.1756817167
 N    4.1546879769   -0.1048545649    2.1115345080
 C   -1.3648334063   -0.5038885975    0.0683891724
 N   -2.4448560233   -0.9141782268    0.0891564686
 H    1.0475814135    1.9123301062    0.0266739668
 H   -0.4835490641    1.9257819373   -0.8773091718
 H   -0.5027892978    1.9736589260    0.8934816606
 H    0.5033293685   -0.3638346683   -0.8339201230
 H    0.3216069360   -0.1496299699    2.2074251730
 H    0.6915977464   -1.6347616164    1.2960459971
 H    2.4333192136   -0.9335907463    3.0071593532
 H    4.6364004002   -0.3910464440    2.9611718025