14

 C   -0.1446532634   -1.1914624468   -0.0261703769
 C   -0.0536597011    0.0057371108    0.0175725151
 C    0.0282110594    1.4365115866    0.0266400393
 N    0.5434660059    2.0967496487    1.2318779941
 C    1.3716127938    2.1685767543   -0.0000729447
 C    2.6042226993    1.4230034503    0.0199991659
 C    3.6353852808    0.8083925816    0.0064316623
 C    1.4014844687    3.4153677112   -0.7247436980
 C    1.4114445404    4.4666207136   -1.3077350245
 H   -0.2139950935   -2.2508063223   -0.0548204490
 H   -0.7546128820    1.9468072553   -0.5298254291
 H    0.0735992886    2.9909689498    1.3595025649
 H    4.5463150848    0.2625162467    0.0052620818
 H    1.4306945983    5.3910379103   -1.8305133211