20

 C    1.2695855325   -0.2870770516   -0.5869823668
 C    0.2104930216   -1.2033454913   -1.0893779183
 N   -0.0981250037   -0.2030436712   -0.0735681381
 C   -0.3408346813   -0.6100639235    1.2854022327
 C    0.3163336695   -1.8655381448    1.9562829849
 C   -1.0961632167   -2.3443702423    2.4192586398
 C   -1.7341244171   -1.0801672868    1.8027350087
 O   -1.8031721880    0.0160424882    2.7349866353
 C   -0.5445769533    0.5588344650    2.2709069704
 H    2.0320291795   -0.7213990829    0.0567812576
 H    1.6016173294    0.5578552615   -1.1831199757
 H   -0.2520295222   -1.0305490325   -2.0569293521
 H    0.2759097000   -2.2502099382   -0.8015675842
 H    0.7968658728   -2.5544452212    1.2581292150
 H    1.0321138518   -1.6375266254    2.7501515140
 H   -1.4140942598   -3.2719679199    1.9350493215
 H   -1.2507144522   -2.4327507972    3.4961634394
 H   -2.6358818663   -1.1731135476    1.1921927972
 H    0.1890634563    0.6629018808    3.0802488842
 H   -0.6826100930    1.5220393209    1.7663353446