20

 C    0.2182000412    1.6337731306    0.1478025441
 C    0.1082842966    0.1325957694    0.1383823692
 O   -1.2509968497   -0.3313024699   -0.0603886157
 C   -1.1482726668   -1.2519006342    1.0522991861
 C    0.3068812530   -0.8451072943    1.3426309929
 C    1.3813506413   -1.6289496276    0.5419916170
 C    1.1221893110   -0.7108529121   -0.6625855098
 C    1.0511003366   -1.0101450563   -2.1054368865
 N    2.1764969444   -0.2277246810   -1.5516514758
 H    1.2391153977    1.9520131253    0.3822890395
 H   -0.0538217515    2.0439578193   -0.8325624796
 H   -0.4624382350    2.0643404369    0.8875072787
 H   -1.8688594803   -0.9996367755    1.8398154552
 H   -1.3043398713   -2.2946526237    0.7470591719
 H    0.5514850023   -0.5218830580    2.3535738271
 H    2.3911251071   -1.5026225296    0.9413537580
 H    1.1897257415   -2.6964916453    0.3986466642
 H    1.3207736451   -1.9983835335   -2.4688383352
 H    0.2890250596   -0.5016831612   -2.6908894821
 H    2.0421840369    0.7612690407   -1.7528288793