19

 C    0.1553323327    1.8734041863   -0.2476019772
 C    0.0603072393    0.3636196223   -0.0261034033
 C    0.8080941792   -0.4083010513   -1.1197123104
 N    0.5871027125   -1.8385977914   -1.0006717880
 C    1.2017076294   -2.7103339959   -1.8334549039
 O    1.9521673862   -2.3902950830   -2.7350589525
 N    0.5492999212    0.0419798237    1.3205257236
 C    0.1042471669   -1.0030862356    2.0539168320
 O   -0.6712264223   -1.8570203176    1.6576062991
 H    1.1986791640    2.2100886729   -0.2296265815
 H   -0.2628568759    2.1442144705   -1.2199518856
 H   -0.3963769910    2.4149604186    0.5255960887
 H   -0.9913733171    0.0559778606   -0.0470224299
 H    0.4664582845   -0.0579181285   -2.1019695914
 H    1.8828670882   -0.1896945018   -1.0690393953
 H   -0.0051194283   -2.1701843374   -0.2477273674
 H    0.9423722970   -3.7626037094   -1.6029767907
 H    1.2077440920    0.6738048632    1.7499046077
 H    0.5200734317   -1.0083017161    3.0785598959