25

 C   -0.1556222881    1.7289125832    0.2274172540
 C   -0.0959727240    0.1978638083    0.2946196946
 C   -1.4398657816   -0.4644084555    0.0037363796
 C   -1.9535800563   -0.6291310852   -1.4567143494
 C   -1.0480669324   -0.3083875423   -2.6340573476
 O   -2.1086832904   -2.0557320072   -1.2786192097
 C   -1.5885221773   -2.0168998227    0.0816123337
 C   -0.3110271526   -2.8448096728    0.1801614145
 C   -2.6417669548   -2.5058133829    1.0699720855
 H    0.8175201715    2.1729958602    0.4585949386
 H   -0.4505652326    2.0776441187   -0.7675525865
 H   -0.8828755281    2.1262587498    0.9442728877
 H    0.6753030841   -0.1683792462   -0.3911974992
 H    0.2293432163   -0.1019732110    1.2994243492
 H   -2.1996101624    0.0188829955    0.6273026720
 H   -2.9324671598   -0.1574583871   -1.6214553124
 H   -0.0466219823   -0.7285036869   -2.5061347068
 H   -1.4769990106   -0.7405191725   -3.5439045272
 H   -0.9587056864    0.7728604271   -2.7838224406
 H    0.4406742309   -2.5128701555   -0.5394612004
 H    0.1218029093   -2.7923687524    1.1849027641
 H   -0.5407854952   -3.8933097705   -0.0356507217
 H   -2.8618595208   -3.5655096961    0.9034458004
 H   -2.2931351376   -2.3875603991    2.1022250898
 H   -3.5719702587   -1.9426384169    0.9522768976