21

 C   -1.0044750297    0.7692907303    0.6928217423
 C    0.0479566024   -0.2692491628    0.3127776006
 O   -0.4527499615   -1.5970334880    0.2339125041
 C   -1.2357761907   -1.8993768922   -0.9035693504
 C   -2.7340318921   -2.1340712433   -0.5814507564
 O   -3.4282208599   -2.2367745637   -1.7948010350
 C   -2.9478153853   -3.4112536335    0.2412488565
 C   -2.4759650976   -3.4464589108    1.6702786740
 O   -3.5026782243   -4.3495094901   -0.2953162923
 H   -0.5364729782    1.7532806930    0.8026144978
 H   -1.7823330988    0.8552415703   -0.0722868287
 H   -1.4801860167    0.5069305994    1.6426377722
 H    0.5265932316    0.0048546999   -0.6394910322
 H    0.8330437765   -0.3044011137    1.0748908708
 H   -1.1952406394   -1.0956477119   -1.6485695713
 H   -0.8343645888   -2.8056475492   -1.3754999007
 H   -3.1011663600   -1.2769046996    0.0033203202
 H   -3.7594584634   -3.1512761893   -1.8122797653
 H   -3.0881011017   -2.7589929063    2.2668086870
 H   -2.5737971475   -4.4557797513    2.0719017874
 H   -1.4459032650   -3.0866525170    1.7364824792