16

 C    0.0235781602    1.4788807386   -0.0663035863
 C    0.0460951313   -0.0153644006   -0.0633324853
 N    0.6855854673   -0.8715007130   -1.1152604761
 C    0.1127436975   -1.8803425381   -0.1745876360
 C    0.4593625657   -1.0145061290    1.0641341982
 O   -0.8647576579   -1.0931950732    1.6625806397
 C   -1.1502933198   -1.0266224255    0.2302029398
 C   -2.4865769378   -1.0419201618   -0.2645923953
 C   -3.5959469938   -1.0395408259   -0.7304756115
 H    1.0403732174    1.8782680439   -0.1304349737
 H   -0.5514488430    1.8626525483   -0.9155255249
 H   -0.4416777952    1.8420330385    0.8552076727
 H    0.1384607828   -0.8412573703   -1.9795106610
 H    0.1861096292   -2.9589317074   -0.3108507506
 H    1.3339397556   -1.0260885695    1.7105772523
 H   -4.5798675295   -1.0416470250   -1.1310312021