25

 C   -0.0296140831    1.5709033586   -0.0117988923
 C    0.0259407318    0.0405882448   -0.0140290866
 C    0.6813933914   -0.5064774668   -1.2931310698
 C    0.7624678269   -2.0402480140   -1.2896907509
 C    1.4818287320   -2.5783868696   -0.0439277280
 O    2.8842737320   -2.3110476472   -0.0884530000
 C    0.8251204419   -2.0443333468    1.2487460922
 C    1.5321606629   -2.5692117498    2.5013552374
 C    0.7517629430   -0.5065496472    1.2269836473
 H    0.9789029300    2.0012445343   -0.0355044496
 H   -0.5723170205    1.9513196542   -0.8838341672
 H   -0.5294530863    1.9500906472    0.8859678934
 H   -1.0074956527   -0.3377695526    0.0143750997
 H    0.1316978108   -0.1630597207   -2.1770643408
 H    1.6906635102   -0.0769583753   -1.3899429543
 H   -0.2532052816   -2.4563722798   -1.3154489110
 H    1.2804928585   -2.4019338458   -2.1841477437
 H    1.4225417508   -3.6730249911   -0.0402095541
 H    3.0078702734   -1.3594665794   -0.1606796610
 H   -0.2079188078   -2.4230117679    1.2488094833
 H    2.5833441424   -2.2675293092    2.5041790221
 H    1.0589334912   -2.1866943215    3.4117234508
 H    1.5039410105   -3.6634773011    2.5413462860
 H    1.7703172149   -0.0883269454    1.2636706967
 H    0.2560713274   -0.1503306177    2.1382920805