20

 C    0.0993207152    1.5929986585    0.2092262137
 C    0.0985122632    0.1379212971    0.1790183288
 C    0.1015993328   -1.0671675085    0.1569423693
 C    0.1591246084   -2.5052986535    0.0909673571
 C    1.3319000498   -3.0932594158   -0.6884313090
 O    1.1465561162   -2.9569053894   -2.0810291825
 C   -0.4650144478   -3.3134299306    1.1918417715
 N   -1.0766924167   -3.2957939626   -0.1280676267
 C   -2.3463979895   -2.5895235573   -0.2561105402
 H    1.0961393374    1.9889344506   -0.0140138859
 H   -0.5933694553    2.0076238785   -0.5315378605
 H   -0.1966955099    1.9747101612    1.1927042892
 H    2.2568906394   -2.5655276059   -0.4388260357
 H    1.4476245651   -4.1489341411   -0.3995845618
 H    0.3008893755   -3.3802393438   -2.2726815726
 H   -0.0077529091   -4.2508862125    1.4994959831
 H   -0.9553566611   -2.7563265518    1.9879487770
 H   -2.4251996217   -1.7016385941    0.3868592209
 H   -2.4792953626   -2.2708157421   -1.2943285694
 H   -3.1545784493   -3.2825877967   -0.0026621662