17

 C   -0.1015359075    1.5225173522   -0.2110177622
 C   -0.0330046760    0.0419191883    0.0482494037
 O    1.2394041231   -0.5955302229   -0.0740088737
 C    0.6359780148   -0.5692702653    1.2210969523
 C    1.3069013163    0.1767483795    2.3099252693
 N    2.1299179908    1.2043858947    2.0918572151
 N    2.5067518437    1.5987032380    3.3213237994
 C    1.9613843481    0.8568108688    4.3141720698
 C    1.1703433679   -0.0855013910    3.6957991668
 H    0.7075158248    2.0452353051    0.3010523471
 H   -0.0247960812    1.7179593752   -1.2860006026
 H   -1.0627089479    1.9203555667    0.1332404219
 H   -0.8501914572   -0.5405889176   -0.3856282291
 H    0.2523627899   -1.5368091982    1.5507116389
 H    3.1586839452    2.3599661865    3.4062884983
 H    2.1786604111    1.0486926207    5.3529077013
 H    0.5801156441   -0.8539908708    4.1681848237