13

 N    0.0506769798   -1.1466973454    0.0066813250
 C    0.0345910534    0.0088071367    0.0324390421
 C    0.0352380640    1.4457508852    0.0637909061
 C    0.5295888572    2.2283807778    1.2547994397
 O    1.5191009547    1.5355282563    1.9746671511
 C    2.4142988748    1.5541780212    0.8264676438
 C    1.3465879937    2.2447442970   -0.0320644345
 C    1.5616759147    3.2453786209   -1.0191193394
 N    1.7402889369    4.0613149824   -1.8199459797
 H   -0.7828764151    1.9217046043   -0.4686185844
 H   -0.0546043415    2.9918363289    1.7545535314
 H    3.2736180619    2.1989284983    1.0242394814
 H    2.7299192854    0.5532127163    0.5220120574