21

 C    0.0050202357    1.4780810819   -0.0303030349
 C    0.0497013376   -0.0211360683   -0.0990822887
 C    0.6167561813   -0.9618277134   -1.1882156691
 C    0.0808242724   -1.9588054843   -0.1339485852
 C    0.0843150971   -3.4601862239   -0.1191675422
 C    0.4642836495   -1.0043724958    1.0397433921
 O   -0.8522679479   -1.0367640213    1.6650313894
 C   -1.1256319561   -1.0152097089    0.2231163182
 C   -2.5455965344   -1.0296081549   -0.2443371083
 H    1.0113263745    1.9097806175   -0.0642755187
 H   -0.5651879595    1.8994439193   -0.8657387629
 H   -0.4707984016    1.7964389259    0.9033872602
 H    0.1096819842   -0.9525086590   -2.1588649276
 H    1.7020845688   -0.9417941536   -1.3324493958
 H    1.1039434438   -3.8578697461   -0.1679210255
 H   -0.3806291403   -3.8270281131    0.8021287889
 H   -0.4724398814   -3.8693052984   -0.9696274099
 H    1.3469005537   -1.0017320279    1.6808226967
 H   -3.0871607205   -0.1582638352    0.1375086052
 H   -2.5875694411   -1.0099305225   -1.3382581359
 H   -3.0583972158   -1.9316516780    0.1045079339