14

 C    0.0321972061    1.3605581495   -0.1584940492
 C    1.4823849259    1.8835577533    0.1450192968
 C    2.1391608670    0.6114277230    0.6059405901
 C    1.1662776741   -0.3437401561    0.6914364844
 N    1.7038966979   -1.4871632002    1.1418150452
 N    3.0494832101   -1.3256932269    1.3686512512
 C    3.3008915842   -0.0552771230    1.0463992610
 O   -0.0917417341   -0.0113564316    0.3544861858
 H   -0.7502866606    1.9509857115    0.3214705987
 H   -0.1633762986    1.3167253855   -1.2336942105
 H    1.9249860093    2.3242215434   -0.7539843557
 H    1.4692048035    2.6644699212    0.9145461743
 H    1.2745593424   -2.3796385613    1.3101694934
 H    4.3112971828    0.3143963717    1.1456292045