17

 O   -0.0519579848    1.4337248603   -0.0854885238
 C    0.0254707308    0.0139295075    0.0056518171
 C    0.6650699859   -0.4745227958    1.3146143700
 C   -0.1376208050   -1.2711076123    2.0339202814
 C   -1.4559981347   -1.4390398082    1.3611236844
 C   -2.3409074331   -0.2129171641    1.1574738931
 C   -1.3558060886   -0.5973455317    0.1086356834
 O   -1.8291732563   -1.6427739529   -0.7528626398
 C   -1.8835666974   -2.5497569840    0.3879296596
 H    0.8458891203    1.7788119085   -0.1255935585
 H    0.5422931872   -0.3996929542   -0.8735869669
 H    1.6557129187   -0.1463746365    1.6194417764
 H    0.1219245964   -1.7047449402    2.9946157534
 H   -3.3968357283   -0.3494083374    0.9449174688
 H   -2.0877840847    0.6508001408    1.7598848360
 H   -1.1418442591   -3.3492713948    0.2870616397
 H   -2.8820240073   -2.9819288749    0.5189764657