18

 C   -0.0530865786    1.4513735260   -0.0051138761
 N   -0.0037795291   -0.0057517998   -0.0041401818
 C    0.0043721337   -0.6700169724    1.2038668860
 O   -0.0267503529   -0.1314179600    2.2871644808
 C    0.0335576608   -0.6765800480   -1.2216710269
 C    0.0305245695   -0.1457895596   -2.4479045951
 C    0.0796529048   -1.2421427472   -3.4687814321
 O    0.1115659524   -2.4574901093   -2.7194392043
 C    0.0856092697   -2.1867476058   -1.3299079643
 H    0.8300937974    1.8601570667   -0.5063744962
 H   -0.9489492348    1.7998407581   -0.5288994632
 H   -0.0773807075    1.7821639536    1.0316225326
 H    0.0428604189   -1.7647760735    1.0842910637
 H   -0.0015633656    0.9023061094   -2.7062357165
 H   -0.7983588381   -1.2444364659   -4.1339951471
 H    0.9715020217   -1.1849189752   -4.1127849626
 H    0.9813336391   -2.6086448455   -0.8469283681
 H   -0.7912273314   -2.6681492115   -0.8683779588