18

 C    0.0167971173    1.4880526970   -0.0832477056
 N   -0.0261531953    0.0559532500    0.1080144897
 C   -1.2772778105   -0.5498907602    0.5953848602
 C   -0.4199895167   -1.5665645898    1.4122024918
 C    0.7282595232   -0.5250356818    1.2319358259
 C   -0.8378157256   -1.9301505325    2.7427349115
 C   -1.1890777813   -2.2353560566    3.8611895692
 C   -1.5839299427   -2.5727366561    5.1181993010
 C   -1.9345649406   -2.8728892482    6.2344298873
 H    1.0302587529    1.7942453467   -0.3633205475
 H   -0.6562616153    1.7733221642   -0.8986695949
 H   -0.2769561806    2.0560891323    0.8199672885
 H   -1.8536158479    0.1090974995    1.2644732989
 H   -1.9388708044   -0.9511529019   -0.1783280127
 H   -0.2188549122   -2.4594789570    0.8134013418
 H    1.7237500978   -0.9057739303    0.9841726240
 H    0.7983423090    0.1419490077    2.1061976092
 H   -2.2427337771   -3.1366152728    7.2154669420