9

 O    0.1121525315    1.2964737634    0.1232719691
 C    0.0718240836   -0.0248767421    0.0321267242
 N    0.0958507279   -0.5866700358   -1.1730258151
 C    0.0499596374   -1.9112804833   -1.1171975883
 N   -0.0136212273   -2.6436630334   -0.0022625174
 N   -0.0330927109   -1.9945957986    1.1536441347
 N    0.0085788550   -0.6826158261    1.2019409532
 H    0.1556251540    1.6459382320   -0.7792808226
 H    0.0652202889   -2.4600322563   -2.0550750579