19

 O    0.2458649311    1.3681016874    0.1087251667
 C    0.0674468841    0.0112514646   -0.2483868813
 C   -1.3951427549   -0.4135148109   -0.2507609301
 C   -2.1882528607   -0.0128809568   -1.4738250177
 O   -2.0582140779    1.3929486057   -1.7213211374
 C   -2.8718365567    2.2120349558   -1.0125748639
 N   -2.5877263642    3.4380206139   -0.9362279394
 C   -1.8040832347   -1.6179874556    0.5174791474
 N   -2.1461629255   -0.2741746966    1.0084377446
 H   -0.2078999950    1.9114707942   -0.5479164865
 H    0.5173921474   -0.2161338467   -1.2282055125
 H    0.6154577647   -0.5688552326    0.5024299590
 H   -1.8022856625   -0.5005253577   -2.3735858296
 H   -3.2435864628   -0.2830213619   -1.3479480241
 H   -3.7336218085    1.6983178461   -0.5710713076
 H   -3.3049677321    3.9329428348   -0.4105415578
 H   -2.6512485861   -2.2163211020    0.1915246977
 H   -1.0244088215   -2.1825023156    1.0221652665
 H   -1.5105852443    0.0192442641    1.7470856660