15

 O    0.8046859759    1.1834772043    0.1549853361
 C    0.3343467399   -0.0866346498    0.0598658295
 C    0.0207320950   -0.7448478552   -1.1118444476
 N   -0.4318602371   -1.9708942227   -0.7323230652
 N   -0.4229766801   -2.1576413883    0.5944051044
 C    0.0347148733   -1.0092134426    1.0940179067
 C    0.1520170744   -0.8128377255    2.5828806751
 C    1.3000029612    0.0122159243    2.9599149877
 C    2.2355558353    0.7159873258    3.2391170692
 H    1.1997684483    1.2916148303    1.0314875920
 H    0.0879318226   -0.4391001923   -2.1423798282
 H   -0.7440010998   -2.7186149932   -1.3266826790
 H   -0.7605070692   -0.3473574691    2.9815703517
 H    0.2253644497   -1.7968619070    3.0584490271
 H    3.0713300908    1.3115049011    3.5137486304