19

 C    0.0224582254    1.6765527418    0.0362385975
 C    1.4982159599    1.2672854324   -0.0544475558
 C    1.7721815024    0.7573565196    1.3952968513
 C    0.5786156692   -0.2389375749    1.4495195930
 C   -0.6494888602   -0.2807841938    2.3266554989
 C   -1.7252787692   -0.5284066853    1.5653061598
 C   -1.3947665085   -0.6037016015    0.0706327695
 C   -0.0720698095    0.1354362452    0.1007765696
 O    1.0684965983    0.0718929065   -0.8081069795
 H   -0.3210432100    2.2764329879    0.8817363028
 H   -0.3640399029    2.0501347256   -0.9129682521
 H    2.2634563201    1.8492626272   -0.5670709412
 H    2.7366496038    0.2564605298    1.4977625783
 H    1.7283413030    1.5787742453    2.1160075888
 H    0.9811511977   -1.2574765765    1.3668835710
 H   -0.6546792200   -0.2139492116    3.4086442894
 H   -2.7320108934   -0.6834950931    1.9374758806
 H   -1.2693822081   -1.6464998261   -0.2542107762
 H   -2.1538387179   -0.1454776386   -0.5703538655