18

 O    0.2544924159    1.3898624045   -0.0012924599
 C   -0.0052444256    0.0147930948    0.0227533194
 C   -1.3672184496   -0.3537605947    0.6308110201
 O   -0.7582382679   -1.4211253758    1.3965248659
 C    0.5743666294   -0.9025904008    1.1398040028
 C    1.5499100996   -1.8735991562    0.4771998387
 N    1.3804454173   -1.7883067836   -0.9921491684
 C    0.0286245617   -2.1394041301   -1.4418401402
 C    0.3950928811   -0.7103257584   -1.2602320636
 H    1.1018707567    1.5370723335   -0.4353667198
 H   -1.7606478154    0.4389643770    1.2783194005
 H   -2.1504228126   -0.7153613782   -0.0421042925
 H    0.9787686381   -0.3954638984    2.0232659325
 H    2.5782295533   -1.5758535722    0.7115304763
 H    1.4085844885   -2.9015751938    0.8244340415
 H   -0.0230238257   -2.5487346394   -2.4473387302
 H   -0.6495267572   -2.5912201073   -0.7238309697
 H    0.5741460425   -0.0827982509   -2.1304849432