23

 C    0.0353669876    1.5509303964   -0.1013235070
 C    0.0494568946    0.0209221396   -0.0540833437
 C    0.7005582129   -0.5276626334    1.2211312848
 C    0.7365446212   -2.0622873208    1.2840485427
 C    1.5925470819   -2.5403553856    2.4633216902
 O    1.6507474585   -3.9611981472    2.4243524034
 C   -0.6776075321   -2.6440205974    1.4589655106
 C   -1.0244031029   -3.8629727679    0.6349638024
 O   -1.4509393521   -2.1494972502    2.2486999631
 H    1.0517920309    1.9586175921   -0.0602577051
 H   -0.4329930039    1.9173910442   -1.0200633100
 H   -0.5217193126    1.9661619472    0.7455059130
 H   -0.9794769815   -0.3530714802   -0.1254273221
 H    0.5821731940   -0.3687701717   -0.9319320710
 H    1.7254581983   -0.1416195781    1.2982487346
 H    0.1515911839   -0.1623965291    2.0964083332
 H    1.1847226007   -2.4677277231    0.3685314152
 H    2.5988223586   -2.1011897452    2.3845222317
 H    1.1361523473   -2.1840610566    3.3983663134
 H    2.0638144673   -4.2712299649    3.2351743862
 H   -0.2930281470   -4.6489292650    0.8505200501
 H   -2.0341381273   -4.2052339283    0.8659772902
 H   -0.9437967486   -3.6324015947   -0.4338822459