20

 C   -0.4858888518    1.4111380949    0.2767144534
 N    0.0860596682    0.0910459193    0.0172419135
 C   -0.9067699778   -0.9138827380   -0.3697953202
 C   -1.5066368262   -1.4489683214    0.9518593174
 C   -0.3024735010   -1.4020918051    1.9354195536
 N    0.2601639654   -2.7482345977    2.1160337339
 C    0.7515202708   -0.5014682006    1.1677364682
 C   -0.6831922940   -0.7912462371    3.2221331827
 N   -0.9616094414   -0.3396089256    4.2510138928
 H    0.3144971512    2.1019459302    0.5566656838
 H   -0.9456499083    1.7889052728   -0.6412810436
 H   -1.2470356013    1.4364666171    1.0757652626
 H   -1.6541863925   -0.4890904952   -1.0436388632
 H   -0.3973250810   -1.7287218658   -0.8975223081
 H   -2.3156369565   -0.8046772715    1.3032474856
 H   -1.8950053694   -2.4663269235    0.8664624840
 H    1.1131686806   -2.6944793530    2.6678218697
 H   -0.3852721743   -3.3231580258    2.6516238734
 H    1.5362173353   -1.1878886909    0.8286550113
 H    1.2023216537    0.2618846569    1.8042826992