25

 C    0.6740835315    1.3156476805   -0.4970823253
 C   -0.0461386318    0.1115070376    0.1177132743
 O   -0.1830024498   -0.9541616206   -0.8213968758
 C    1.0095932446   -1.7228627247   -0.7719627459
 C    1.5491559266   -1.6714462154    0.6889327511
 C    1.3191324729   -3.0126744860    1.4048810467
 C    3.0524395188   -1.3502711986    0.6942862834
 C    0.6434773397   -0.5585541233    1.3296920498
 C    1.3086126952    0.3864574218    2.3301238198
 H    1.7112016365    1.0899496998   -0.7631697082
 H    0.1519929650    1.6222665227   -1.4078736610
 H    0.6814172410    2.1640298886    0.1941857817
 H   -1.0663018701    0.4175032054    0.3768756816
 H    0.7584963888   -2.7379584914   -1.0954978786
 H    1.7591244526   -1.3249591695   -1.4737399840
 H    1.9379100567   -3.8063487031    0.9709196178
 H    1.5717638521   -2.9418231340    2.4692911463
 H    0.2712721571   -3.3212511721    1.3283947379
 H    3.2733499987   -0.3920956120    0.2141569088
 H    3.4565245320   -1.3177398710    1.7110421508
 H    3.6047515733   -2.1239349516    0.1488021435
 H   -0.1557000739   -1.0849485352    1.8642757855
 H    2.1214331266    0.9660373371    1.8848136889
 H    0.5776788731    1.0961701421    2.7328437338
 H    1.7225634127   -0.1677332372    3.1790070272