25

 C   -0.1678456735    1.5623417874    0.1214116669
 C   -0.0261056351    0.0303119281    0.0479806204
 C    0.6582381998   -0.4818094775    1.3286906400
 C   -1.4318359117   -0.5915257077   -0.0519134658
 C    0.7696752408   -0.3875486457   -1.2155959925
 C    2.2275895515    0.0538597629   -1.3037360716
 C    3.3272430541   -0.7770046478   -0.5969668670
 O    4.0670595947   -0.9301041105   -1.8239506576
 C    3.0031672010   -0.3272173851   -2.5868349066
 H    0.7992416545    2.0603092135    0.2425655988
 H   -0.6401449201    1.9601391990   -0.7837463301
 H   -0.7904095879    1.8502782736    0.9754070883
 H    0.0607242813   -0.2304441797    2.2118776086
 H    0.7782887132   -1.5705581250    1.3096237905
 H    1.6481050052   -0.0351128206    1.4675031542
 H   -1.9546971521   -0.2469894906   -0.9511165079
 H   -1.3796325282   -1.6850671720   -0.0941914075
 H   -2.0443434701   -0.3197663972    0.8147175875
 H    0.7325362834   -1.4819949068   -1.3102340942
 H    0.2394598605    0.0070407027   -2.0941614023
 H    2.3270628888    1.1202448815   -1.0864698515
 H    3.9166475327   -0.2723191714    0.1777429031
 H    2.9827779251   -1.7445718627   -0.2062406210
 H    2.4884382484   -1.0618986616   -3.2233253225
 H    3.3611395836    0.4963798032   -3.2159808702