17

 O    0.4932511618    0.7842737988   -0.6540769880
 C    0.1978112894   -0.2811531888    0.1902284151
 C   -0.0406332129   -0.0457898881    1.7123652441
 C   -1.2631872522   -1.0025857694    1.6287028073
 C   -1.2655115305   -0.8337139814    0.0979350179
 O   -2.1727666522    0.1720809430   -0.4368590834
 C   -2.6074604963   -0.6717821133   -1.5318745533
 C   -1.7494003081   -1.8098134572   -0.9620333251
 O   -1.5529952517   -2.9585780110   -1.2184564222
 H   -0.3308657313    1.2839588948   -0.7469248139
 H    0.9293251076   -1.0753471615    0.0123769152
 H    0.7709606299   -0.3068028765    2.3940817573
 H   -0.3456185956    0.9872782265    1.8982894740
 H   -1.0245849610   -2.0334803459    1.9035340298
 H   -2.1851603074   -0.6987728425    2.1267078864
 H   -3.6905184392   -0.8372606908   -1.5293029812
 H   -2.2886755403   -0.2958397467   -2.5112826401