17

 O    0.0585391525    1.3166040208    0.2403644833
 C   -0.0390847249   -0.0692821029    0.0350796714
 C   -1.5039429767   -0.5218499083   -0.1296593840
 C   -1.6518330714   -2.0641347330    0.0213951150
 O   -1.9540343282   -2.2325070482    1.3956230731
 C   -2.7644041336   -1.1305764728    1.7047555639
 O   -2.2103237824   -0.0161044272    1.0284712840
 C   -2.1048582747   -0.0183503469   -1.3609596922
 C   -2.5855070682    0.3593967667   -2.3951845795
 H   -0.5569495235    1.5243402842    0.9544265653
 H    0.5277849787   -0.3067450783   -0.8704388660
 H    0.3840181620   -0.6432400925    0.8753692347
 H   -2.4614493738   -2.4385507145   -0.6183661887
 H   -0.7283878741   -2.6025499245   -0.2021865339
 H   -3.8023496849   -1.2961310550    1.3670990151
 H   -2.7361685962   -0.9539635001    2.7831781689
 H   -3.0086589207    0.7109538327   -3.3038773006