19

 C    0.1025243735    1.4871237167   -0.2243266879
 C   -0.0253870469   -0.0162425056    0.0166200253
 O    0.6663389164   -0.4228371161    1.1867258062
 C   -1.4925773957   -0.5096173181    0.0701923713
 C   -2.1876625632   -0.5605095146   -1.3226275619
 O   -2.0017518682   -1.9823952244   -1.4097665028
 C   -1.5839412958   -2.0599167428   -0.0330662475
 C   -2.2158959885    0.1097026021    1.1653310573
 C   -2.7853119963    0.6202796688    2.0948223320
 H    1.1592117120    1.7649114716   -0.2490473490
 H   -0.3541677808    1.7843514404   -1.1737747028
 H   -0.3872378447    2.0502226569    0.5769430062
 H    0.4596857491   -0.5600759833   -0.8025603453
 H    0.2357167114    0.0067611141    1.9364928559
 H   -3.2468576178   -0.2768070029   -1.3031615521
 H   -1.6803600929   -0.0250006596   -2.1334167370
 H   -0.6368260074   -2.5927587956    0.0946896656
 H   -2.3534807341   -2.5067713975    0.6071410074
 H   -3.3102342202    1.0657399797    2.9038411392