19

 O    0.0409664612    1.4287463647    0.0625518548
 C    0.0510450187    0.0133330614    0.0356689900
 C    0.7542563553   -0.5814232687    1.2668075753
 C    0.5978820913   -2.0755535933    1.3292695361
 C   -0.3594107131   -2.7385146809    0.6803689133
 C   -1.4067772883   -2.0763685623   -0.1719564164
 O   -2.7228601856   -2.5387704458    0.1747211993
 C   -1.3704918121   -0.5335910188   -0.0898192378
 O   -2.0737619193   -0.0724636900    1.0589451989
 H   -0.6535238255    1.6756661586    0.6861442428
 H    0.6101281139   -0.2708281341   -0.8639322125
 H    1.8126877466   -0.3006474547    1.2529922711
 H    0.3266051679   -0.1276445033    2.1705643073
 H    1.3129173286   -2.6276130755    1.9348801986
 H   -0.4275283604   -3.8222472373    0.7467723659
 H   -1.2727123727   -2.3717091851   -1.2208971125
 H   -2.7090867961   -2.7194047048    1.1212018645
 H   -1.8313877080   -0.1155269606   -0.9967906906
 H   -2.9568145024   -0.4551583194    0.9961052617