21

 O   -0.7298788887    0.9773477905    0.7483865348
 C   -0.0111488931    1.0664890618   -0.2134684548
 C    1.3395568578    1.7443918728   -0.2311377519
 C    1.3721932359    2.8988930049   -1.2354716588
 C    0.5956483690    4.2048923528   -0.8857853041
 C    1.8119155553    5.0399463872   -1.3798277983
 C    2.6498140784    3.7542129329   -1.3554987008
 C    3.9221831734    3.5617991043   -0.5804537225
 C    3.9188098349    3.4485684790   -2.0890177278
 H   -0.3217177801    0.6444432595   -1.1993501107
 H    1.5754541954    2.0881902274    0.7800162284
 H    2.0842492540    0.9885731238   -0.5236747488
 H    1.0740371900    2.5286187048   -2.2249486609
 H   -0.3585976385    4.3648929749   -1.3919988441
 H    0.4376756089    4.3020253985    0.1918441880
 H    1.6693744909    5.4310598955   -2.3923273976
 H    2.1427386079    5.8581953490   -0.7347468705
 H    4.3807312478    4.4373889628   -0.1314631141
 H    4.0489596496    2.6509585387   -0.0035836754
 H    4.0369950582    2.4601239671   -2.5236259398
 H    4.3793471732    4.2440592618   -2.6666863204