13

 N    0.1716855770    1.4100165866    0.0866119644
 C   -0.0127696508    0.0090031408    0.0032520124
 C   -1.1032389615   -0.8179725441   -0.1049369873
 C   -0.6352602220   -2.1708911741   -0.1466153730
 C    0.7351941424   -2.1096950370   -0.0611094722
 O    1.7133817404   -3.0542075933   -0.0510598598
 N    1.1125784698   -0.8046068919    0.0288979180
 H   -0.1947005782    1.8877229030   -0.7299741624
 H   -0.2924990811    1.8037208819    0.8982677358
 H   -2.1330141612   -0.4965674005   -0.1502324590
 H   -1.2303839480   -3.0675259772   -0.2286333278
 H    1.2944994283   -3.9171488611   -0.1207456226
 H    2.0570631049   -0.4674926929    0.1030382035