18

 C   -0.0215744178    1.4276424889    0.0517578958
 N   -0.1271769650   -0.0235210065    0.0969226286
 C    0.6009192045   -0.7084436119    1.0451840833
 N    1.2046325946   -0.0775799373    2.0324916277
 O    1.7662314758   -1.1198850493    2.8204837592
 C    1.4798871157   -2.2944189389    2.2479211978
 N    2.0162352186   -3.4068148541    2.8623241753
 C    0.7388513049   -2.1322408408    1.1128576246
 C    0.1804276480   -3.1558373344    0.1774757748
 H    0.9998762118    1.7803902593   -0.1482130397
 H   -0.6920985332    1.8067493235   -0.7229698772
 H   -0.3294032834    1.8391537071    1.0158862262
 H   -0.1352607161   -0.4731266336   -0.8061496837
 H    2.1924085650   -3.2695890769    3.8485953718
 H    1.5076118856   -4.2612625359    2.6854934666
 H   -0.8613777181   -2.9311266451   -0.0800835137
 H    0.7417751017   -3.2262240078   -0.7639548402
 H    0.1900174774   -4.1559738062    0.6238904028