15

 N    0.0362614288    1.2237131193   -0.1631187506
 C    0.0161469608   -0.0079185774    0.0452997874
 O    1.0204919720   -0.8832754798    0.4466297948
 C    0.1109289955   -2.0234177277    0.4645908341
 C   -1.0059932956   -1.1041912857   -0.0306252636
 N   -2.3999264341   -1.0208856982    0.3463191879
 C   -2.0632872498   -1.3853086932   -1.0509579714
 C   -2.4064523212   -0.4609862386   -2.0929809697
 C   -2.6909666528    0.2785138340   -2.9956203916
 H    0.9627069869    1.6198265252    0.0019939412
 H    0.4444026640   -2.8108466003   -0.2162279920
 H   -0.0098430619   -2.4154103565    1.4793444494
 H   -2.6807996706   -1.8499321953    0.8663331752
 H   -2.1583353115   -2.4356764030   -1.3237967956
 H   -2.9339894405    0.9540050771   -3.7782344657