20

 C   -0.2957317140    1.3222474196   -0.0973513203
 O    0.1546233846   -0.0109083240    0.0809887645
 C    0.7875859178   -0.5244365369   -1.0277696174
 C    0.0328032417   -1.0716299379   -2.2061584450
 C    0.9184806033   -1.9979017101   -1.3843960123
 C    2.3658632285   -1.7588964474   -1.7553814963
 C    3.4996562270   -2.6807449884   -1.5583795843
 N    3.0815538906   -2.2753477233   -2.9206992145
 C    2.2641096844   -0.2634380128   -1.3838755923
 H    0.5394587634    2.0111053370   -0.2868559910
 H   -1.0068311957    1.3968399037   -0.9317801551
 H   -0.7941961623    1.6165028604    0.8287566513
 H   -1.0291683406   -1.2068024151   -2.0265925539
 H    0.2977233713   -0.8144652993   -3.2288729561
 H    0.5194738774   -2.8669144360   -0.8746568592
 H    4.4684570658   -2.2987583451   -1.2462516592
 H    3.2851099639   -3.6936973659   -1.2251134052
 H    2.5443669057   -3.0233448635   -3.3543353640
 H    2.4695867141    0.4531800815   -2.1841911528
 H    2.8586056531   -0.0152793965   -0.5006065269