17

 C    0.1726171655    1.3921576048   -0.4119667315
 C    1.2550556751    2.1496087532    0.3847830787
 N    2.2934946061    1.3188906440    0.9984048443
 C    2.1440011693    0.0691337862    0.8733768628
 N    2.9091033495   -0.9064889754    1.5165415786
 C    2.1031504587   -2.0598594488    1.6231419343
 C    0.9734069623   -1.9724889954    0.9091108195
 C    1.0083595814   -0.6653943780    0.1631802467
 O   -0.1537708531    0.1374304839    0.1802045305
 H   -0.7532584741    1.9724867115   -0.4444443005
 H    0.5077650756    1.2277377034   -1.4496861451
 H    1.7284219785    2.8912300672   -0.2707778294
 H    0.7896741217    2.7180951538    1.2006218578
 H    3.4983692563   -0.6152406701    2.2839141555
 H    2.4696375862   -2.8950220562    2.2044097877
 H    0.2512451341   -2.7579052831    0.7483530735
 H    1.2965532570   -0.8536851710   -0.8905593934