19

 C   -0.0469476271    1.4203661574    0.1989920676
 C   -0.0312471005   -0.0259698206    0.0368620579
 C   -0.0123597629   -1.2232393810   -0.0903268315
 C    0.0047389627   -2.6809111636   -0.2596572653
 O    0.7611642225   -3.3291993829    0.7752897326
 C   -0.0907600741   -4.1640709749    1.5496570207
 C   -1.4330900183   -4.1411156529    0.8627145331
 C   -2.5889953450   -4.9531576683    1.3487461762
 C   -1.3707423392   -3.3036717700   -0.1671867023
 H    0.5001365561    1.7196071072    1.0998877307
 H    0.4207487799    1.9239522716   -0.6542345415
 H   -1.0698778621    1.8018674567    0.2916700955
 H    0.4892403920   -2.9132543756   -1.2213687575
 H    0.3388266669   -5.1768163210    1.5954225016
 H   -0.1587457616   -3.7952731461    2.5870544979
 H   -2.8455689366   -4.6939076705    2.3836181360
 H   -3.4763817187   -4.7990117230    0.7300488258
 H   -2.3509554213   -6.0241364507    1.3443668681
 H   -2.1686598928   -3.0469977819   -0.8517074754