16

 C   -0.0973526215   -1.2141260814    0.0915417105
 C   -0.0745799485   -0.0112775798    0.0636279499
 C   -0.0098794923    1.4173253689    0.0233636859
 C    0.5453141872    2.2146236905    1.2120787824
 C    1.3389872606    2.1131242829   -0.0382010013
 C    2.6845628785    1.4075615882   -0.2240200194
 N    3.3736860513    2.2100097821   -1.2501840964
 C    2.5965694383    3.1733703136   -1.5126484539
 O    1.4008702421    3.2728001450   -0.8710298591
 H   -0.1335842626   -2.2750071941    0.1186675120
 H   -0.7977681115    1.9160803750   -0.5333322655
 H    0.0599194729    3.1593249482    1.4286485989
 H    0.8861276981    1.6539351518    2.0756480371
 H    3.2819336267    1.3900761159    0.6946327536
 H    2.5636518681    0.3727985977   -0.5601443637
 H    2.7871451525    3.9697098456   -2.2227228010