17

 C   -0.0596380232    1.5056862966    0.0887429115
 C    0.0272775508   -0.0120522020   -0.0418539031
 C    0.7482369007   -0.4629567845   -1.3008812717
 O    1.2044038002    0.3219031422   -2.1121090487
 C    0.8796744376   -1.9188819276   -1.5115172406
 C    1.4948830564   -2.5283730860   -2.5827025176
 N    1.3748323310   -3.8702325196   -2.3533244708
 C    0.7014344373   -4.0264578581   -1.1697513742
 N    0.3895788127   -2.8729432799   -0.6386377215
 H    0.9366869751    1.9551998825    0.1094550454
 H   -0.5916028180    1.9425603697   -0.7605625803
 H   -0.5846303905    1.7844542834    1.0068638458
 H    0.5383423466   -0.4662120582    0.8167523597
 H   -0.9661397121   -0.4786873601   -0.0401938904
 H    1.9857139099   -2.1209118800   -3.4495623562
 H    1.7190367022   -4.6070414101   -2.9470094416
 H    0.4764399231   -5.0005544785   -0.7615359458