18

 C   -0.2569591015    1.4725634484   -0.0643718212
 C   -0.0715109097   -0.0130322979    0.1103919319
 O    1.2383057718   -0.5517457722   -0.1067977440
 C    0.6804267371   -0.6503457844    1.2064675602
 C    1.3699576927    0.1114121944    2.2890243767
 C    0.8933429237    0.0087978802    3.7085913285
 C    2.2225985440   -0.6202506029    3.3267974642
 C    2.3366800952   -2.0515391144    3.2981173060
 N    2.4214022428   -3.2053721922    3.2799023390
 H    0.5452089706    2.0457439135    0.4046492047
 H   -0.2726476857    1.7253498862   -1.1294593537
 H   -1.2119277611    1.7894714587    0.3684916209
 H   -0.8642229140   -0.6169785954   -0.3369148556
 H    0.3883094055   -1.6633572852    1.4899663078
 H    1.7856038156    1.0632474937    1.9799557156
 H    0.9236634997    0.8907811417    4.3370932560
 H    0.0762675042   -0.6720754616    3.9194279394
 H    3.1240237790   -0.1130116006    3.6525176635