17

 O   -0.1766792797    0.1687722208   -0.3567251822
 C    0.0960496411    1.1869165964    0.2286218293
 C    1.3831110196    1.9227768374    0.0402000645
 C    2.7495153571    1.2580799770   -0.2381047144
 C    3.1149429132    2.6688886462   -0.7136141449
 C    2.5873827236    3.6759324893    0.4000215673
 C    1.6614098286    4.3212942265   -0.6538599306
 C    1.6448560033    2.8962689852   -1.2172565808
 O    1.6778458434    2.8201040216    1.1167273032
 H   -0.6086292716    1.6686564215    0.9410163316
 H    3.2570328657    0.8181219986    0.6232432318
 H    2.6980829969    0.5544393704   -1.0713759996
 H    4.0004704944    2.9319212887   -1.2887113868
 H    3.2230794016    4.2320986901    1.0860797639
 H    0.7419405773    4.7871453632   -0.2918894706
 H    2.2004855045    4.9919042957   -1.3289896378
 H    1.2672332010    2.5894412815   -2.1898346440