18

 C   -0.0196749452    1.5094273814   -0.2149849451
 C    1.5130365911    1.4122984509    0.1512763572
 C    1.0598637188    0.1130825490    0.8422846564
 C    0.9661299909   -1.4404485367    1.1658836464
 C    1.3439202688   -1.6705313448    2.6063636062
 C    0.8348963503   -0.6162697379    3.2548105854
 C    0.1629519333    0.2080985537    2.1860716108
 C   -0.4960985640   -0.7741949549    1.1792935318
 N   -0.1027302300   -0.0000687480   -0.0671380373
 H   -0.5879417162    2.1099312357    0.5029022699
 H   -0.2683632017    1.8278787773   -1.2289140091
 H    2.1240074454    1.2414060164   -0.7378485130
 H    1.9539360998    2.1912650002    0.7757842804
 H    1.2075552618   -2.1502903492    0.3773585370
 H    1.9275805836   -2.4958852686    2.9890887573
 H    0.9045774162   -0.3639195753    4.3043569028
 H   -0.3363078846    1.1368436947    2.4550496002
 H   -1.4493211285   -1.3040410041    1.2908639226