17

 N    0.2441860994    0.1186628288    1.4359254712
 C   -0.3418520425   -0.4314157971    0.4633150737
 O   -0.0679370586   -1.7170526457    0.1555577956
 C   -0.8658660564   -2.2993081771   -0.8926809959
 C   -2.2590506077   -2.5929234009   -0.4555119519
 C   -3.4746411592   -2.3504579479   -1.0592894267
 C   -4.4882267319   -2.8838340394   -0.2164338753
 C   -3.8617377264   -3.4273391950    0.8813640572
 N   -2.5117832102   -3.2576658296    0.7213952028
 H   -0.0557615448    1.0881096246    1.5169439711
 H   -1.0809658711    0.0318603012   -0.2034483923
 H   -0.8864741648   -1.6478186031   -1.7745791711
 H   -0.3128972341   -3.2053990368   -1.1607745857
 H   -3.6146881095   -1.8551724191   -2.0085714103
 H   -5.5524015490   -2.8656594998   -0.3930752114
 H   -4.2604784889   -3.9074768733    1.7605285090
 H   -1.8059790542   -3.4891300501    1.4000803199