17

 C   -0.2066470714    1.5080439313   -0.0223823027
 C    0.0000606672   -0.0038522626    0.0057648335
 C    1.1715155623   -0.5083719221   -0.8870365769
 C    2.0755045499   -0.5999496440    0.3866176589
 C    0.7747553948   -0.5227783021    1.2525705626
 C    2.9459249477   -1.7463310395    0.5402704490
 C    3.6486561892   -2.7151611511    0.6640492344
 H    0.7316088804    2.0466857319    0.1552239631
 H   -0.5958183956    1.8344088352   -0.9929973331
 H   -0.9187099451    1.8226782024    0.7483529997
 H   -0.9549097714   -0.5051068597   -0.1746949965
 H    0.9817118407   -1.4984083580   -1.3071295114
 H    1.5171386280    0.1549854611   -1.6841122540
 H    2.6579243510    0.3199546159    0.5008179952
 H    0.8100125925    0.1293151966    2.1291304610
 H    0.4493339979   -1.5177365793    1.5637540134
 H    4.2746607719   -3.5653873763    0.7743876339