19

 C    0.7246540628    1.3870876288   -0.3376276951
 O    0.9331830809   -0.0071213423   -0.3552750649
 C   -0.1661426595   -0.7122988748   -0.9110399366
 C    0.1122199895   -2.1773151861   -0.9078349410
 C   -0.5555078320   -3.2156882407   -0.2848905264
 C    0.1445848161   -4.3737406809   -0.6692283712
 N    1.1712536862   -4.0846887943   -1.4655953175
 N    1.1368651429   -2.7447279081   -1.6024946327
 C    2.1105706144   -2.0862396006   -2.4506224901
 H    0.5736052916    1.7918548886   -1.3510715301
 H   -0.1499576483    1.6591314965    0.2735178599
 H    1.6162787451    1.8436696999    0.0977156821
 H   -1.0806895185   -0.5259554833   -0.3279246229
 H   -0.3590376885   -0.3470372241   -1.9354503265
 H   -1.4159798709   -3.1334135290    0.3598992289
 H   -0.0462701912   -5.4009836773   -0.3954615627
 H    1.7076049323   -1.9105436182   -3.4548625632
 H    2.3955037689   -1.1346650364   -2.0004899726
 H    2.9785814982   -2.7403968879   -2.5290353172