17

 O   -0.4037150808    0.0684288284   -0.0436109714
 C   -0.0948312331    1.2280106147   -0.0792551297
 N    1.1895246558    1.7468279630   -0.1081295864
 C    2.4086353177    1.0712219370   -0.0986283471
 N    2.5478342111   -0.1907009021   -0.2204114333
 C    3.9761215275   -0.5083699669   -0.0836575154
 C    4.7397838701    0.8162920733    0.0094759347
 C    4.5959175517    1.7587386475   -1.1496051934
 C    3.6621219067    1.8808548685    0.0412712796
 H   -0.8328128504    2.0573429827   -0.0882203635
 H    1.2489607255    2.7533517346   -0.1212935539
 H    4.1193994099   -1.1188729928    0.8167177331
 H    4.2981750599   -1.1203906369   -0.9345386492
 H    5.6183898583    0.8897025258    0.6385661733
 H    5.3486238536    2.5315414866   -1.2615473547
 H    4.1836790638    1.3861891901   -2.0824304815
 H    3.6909764827    2.7611862263    0.6741497488