18

 C    0.1181886086    1.4035015771    0.2162373712
 N    0.0595822386   -0.0484246926    0.2015715373
 C   -1.0323053282   -0.6177957712   -0.1122610167
 C   -1.1321902411   -2.1296281583   -0.0746433331
 O   -2.0607216572   -2.6254295762   -1.0164814699
 C   -3.3542779154   -2.1178021929   -0.7703209316
 C   -3.4029598694   -0.6031467604   -0.8423277798
 N   -4.4799328572   -0.0229063969   -1.1912870625
 N   -2.2124529980    0.0234654088   -0.4833043619
 H    1.0992455109    1.7203056500    0.5771282464
 H   -0.0146753605    1.8358040347   -0.7879668603
 H   -0.6381817847    1.8554681423    0.8779184751
 H   -0.1535116505   -2.5468650468   -0.3109247336
 H   -1.4087370204   -2.4472776215    0.9457678451
 H   -4.0268097030   -2.5219884665   -1.5267470004
 H   -3.7167102635   -2.4365054387    0.2223437450
 H   -4.3976635117    0.9959514202   -1.1570862747
 H   -2.1923556274    1.0306868889   -0.5550629855