11

 O   -0.0965151646   -0.0176675109   -0.0010056945
 C   -0.0101054558    1.1893027008    0.0078155885
 C    1.2362195486    1.9086036318   -0.0007419670
 C    2.2731627133    2.5320628753   -0.0076296326
 C    3.4841127051    3.2383876963   -0.0152266320
 C    4.7769022108    2.7824913812   -0.0335568397
 O    5.6100459011    3.7964545957   -0.0347315456
 N    4.7629912132    5.0035811476   -0.0148534168
 N    3.5799659775    4.6272805867   -0.0049607951
 H   -0.9059902270    1.8410022600    0.0234540097
 H    5.1852931179    1.7843576254   -0.0465156050