18

 O   -0.2539716785    1.6361210604    0.1905362376
 C   -0.2191880610    0.2372180268    0.1299915132
 C    0.2296416083   -0.5942440831    1.3812715798
 C   -1.0633098663   -1.4091156370    1.2809089722
 C   -2.2462065738   -0.5217727151    1.3848704212
 O   -2.1806070809    0.6152644073    2.2301494703
 C   -3.1607683106    1.5323646851    2.0709539421
 N   -3.0103098940    2.6877457239    2.5533395716
 C   -1.5393738858   -0.5536251941    0.0687121455
 H   -0.7040898241    1.8916338855    1.0045933263
 H    0.4040288137   -0.0089433882   -0.7331739231
 H    1.1306922272   -1.1816994686    1.1962166973
 H    0.3547880484   -0.0262797077    2.3060358468
 H   -1.1452480299   -2.4781739136    1.4332532708
 H   -3.2133769808   -1.0192802925    1.4166061352
 H   -4.0325160716    1.1550330222    1.5206539901
 H   -3.8400610110    3.2521711888    2.3832213544
 H   -2.0498490393   -0.8529564700   -0.8398986815