18

 O   -0.1354129049    1.4253965781    0.1808223590
 N    0.0819729040    0.0349059395    0.1544905049
 C   -1.0009005062   -0.5943716638   -0.0197956209
 C   -2.4905631730   -0.2085012069   -0.2532494231
 C   -2.5926277280   -1.6476412063   -0.8238891642
 C   -3.0518014048   -3.1413569572   -0.8367488428
 C   -1.5058654008   -3.1263597153   -1.2314149652
 C   -1.8337683349   -1.9424586722   -2.1592024980
 C   -1.3249184818   -2.0929713526   -0.0641989459
 H    0.7560982179    1.7665674411    0.3108014840
 H   -3.0106204323   -0.0584260697    0.6988774017
 H   -2.6999789520    0.6328033618   -0.9175892576
 H   -3.3037585713   -3.5799444379    0.1320432624
 H   -3.7427853675   -3.4669152580   -1.6201305994
 H   -0.9003165116   -4.0068427656   -1.4615964579
 H   -2.4593119133   -2.1517771522   -3.0305908277
 H   -1.0055556373   -1.2760836180   -2.4104526965
 H   -1.4821624721   -2.4916414849    0.9435190774