25

 C    0.0325546686    1.8380585422    0.7774202269
 C   -0.0138468729    0.3162485254    0.5979113603
 C    0.8202619748   -0.4371549324    1.6056461938
 C    2.3650568931   -0.3560738558    1.8153492174
 C    1.8661864979   -1.3934839221    2.8661186218
 C    2.7000517342   -2.1496998150    3.8670778877
 C    0.7071701448   -0.3925014706    3.1635988491
 C    0.9852654536   -1.9919775518    1.7158121493
 C   -0.1950714539   -2.9110845257    1.9974062450
 H    1.0549648544    2.2175411580    0.6786246858
 H   -0.5850186786    2.3434557256    0.0285841369
 H   -0.3353787873    2.1303595857    1.7665762416
 H   -1.0543412587   -0.0288025316    0.6667688084
 H    0.3279017688    0.0535343420   -0.4124292545
 H    2.9915936528   -0.7413712468    1.0038900138
 H    2.7590804358    0.5844956232    2.2121376648
 H    3.2115753833   -1.4649242709    4.5526979154
 H    2.0814728751   -2.8240166471    4.4701241317
 H    3.4642313358   -2.7550580868    3.3664738248
 H    0.9994954312    0.5464189159    3.6440791629
 H   -0.2028100495   -0.7869494626    3.6204360238
 H    1.5853503835   -2.4133143681    0.8979313282
 H   -0.8459616491   -2.5539221978    2.7995857268
 H   -0.8132576793   -3.0282748278    1.1000346101
 H    0.1560750815   -3.9104706350    2.2791754282