20

 C    0.8064563633    1.2664511153   -0.4662725898
 C    0.0229410866    0.0931058798    0.1251239291
 O   -0.1350911279   -0.9695590668   -0.8161538078
 C    1.0090452149   -1.8037628571   -0.7651692849
 C    1.6311262275   -1.6336201412    0.6615437575
 C    3.0247941409   -1.1997930561    0.6015603035
 N    4.1291264023   -0.8606836209    0.5457894365
 C    0.6707418606   -0.6030480825    1.3421828909
 C    1.2880070775    0.2987303627    2.4072593662
 H    1.8453774262    1.0031312487   -0.6874749872
 H    0.3294608550    1.5861184367   -1.3966231197
 H    0.8157757208    2.1162119239    0.2230161814
 H   -0.9906207725    0.4273112095    0.3714185625
 H    0.6854984719   -2.8323113240   -0.9467393171
 H    1.7400270364   -1.5320562955   -1.5371981295
 H    1.6125397535   -2.5797497684    1.2090498363
 H   -0.1198910598   -1.2029938763    1.8050178452
 H    2.1194219300    0.8880604233    2.0129839932
 H    0.5358177542    0.9888161781    2.8026927711
 H    1.6691617386   -0.2905970492    3.2467809626