17

 C   -0.0887975733    1.5187095433    0.0488183099
 C    0.0393336835    0.0249563332   -0.0214376380
 C   -0.2112330352   -0.8051727154   -1.2731429731
 C   -0.6681374909   -1.9437074192   -0.3025653234
 C    0.5283321027   -2.7991778140    0.0330295474
 C    1.3455841707   -2.0721088353    0.7960496613
 C    0.6780002845   -0.7753980394    1.0926684380
 N   -0.7777650630   -0.9146957316    0.8333664677
 H    0.7540760046    2.0045542720   -0.4567283471
 H   -1.0123432972    1.8592316367   -0.4321998245
 H   -0.1030080525    1.8621898992    1.0875568590
 H   -1.0598967438   -0.3929447384   -1.8247624995
 H    0.6125455426   -1.0095638517   -1.9639362207
 H   -1.6023246791   -2.4559975361   -0.5283715247
 H    0.7274301224   -3.7663055804   -0.4107558267
 H    2.3363639937   -2.3339770715    1.1432691718
 H    0.9321418304   -0.2197793113    1.9909704627