18

 C   -0.1087914795    1.5589615390    0.1209988728
 C    1.3930096094    1.2543189822    0.0625064106
 O    1.1413873514    0.0444464998    0.9313910709
 C    0.1045097844    0.0397239212   -0.1300920770
 C   -0.8787409848   -0.9405065271   -0.7307091712
 N   -1.9133058022   -0.1974884518   -1.4771815515
 C   -0.7297478005   -0.7004381947   -2.2082495981
 C    0.3754911649    0.3665663738   -2.4909646494
 C    1.1778003303    0.3156447579   -1.1734714185
 H   -0.4912152577    1.8084238346    1.1108880903
 H   -0.5557462620    2.1582318726   -0.6707992755
 H    2.2507807107    1.8633040223    0.3485647521
 H   -1.0869831827   -1.9135810175   -0.3011415157
 H   -2.7103460703   -0.8042093802   -1.6578595790
 H   -0.8768127831   -1.5028016936   -2.9247017788
 H    0.9785528558    0.0846185641   -3.3574240706
 H   -0.0884967997    1.3325889843   -2.7034263143
 H    1.9286010756   -0.4788424068   -1.1936718470