19

 C   -0.0488742904    1.3988035033    0.0034020808
 N    0.0025356113   -0.0486772631    0.0028345023
 C   -1.2846958228   -0.7302842683    0.1173132100
 C   -1.1566255491   -2.2214963719    0.0564394719
 C    0.0342622550   -2.8215677681    0.0010638494
 C    0.2492041693   -4.3043557632   -0.0535845269
 N    1.1952320165   -2.0513888353   -0.0044369888
 C    1.2284391880   -0.6635978542   -0.0362893834
 O    2.2924257422   -0.0692930611   -0.0988381819
 H    0.9673829117    1.7810230318   -0.0733309290
 H   -0.6444222430    1.7640245700   -0.8437243350
 H   -0.5112043405    1.7713351142    0.9278749667
 H   -1.7757872006   -0.4172533796    1.0571957858
 H   -1.9457761852   -0.3661532649   -0.6880832409
 H   -2.0658871256   -2.8081870219    0.0670471607
 H    0.7892666254   -4.5907958813   -0.9643900348
 H    0.8472989938   -4.6461607119    0.7999532222
 H   -0.7042936766   -4.8345095354   -0.0388559982
 H    2.1013543906   -2.4815426092   -0.0833868510