17

 C   -0.1991621120    1.2600215391   -0.0237136652
 N    0.0750690793   -0.1670678309    0.1215784017
 C    1.4757323331   -0.5226708010   -0.1431276008
 C    0.9372256718   -0.4934682470    1.2576882464
 C    1.0210632846   -2.0416821049    1.3581367975
 C    1.5897442341   -2.0672568465   -0.0757641237
 O    0.4343273504   -2.8209444887   -0.5405916358
 C   -0.1263228202   -2.8209993138    0.7330238086
 N   -1.1777895450   -3.3514859400    1.1567788686
 H    0.6366621230    1.9109967386    0.2831869633
 H   -0.4329562489    1.4709237793   -1.0713011954
 H   -1.0735509768    1.5130793302    0.5826564690
 H    2.1312758050    0.1651912019   -0.6630830938
 H    1.1057621941    0.2177504574    2.0563504592
 H    1.5363235898   -2.4636465844    2.2173485575
 H    2.5362267778   -2.5229583301   -0.3621527649
 H   -1.6880446101   -3.8170769593    0.4039426880