18

 N   -0.0625519286   -1.1473215427    0.0732947713
 C   -0.0286526444    0.0061140900    0.0120175227
 C    0.0452220553    1.4653249337   -0.0663789059
 C    1.4770028960    1.9681827377   -0.0849627603
 C    2.5845808186    1.6845716641   -1.1183062404
 C    3.2407421929    2.6268959240   -0.0906008151
 C    1.9284740851    3.4621355275    0.1084311646
 C    1.9901275823    3.3260943857    1.6428189726
 C    2.4914333051    1.9662058061    1.1174767162
 H   -0.4833407641    1.7927347375   -0.9699524355
 H   -0.4956113817    1.8895012491    0.7882719972
 H    2.9625628619    0.6586780655   -1.1621246852
 H    2.4296219159    2.0837843104   -2.1263556824
 H    4.2553769665    3.0244367520   -0.0684493746
 H    1.6078086229    4.3078842337   -0.5029011087
 H    2.7247827841    3.9513806860    2.1591185886
 H    1.0395698022    3.3346441914    2.1865109858
 H    2.8176040601    1.0838879182    1.6696626491