18

 O   -0.0086249783    1.5020784561    0.3019995340
 C    0.0798973839    0.1779042539   -0.2415366024
 C   -1.2948669510   -0.5330104961   -0.1666671140
 O   -2.2247119952    0.2243433640    0.5664010935
 C   -1.9896023293   -1.3053794765   -1.2754752090
 C   -1.0989452865   -2.3233546805   -2.0290146110
 N    0.3013189604   -2.2129462507   -1.5275908914
 C   -0.7201089491   -2.9794871474   -0.7627591038
 C   -1.5933376749   -1.9934851348    0.0486075279
 H    0.0422269462    1.4261596715    1.2602434462
 H    0.3918052393    0.2971829766   -1.2770883779
 H    0.8488746258   -0.4043772547    0.2722138503
 H   -1.9432989934    1.1420423099    0.4386521036
 H   -2.9825843155   -1.0186870437   -1.5956901632
 H   -1.3051120820   -2.7406880696   -3.0063357414
 H    0.8560076874   -2.8934631265   -2.0472984574
 H   -0.5687699546   -4.0245115586   -0.5247244884
 H   -2.2473629234   -2.2964873128    0.8563214745