18

 C   -0.0536152504    1.5231010598   -0.0113959393
 C    0.0178616876    0.0066334479    0.0161866789
 C   -1.3372046998   -0.7168312603   -0.0748463896
 O   -1.1586962120   -1.9777360221    0.5492949838
 C   -0.3207548808   -1.7558873507    1.6801236302
 C    0.7182131430   -0.7365432453    1.2109616634
 C    1.6812099104   -1.3055709240    0.1395627770
 O    2.5875078149   -2.0934405267    0.1316921565
 N    1.0623395954   -0.5774316167   -0.8490561985
 H    0.9405990900    1.9591650933    0.1163728023
 H   -0.4565922769    1.8804522431   -0.9662085444
 H   -0.7053455798    1.8980879114    0.7838048154
 H   -2.1049186355   -0.1231670399    0.4496115509
 H   -1.6734100390   -0.8904761993   -1.1011826930
 H   -0.9019007853   -1.3549320515    2.5264623730
 H    0.1129688390   -2.7153845817    1.9712418920
 H    1.1715933697   -0.1358072953    1.9990733659
 H    1.0966067993   -0.6916280321   -1.8531366243