22

 C    0.0820769198    1.5538176202    0.0047264803
 C   -0.0535542548    0.0278741098    0.0064773164
 C   -1.4972301125   -0.4890836030   -0.1352674958
 C   -2.1391414393   -0.0838482314   -1.4706422262
 C   -1.5376366861   -2.0127911712    0.0463516038
 C   -2.9239817124   -2.5939788462    0.3052375781
 C   -3.0372100685   -4.1073463496    0.2272314135
 O   -3.8785366144   -1.8993995464    0.5720704098
 H    1.1194197148    1.8528986746    0.1851061039
 H   -0.2230933120    1.9921422810   -0.9500906136
 H   -0.5352248439    2.0050588402    0.7897113355
 H    0.5631162376   -0.3953225142   -0.7992800961
 H    0.3663695581   -0.3619679887    0.9432111895
 H   -2.1004839783   -0.0545949959    0.6718661826
 H   -1.5623948353   -0.4776748123   -2.3173693311
 H   -3.1598999122   -0.4670435300   -1.5418269650
 H   -2.1888022426    1.0028128504   -1.5806343361
 H   -1.0925843336   -2.5271110649   -0.8172784482
 H   -0.9172593034   -2.3138439537    0.9045353016
 H   -2.2464679058   -4.5923399297    0.8095253498
 H   -4.0166275053   -4.4269130071    0.5852926607
 H   -2.9094145298   -4.4319524319   -0.8123472434