19

 C    0.7288157446    1.5978797614   -0.2282917604
 C   -0.0298807031    0.2702799807   -0.1661280482
 N    0.4404638295   -0.5210870459    0.9725452010
 C   -0.2537788349   -1.2651890406    1.9794304356
 C   -1.3135927958   -2.3187031463    1.4960649169
 C   -1.5107942072   -2.3921291170    0.0071624073
 C   -0.2581538079   -2.9632251102    0.6120295500
 C    0.7904731813   -1.9029178022    1.1048547317
 H    1.8030893323    1.4227124440   -0.3384653650
 H    0.3871244909    2.2014552947   -1.0764058838
 H    0.5752172619    2.1725679340    0.6898729905
 H   -1.1041465394    0.4680645913   -0.0713899800
 H    0.1245729214   -0.2823021070   -1.1004388352
 H   -0.1920492698   -0.9485345853    3.0160262451
 H   -1.9820671265   -2.8091606638    2.1918676527
 H   -2.2283940766   -3.1499731051   -0.2970244622
 H   -1.5151827232   -1.5224079841   -0.6321520297
 H   -0.0090392977   -4.0140305241    0.5392463803
 H    1.8161628904   -2.1749668443    1.3341170934