18

 C   -0.0352249605    1.6048668522   -0.0468841070
 C    0.0368771207    0.0855352660    0.0115482641
 O   -1.2506400625   -0.4848414033   -0.1275283432
 C    1.1047158353   -0.6684652192   -0.8378009150
 N    1.6633920741   -1.3884182443    0.3612860343
 C    2.1675763496   -0.3280232485    1.2374682268
 C    0.7007260926   -0.5672532757    1.2418155475
 C   -0.0051001456   -1.0857636551    2.3646547597
 C   -0.6001771824   -1.4902988059    3.3284909717
 H    0.9408927222    2.0707117797    0.1107891264
 H   -0.3983642441    1.9310080922   -1.0298466267
 H   -0.7285013133    1.9753083636    0.7140074954
 H   -1.6505415127   -0.1224757674   -0.9254030829
 H    0.6411067392   -1.3825692965   -1.5198205683
 H    1.8513056223   -0.0682646928   -1.3698801705
 H    2.7172801368   -0.7039520531    2.0943704547
 H    2.5738982437    0.5815031079    0.7985485177
 H   -1.1338270254   -1.8620065297    4.1677508651