20

 C    0.4642525224    1.5784626588    0.0277006977
 C   -0.2826153963    0.2479560185   -0.1362536624
 C    0.2165617984   -0.5171431726   -1.3375453164
 O    1.4921725211   -1.1830683830   -1.2537926092
 C    0.3365300737   -1.9763251329   -1.4898061010
 C   -0.0194211524   -3.0755124041   -0.4879189047
 C    0.6855061541   -4.3958001197   -0.8787460745
 C    0.3045084604   -2.7554002953    0.9049084106
 N    0.5546550484   -2.5697756156    2.0176675281
 H    1.5322104408    1.4016832475    0.1849652243
 H    0.3540165320    2.2106243549   -0.8603782917
 H    0.0818362036    2.1364874164    0.8868072791
 H   -0.1804262358   -0.3463003107    0.7725606388
 H   -1.3544983959    0.4373979046   -0.2819715525
 H    0.0990170101    0.0310341131   -2.2771268566
 H    0.2625065302   -2.3609439835   -2.5109283620
 H   -1.1054023343   -3.2325799746   -0.5413359433
 H    1.7704716157   -4.2661192978   -0.8610201092
 H    0.4195282379   -5.1983850252   -0.1875190195
 H    0.3846379360   -4.6903669689   -1.8878445054