18

 N   -0.1540846141    1.5266304836    0.0154137789
 C   -0.0536029133    0.0769067261   -0.0011383312
 C    0.8675943156   -0.4908392455   -1.1143214705
 C    2.2289641752    0.0255922851   -1.0002081222
 N    3.2900043201    0.4660281199   -0.8720213309
 C    0.2183602430   -0.5804846566    1.3821048507
 N   -1.0449904493   -1.3991539938    1.3126200680
 C   -2.1423022945   -0.4161988278    1.2522633093
 C   -1.3871322474   -0.6796618217    0.0158282992
 H    0.7645665301    1.9401788030    0.1590304003
 H   -0.4950740936    1.8747385629   -0.8776910586
 H    0.8928399355   -1.5855073771   -1.0729355852
 H    0.4669497903   -0.2150416126   -2.0978063926
 H    1.0954663682   -1.2299404017    1.4077609728
 H    0.2497875379    0.1114059620    2.2281552704
 H   -3.1220500452   -0.8753112543    1.3402442128
 H   -2.0272228678    0.5420212594    1.7513647038
 H   -1.8069307206   -1.2095137609   -0.8349164150