19

 C    0.0222270234    1.5408687196   -0.0847911596
 C    0.1954361196    0.0203206631   -0.0459087879
 C    0.4598624521   -0.5151301307    1.3671409044
 C    0.6185161995   -2.0206948489    1.4114851102
 C    1.9515176457   -2.6629369224    1.0662149835
 C    1.4317364621   -2.6865669000    2.4827678358
 O    2.0149352758   -1.8563126207    3.4473994949
 H    0.9183788373    2.0505196225    0.2867405057
 H   -0.1655731314    1.8973944359   -1.1025774564
 H   -0.8193158269    1.8602771979    0.5402968763
 H   -0.7022059298   -0.4618163311   -0.4557695195
 H    1.0231821150   -0.2751987308   -0.7031692352
 H    1.3576690312   -0.0461571006    1.7834777376
 H   -0.3671258288   -0.2198295449    2.0275621265
 H   -0.2632832474   -2.5733943162    1.0947887476
 H    1.9725644648   -3.5840960589    0.4937558667
 H    2.7778191078   -1.9862839201    0.8700748763
 H    1.0664798306   -3.6381891136    2.8698926988
 H    2.8878141397   -2.2079511202    3.6499955943