17

 C   -0.0180989476    1.5580494857   -0.0133987747
 C    0.0566156429    0.0656264924    0.0170437922
 C    0.4572517306   -0.9829178055   -0.9634357879
 C    1.2486638810   -1.7522426083    0.0988689764
 C    0.5211996779   -0.8745864579    1.1738470693
 N   -0.7370615451   -1.4855882329    1.5735828200
 C   -1.5013208070   -1.6686927114    0.4257734588
 O   -2.4371224109   -2.4080344847    0.2854012512
 N   -0.9838159530   -0.7709634713   -0.5858468196
 H    0.9644003683    2.0061037766    0.1678442912
 H   -0.3812483557    1.8955759801   -0.9875694079
 H   -0.7077216826    1.9273388046    0.7534042575
 H    0.6748122594   -0.9117596915   -2.0220894345
 H    1.1230983151   -2.8367937683    0.1758904183
 H    2.3114115052   -1.5059055809    0.0244833005
 H    1.0955092029   -0.4784350408    2.0089083515
 H   -0.7510200514   -2.2445733960    2.2407856775