21

 C    0.4201597271   -0.7426387737   -1.3617038488
 C   -0.0348298272   -0.0309423506   -0.0776983094
 C    0.3641872176    1.4585359069   -0.0829920562
 C   -1.5268370611   -0.1664888528    0.1595898794
 N   -2.0773477945   -0.3820348002    1.2942439869
 O   -1.1558393348   -0.5299035493    2.3417189787
 C   -2.4673294190   -0.0208557935   -0.9909633693
 C   -3.2926746756   -1.1923461042   -1.4181297085
 N   -3.9148313793   -0.0346190076   -0.7709638734
 H    1.5090588525   -0.6805593605   -1.4545261634
 H    0.1429090556   -1.8009685249   -1.3536813450
 H   -0.0121738040   -0.2890563850   -2.2591366473
 H    0.4622407349   -0.5048216264    0.7719790185
 H   -0.1268511339    2.0024761916   -0.8973841790
 H    0.0917936748    1.9393789922    0.8602864908
 H    1.4457117753    1.5597127030   -0.2198034466
 H   -1.7330061644   -0.6866047535    3.0961827923
 H   -2.1390349282    0.6763731106   -1.7580080008
 H   -3.5379875846   -1.3273286339   -2.4683180413
 H   -3.1760729730   -2.1090379700   -0.8460063879
 H   -4.0710847982   -0.2411503984    0.2144393203