20

 C   -0.0036380019    1.3881839671   -0.2179999179
 O    0.0153671435    0.0776530410    0.3100856257
 C   -1.2011569918   -0.5918494222    0.1731392705
 C   -1.5797228196   -1.3237788546   -1.1486569984
 C   -0.3118969845   -2.1567691345   -1.4210848803
 C   -0.4850616086   -3.0229389846   -0.1567520450
 C   -1.8636439384   -3.6418242370   -0.4501986709
 N   -2.4414748126   -2.2644036911   -0.2683180621
 C   -1.3028619671   -2.0003280972    0.7314940574
 H    0.9737217700    1.8329377520   -0.0176982274
 H   -0.1798751084    1.3927188387   -1.3036391695
 H   -0.7809837422    2.0028347619    0.2607556273
 H   -2.0428724492    0.0157463794    0.5333143487
 H   -2.0931292789   -0.8331991320   -1.9739973982
 H   -0.3484817358   -2.7437872909   -2.3423574041
 H    0.5889336428   -1.5408414208   -1.4170557537
 H    0.3685027860   -3.5914686930    0.2129718889
 H   -2.0348478552   -4.1162076248   -1.4225489070
 H   -2.2525286373   -4.2814524530    0.3473656417
 H   -1.4731806707   -2.2316722242    1.7832154943