15

 N    0.1163623134    1.1648484454   -0.0099576460
 C    0.0121784695   -0.0791156657    0.0629876616
 O    0.9852773795   -1.0589461558    0.2980964496
 C    0.0069157613   -2.0952980619    0.0321321751
 C   -1.0751772051   -2.0570244427    1.0509744378
 C   -0.8547363574   -1.6466321636    2.5002608607
 C   -0.5711152721   -2.8031804390    3.3498174831
 N   -0.3574530810   -3.7301091272    4.0054583808
 C   -1.0964923487   -1.0641816603   -0.1178127729
 H    1.0787266551    1.4715675052    0.1407805365
 H    0.3198887196   -2.9266926090   -0.5836741687
 H   -1.8164846588   -2.8410850585    0.9160954508
 H   -0.0179507295   -0.9457052267    2.5694901662
 H   -1.7416993115   -1.1338431495    2.8878105420
 H   -1.9256139543   -0.9818687608   -0.8046811366