21

 C    0.0441469070    1.5367852248   -0.0732861508
 C   -0.0167963350    0.0145863547    0.0247078046
 C   -1.4678190142   -0.4851115322   -0.0095885594
 O    0.7246836336   -0.5095108251   -1.0917716990
 C    1.2467368313   -1.7941252001   -0.7519589013
 C    1.5072462258   -1.7408403230    0.7397266664
 C    2.2233638267   -0.4970480578    1.2291832712
 C    0.7182302348   -0.5672762968    1.2440750533
 O    0.0327084035   -0.6481052517    2.4558107662
 H    1.0791231775    1.8873220494   -0.0600384189
 H   -0.4228324511    1.8792876342   -1.0011563204
 H   -0.4927939093    1.9956242212    0.7639420632
 H   -1.9483913076   -0.1557537166   -0.9350328039
 H   -1.5091802322   -1.5772455801    0.0338472897
 H   -2.0347107350   -0.1012432753    0.8420255035
 H    0.5324606023   -2.5973524837   -0.9904321668
 H    2.1450899899   -1.9457624279   -1.3601090872
 H    1.5743576957   -2.6555818370    1.3157823812
 H    2.7084742652   -0.5749819403    2.1960187365
 H    2.7255643866    0.1352103570    0.5039606948
 H    0.1102105147    0.2040096465    2.8984016971