11

 O   -0.0490498637    1.4821102980   -0.0724065424
 C   -0.0003198256    0.0859761485   -0.0586251827
 C    0.6754176870   -0.5028184315   -1.2225139991
 C    1.2536641534   -0.9899051868   -2.1560224721
 C    0.7499263939   -0.3994318430    1.1958823014
 O    1.3527706443    0.3665804070    1.9026962719
 C    0.7007156336   -1.8387069955    1.4706803635
 N    0.6223345856   -2.9697535728    1.6967736421
 H    0.6718900707    1.7923155672    0.4964113345
 H   -1.0283011748   -0.3024973602   -0.0065324455
 H    1.7524889356   -1.4176146311   -2.9914583115