20

 C   -0.1606395616    1.5563892647    0.1287526232
 C    0.0302113306    0.0584217852   -0.0161993647
 C    0.7991208683   -0.5786549713   -1.1856227017
 C    2.1269728948   -0.1352815023   -0.4920500190
 C    3.1499838530   -1.2362981296   -0.6473304262
 C    2.4331139906   -2.3513862632   -0.4798034322
 C    2.8119052453   -3.7915361025   -0.4684582060
 C    1.0368387029   -1.7988474677   -0.2443306056
 N    1.2254749597   -0.5807286604    0.7129146960
 H    0.7156993323    2.1344024781   -0.1749254912
 H   -1.0066572681    1.8888148632   -0.4826838296
 H   -0.3838701057    1.8073530666    1.1710235675
 H   -0.8998192686   -0.4581234573    0.2520998671
 H    0.5668056815   -0.5877675519   -2.2596008632
 H    2.4534713486    0.9029450893   -0.4858911898
 H    4.2108495409   -1.1140770989   -0.8154793562
 H    3.8804890387   -3.9245965638   -0.6577555818
 H    2.5772752544   -4.2554277045    0.4979497031
 H    2.2590106696   -4.3583113774   -1.2284868806
 H    0.2176667428   -2.4724294863    0.0164467808