21

 C    0.6739988759    1.3983053600    0.1535245482
 C    0.0596548614    0.0070004050    0.0295828305
 C    0.5073482966   -0.7771519900   -1.2236216058
 C    1.6578123850   -1.6547029909   -0.7063756585
 O    2.8936365514   -0.9514025112   -0.6337903963
 C    1.1788971986   -1.9608913258    0.7156637288
 C    2.2510353790   -2.2597240497    1.7561961945
 O    1.6667749925   -2.4585256758    3.0314344325
 O    0.4719155546   -0.7943971006    1.1483042764
 H    1.7625488195    1.3359072306    0.0784390539
 H    0.2986282759    2.0578647061   -0.6366675195
 H    0.4138415602    1.8405367742    1.1194838596
 H   -1.0349022075    0.0881824678    0.0602397965
 H   -0.3025967237   -1.4150934515   -1.5919101077
 H    0.8178356243   -0.1245791966   -2.0450077300
 H    1.7743966147   -2.5769294639   -1.2915726866
 H    3.1480916563   -0.7050212205   -1.5282953137
 H    0.4809671240   -2.8128479408    0.6766405628
 H    2.7766389555   -3.1850185940    1.4975977318
 H    2.9811552257   -1.4412688221    1.7635539100
 H    1.1188123900   -1.6813664104    3.1918195925