19

 C    0.2868562098    0.9605486712    0.8553231246
 O   -0.0166100657   -0.3871512616    1.1468182453
 C   -1.2926192071   -0.7595534625    0.7482679803
 C   -1.5263410963   -1.1947848124   -0.7306794707
 O   -0.6565410286   -2.3748968615   -0.4696474160
 C   -1.5409680108   -2.2769161687    0.7269332841
 C   -2.7409243744   -2.0801858203   -0.2714568753
 C   -4.0800417752   -1.5038838200    0.1413094467
 O   -2.9975575044   -3.1803632473   -1.0895775216
 H    1.2814661181    1.1606315959    1.2591702634
 H    0.2973434815    1.1524336551   -0.2274535348
 H   -0.4333682045    1.6501068728    1.3231575500
 H   -2.0569491039   -0.1182479091    1.2040977999
 H   -1.3673161611   -0.6575705661   -1.6666768898
 H   -1.3920832418   -3.0129564015    1.5177165960
 H   -4.6431552290   -1.2258484022   -0.7544100817
 H   -4.6558436499   -2.2704934026    0.6679104506
 H   -3.9975312275   -0.6281083838    0.7852773209
 H   -2.1198621692   -3.5155922155   -1.3294420118