19

 C    0.1493231417    1.4113921381    0.1390411159
 O   -0.0717730166    0.0138572906   -0.0105201232
 C    0.5716293159   -0.5557268182   -1.0744939484
 C   -0.0231582890   -0.9569644175   -2.2336073241
 C   -1.4220989184   -0.8873565802   -2.7222351791
 O    0.9130016407   -1.5536330955   -3.0271739454
 C    2.0989446191   -1.5208342716   -2.3558969546
 C    1.9661967295   -0.9216791993   -1.1445043370
 C    3.0107453598   -0.7148757804   -0.0937352145
 H    1.2090532347    1.6406502375    0.3085252138
 H   -0.1921337990    1.9639454205   -0.7459720347
 H   -0.4274912336    1.7290583408    1.0106201548
 H   -1.5067299091   -0.2951746653   -3.6409284085
 H   -1.8258111020   -1.8838162113   -2.9357543584
 H   -2.0427528430   -0.4240690027   -1.9518446800
 H    2.9372599726   -1.9685775811   -2.8648263716
 H    3.3022262541    0.3384092298   -0.0023248207
 H    2.6457188412   -1.0324161036    0.8887316169
 H    3.9151995014   -1.2863050506   -0.3199635112