19

 C    0.0018724217    1.5123976650    0.0463867801
 C   -0.0079017480   -0.0038657877   -0.0143794769
 C    0.7163728856   -0.5566885850   -1.2502297612
 O    0.6657991826   -1.9899463128   -1.2262245436
 C    0.0033112784   -2.4427140839   -0.0660857216
 C    0.7206504893   -1.9132942727    1.1745876647
 O    0.6818852999   -0.4819656082    1.1487959978
 O   -1.3436704857   -2.0241145209   -0.0497929815
 C   -1.4256061087   -0.5931479446    0.0048051385
 H    1.0308352270    1.8818963907    0.0628984790
 H   -0.5116891768    1.9430537837   -0.8180517541
 H   -0.4961769667    1.8559177738    0.9571603538
 H    0.2417627851   -0.2038961280   -2.1749376111
 H    1.7638215748   -0.2293823206   -1.2453362722
 H   -0.0038296456   -3.5330901961   -0.1099536222
 H    0.2235769132   -2.2767950861    2.0826790170
 H    1.7644888129   -2.2511843630    1.1809638711
 H   -1.9411347894   -0.2929336470    0.9259036973
 H   -2.0093711895   -0.2417452667   -0.8557289449