19

 C    0.0953854837    1.5866197214    0.1212292093
 C   -0.0186689217    0.0941634427    0.0596680848
 C   -1.3117731570   -0.7111224054   -0.1667961878
 C   -0.7715703926   -1.7855083124    0.8441666542
 N   -0.6786776008   -3.1740636471    0.4531369075
 C   -1.4140064441   -4.1642171103    1.0322942038
 O   -2.2409340925   -4.0030539342    1.9037954206
 C    0.5294577361   -0.9849928477    0.9609295586
 N    1.1358984190   -0.7016215173   -0.3417693515
 H    1.0968952456    1.8794656664    0.4461893211
 H   -0.0824730735    2.0328572837   -0.8643714724
 H   -0.6381528810    2.0089538970    0.8159574284
 H   -2.2221229386   -0.2268364750    0.1940848546
 H   -1.4760926784   -1.0471690618   -1.1964181142
 H   -1.3507537651   -1.7682836591    1.7676178135
 H   -0.0051284995   -3.4404341928   -0.2482998530
 H   -1.1678880874   -5.1582379029    0.6085034348
 H    1.1664009999   -0.9235628992    1.8367797162
 H    0.9217285979   -1.3917126660   -1.0604868985