17

 C   -0.0518396014    1.5687560314   -0.0074207264
 C   -0.0557321431    0.0519821260   -0.0104113333
 O   -1.3260606446   -0.4859625149   -0.2774593236
 C    1.2006724634   -0.6707251210   -0.6339288406
 O    1.9768534713   -0.1835253339    0.5319511642
 C    0.7140937482   -0.6808997334    1.1298168917
 C    0.8360113817   -1.9040658535    0.2050471888
 C    0.2050280116   -3.1959272934    0.0247052302
 O    1.5980561387   -3.0513339142    0.4097708551
 H    0.9378009534    1.9533731788    0.2367911058
 H   -0.3382451167    1.9514262657   -0.9953609112
 H   -0.7769128313    1.9440699466    0.7216292651
 H   -1.7547510653    0.0665163491   -0.9386305279
 H    1.6588940078   -0.5871901055   -1.6194467562
 H    0.5986744028   -0.6119877737    2.2110928448
 H   -0.4498504338   -3.5946101995    0.7967788073
 H    0.0409836673   -3.5874903445   -0.9773331138