19

 C    0.0554739481    1.3191748409    0.2899404748
 O   -0.0168103735   -0.0154898220   -0.1867162086
 C   -1.2906823364   -0.5336896356   -0.1446647700
 C   -1.8955157817   -1.1087928996    1.1094366469
 C   -1.6783171540   -1.9858460082   -0.1123174243
 C   -2.6930319354   -1.7184725296   -1.2721922763
 O   -2.7707747172   -2.5688177922   -2.3590937778
 C   -3.7352768111   -0.6751097860   -0.9709926713
 C   -2.3106502193   -0.2631454476   -1.2994205214
 H    1.0982283218    1.6322871159    0.2039513336
 H   -0.5716318637    1.9970693908   -0.3059764555
 H   -0.2591696188    1.3863175801    1.3406357339
 H   -1.1558641496   -1.2822682742    1.8864658904
 H   -2.8794690076   -0.8568430710    1.4902462265
 H   -1.0382844148   -2.8582304076   -0.1006502105
 H   -3.4062368872   -3.2639825950   -2.1514682906
 H   -4.4192417513   -0.5193893082   -1.8008742130
 H   -4.1867474123   -0.5236292018    0.0038084851
 H   -2.0652880861    0.3548820009   -2.1529737618