14

 C   -0.0404376854    1.5093709465    0.0106705836
 C   -0.0255886951   -0.0089780953    0.0023527304
 O   -1.3638790759   -0.4693280260    0.0126898670
 C   -1.4479223277   -1.8789797919    0.0059071808
 C   -2.8435209006   -2.2985516129    0.0171771958
 C   -3.9841786412   -2.6734551283    0.0259688570
 H    0.9816696801    1.8995778564    0.0029987214
 H   -0.5660988548    1.8922806028   -0.8684334096
 H   -0.5491539153    1.8827367787    0.9037382610
 H    0.4995255986   -0.3880874269   -0.8912826830
 H    0.5165008927   -0.3976328448    0.8816365505
 H   -0.9447648089   -2.2933431746   -0.8854308039
 H   -0.9277138177   -2.3028531190    0.8828589754
 H   -4.9954098287   -2.9972981148    0.0331978736