17

 C    0.0296625411    1.4972927114   -0.0201944947
 C    0.0668796974    0.0040716512    0.0314951574
 N    0.1559455226   -0.6938293462   -1.0744335022
 O    0.1669594793   -2.0295754406   -0.6766640312
 C    0.0834597446   -2.0938659207    0.6672960141
 C    0.0827118588   -3.4571472354    1.2632715547
 C    0.0162239866   -0.8372680490    1.1900012721
 C   -0.0861012463   -0.4041786507    2.6178539145
 H    0.8666441270    1.9319675570    0.5373659147
 H    0.0857751972    1.8384562874   -1.0555461835
 H   -0.8929676023    1.8842625119    0.4262996922
 H   -0.7624984613   -4.0469505681    0.8930657800
 H    0.9988211688   -3.9988725181    1.0052353016
 H    0.0118640186   -3.3998644617    2.3512390411
 H    0.7614249870    0.2263311494    2.9112866478
 H   -0.9963648511    0.1792064324    2.7995859893
 H   -0.1061928179   -1.2616597101    3.2957488720