16

 C   -0.0024065281    1.5098243045    0.0118337656
 N   -0.0093803704    0.0473819672   -0.0274483237
 C   -0.0167529800   -0.6710667540    1.1730076303
 N   -0.0176609805   -0.0834070024    2.2980046450
 C   -0.0084451677   -0.6545096345   -1.2167096886
 O   -0.0138932399   -1.8735218359   -1.2727380346
 C   -0.0001744358    0.1486152297   -2.5171231723
 O    0.0002909559   -0.7170381461   -3.6099514818
 H    0.8936071573    1.9116444028   -0.4692256268
 H   -0.8886315885    1.9202858934   -0.4798726344
 H   -0.0071587089    1.8015631971    1.0605707711
 H   -0.0212742851   -1.7453433870    0.9923008120
 H   -0.0234860959   -0.7675333684    3.0515132449
 H   -0.8797910579    0.8119651863   -2.5365001960
 H    0.8850488128    0.8046001691   -2.5299275610
 H   -0.0053844673   -1.6083913118   -3.2227889497