16

 C   -0.2033408119    1.4621425442    0.0461141885
 N    0.0351471951    0.0234895934    0.0940374882
 C    1.3625881940   -0.4837888843   -0.1779376044
 C    0.7979608139   -0.5393484356    1.2137600160
 C    1.3949767578    0.3225477536    2.3224197590
 O    0.4190465399    0.7650453665    3.2430017534
 C    0.2615237882   -1.7895797396    1.7223776710
 N   -0.1403750453   -2.7669717110    2.1921948491
 H    0.6925787426    2.0763679534    0.2169097353
 H   -0.5954610859    1.7054236969   -0.9453805348
 H   -0.9525705446    1.7245232824    0.7963241780
 H    1.4252544324   -1.3866580257   -0.7783013620
 H    2.1723406758    0.2309312996   -0.3294241196
 H    2.1982035111   -0.2450427611    2.8147959155
 H    1.8434031217    1.2210763033    1.8937373042
 H    0.0645719851   -0.0059341160    3.7009795628