19

 C   -0.6947750631    1.4496841891   -0.1190547550
 C   -0.0492798039    0.0592202322    0.0210011117
 C    0.7863915043   -0.3098030168   -1.2116630322
 N    1.9215717359    0.5818136314   -1.4343137320
 C    3.1261724623    0.4952114514   -0.7812925718
 O    4.1773048309    0.8638214884   -1.2751406650
 N    3.1001019506   -0.0326309499    0.5078573107
 C    2.0697493501   -0.1203559933    1.4486227367
 C    0.7431128439   -0.0748334030    1.2924833736
 H    0.0735995780    2.2160671236   -0.2517271740
 H   -1.3701710981    1.4827380605   -0.9819086402
 H   -1.2753906889    1.7028570571    0.7729612916
 H   -0.8643304270   -0.6789521726    0.0669652107
 H    1.1234663255   -1.3510426777   -1.1251259986
 H    0.1575302893   -0.2465439279   -2.1041917455
 H    2.0541332380    0.9209776279   -2.3744047666
 H    4.0357965027   -0.0532970158    0.8824728465
 H    2.4676224282   -0.2533525677    2.4499543750
 H    0.1633482112   -0.1478234068    2.2080062245