20

 C   -0.0816755262    0.7083219057   -2.1171121660
 C    0.0758327007   -0.3972590670   -1.0977181238
 C    1.3438639985   -0.6217603031   -0.3114649046
 C    2.5869272516    0.2238418357   -0.4847569469
 C    0.1221454927   -0.0499311648    0.3798877801
 N   -0.0440626452    1.3056225935    0.9456947332
 C   -0.8065302476    0.7533364713    2.1138839497
 C   -0.6945429704   -0.6495340277    1.4801136620
 O   -1.0959114940   -1.7464868733    1.7450702394
 H    0.2986595714    1.6616782910   -1.7430301380
 H    0.4391026767    0.4672163489   -3.0501279617
 H   -1.1401402283    0.8571219610   -2.3519127283
 H   -0.4884731041   -1.3019699739   -1.3117891968
 H    1.5436085446   -1.6590053307   -0.0511888994
 H    2.3526722003    1.2659370232   -0.7169605108
 H    3.1983547998    0.2120578734    0.4243070914
 H    3.2053502977   -0.1629567712   -1.3016703230
 H    0.8412787511    1.7062324875    1.2408594229
 H   -0.3066987488    0.8382460449    3.0854438046
 H   -1.8227832006    1.1507306658    2.1992462059