17

 C   -0.4570448801    1.3688455784   -0.0826966457
 N   -0.3875520404   -0.0807936210   -0.1908628567
 C    0.5169184645   -0.5856705830   -0.9038424772
 N    1.5862259687   -0.0981667358   -1.6667803785
 C    2.0195653795   -1.4139992951   -2.1410583356
 C    3.3967946437   -1.7600716397   -1.7887444608
 N    4.4859323710   -2.0260126116   -1.5092350741
 C    0.8796507359   -2.0447822235   -1.2344422841
 N    1.2918422606   -2.9791675758   -0.2230189896
 H    0.5163908765    1.8686481233   -0.2014446275
 H   -1.1434744439    1.7797627206   -0.8349412069
 H   -0.8579642396    1.6389669912    0.8984956084
 H    1.6685753492    0.7721295817   -2.1688735018
 H    1.8694405115   -1.5929264729   -3.2114312594
 H    0.1134365767   -2.5128931590   -1.8578116520
 H    1.8770926816   -2.5288179716    0.4742565601
 H    0.4796386046   -3.3466227662    0.2607702715