16

 N    0.1736812630    1.3760026142   -0.0483048209
 C    0.0589827575   -0.0322936704   -0.0697712656
 C    0.3335126803   -0.9886522116    1.1303652229
 N   -1.0861445305   -0.8968322295    1.5990124823
 C   -1.1897151353   -1.0017141556    0.1069059820
 C    0.0393747727   -1.9458019177   -0.0724557055
 C    0.7505228459   -0.9934390474   -1.0723100309
 C    0.2797774696   -0.9754142906   -2.4485837780
 N   -0.1140866283   -0.9508921656   -3.5358846536
 H   -0.2447309489    1.7917509999   -0.8753854472
 H   -0.3076255601    1.7486267492    0.7656095016
 H    1.1963163639   -0.9882997814    1.7975432327
 H   -1.3751786010   -1.7733212253    2.0413620917
 H   -2.1347663796   -1.0067369094   -0.4352118065
 H    0.0415758148   -3.0341434714   -0.0690521348
 H    1.8438754258   -0.9940606075   -1.0393098501