21

 C    0.0029957911    1.5599230506   -0.0091472104
 C    0.0685986970    0.0286380573    0.1032050252
 C    0.7323915241   -0.3852873736    1.4247681866
 C   -1.3291250495   -0.5995693342   -0.0505948496
 C   -2.1585318313   -0.1537936293   -1.2665704765
 O   -3.1130053633   -1.1917520162   -1.4880715416
 C   -2.4615034807   -2.4210766219   -1.2482080608
 C   -1.3470658796   -2.1236586805   -0.2405265090
 O   -0.6243073066   -2.9455687140    0.2607989945
 H    1.0010913528    1.9942494977    0.1072544880
 H   -0.3903457696    1.8908986085   -0.9753426843
 H   -0.6346931054    1.9828074464    0.7763699171
 H    0.6892675579   -0.3458249708   -0.7232949903
 H    0.7989634500   -1.4704847838    1.5114014036
 H    1.7405881575    0.0360011357    1.4940930619
 H    0.1573855999   -0.0071817822    2.2791792284
 H   -1.9186094329   -0.3976594803    0.8572276420
 H   -2.7136363413    0.7729799666   -1.1135135539
 H   -1.5092985468   -0.0290502629   -2.1500615764
 H   -3.1767876181   -3.1521331839   -0.8599490745
 H   -2.0062383653   -2.8391333693   -2.1624493699