18

 O   -0.2486182595    1.3776988976   -0.0092511647
 C   -0.0393953206   -0.0091313406   -0.0160732606
 C    0.7459684957   -0.4121481360   -1.2457408066
 O    1.1361018106    0.4006581680   -2.0498004929
 C    0.6765617783   -0.4869296023    1.2554073997
 C    2.0034925929    0.2108220106    1.6667840776
 C    1.5185945063    0.1733373343    3.1408502712
 C    0.0731610517   -0.0606116435    2.6230979907
 H    0.1818488282    1.7099305136   -0.8130448273
 H   -1.0086436851   -0.5400361458   -0.0763800404
 H    0.9515940749   -1.4958093209   -1.3651569118
 H    0.7982279655   -1.5754929557    1.2071040230
 H    2.9422529355   -0.2915464451    1.4210398406
 H    2.0305282937    1.2323376224    1.2795530013
 H    1.9061057835   -0.6992451493    3.6746292241
 H    1.6960232345    1.0609531740    3.7519190266
 H   -0.4751824036    0.8790860146    2.5236886275
 H   -0.5514879624   -0.7872382758    3.1482329819