19

 C   -0.1790466758    1.6070025826   -0.1945890783
 C    0.0061746341    0.1252900008    0.0600860643
 O    0.9441490645   -0.5329054332   -0.9005264593
 C    1.8063829497   -0.7882562795    0.2039469727
 C    2.5357569537   -1.8021969885    1.1061296630
 C    2.1572260715   -0.4489204742    1.9680973579
 O    2.3657247254   -0.2459950262    3.3149137867
 C    2.7075495012    0.3549475958    0.7837677563
 C    0.7625609795   -0.5534487155    1.2808643323
 H    0.7548427327    2.1688605045   -0.1850346993
 H   -0.6477123406    1.7527946101   -1.1734708389
 H   -0.8457884523    2.0258951513    0.5665474149
 H   -0.9624659442   -0.3755590117   -0.0296823503
 H    1.9885728061   -2.7060201113    1.3776687270
 H    3.6037303697   -1.9871803483    0.9518721600
 H    3.2986519459   -0.0483008804    3.4552704405
 H    3.7791535820    0.2743662225    0.5825308128
 H    2.3538875626    1.3782940871    0.6827205372
 H    0.2032245042   -1.4399153959    1.5857887804