16

 C    0.2627909884    1.3190453342   -0.0424581095
 N   -0.0363597343   -0.1098003864    0.0543887256
 C   -1.4656805577   -0.4407096649    0.0875120928
 C   -2.1077939652    0.0771479375    1.3028181956
 C   -2.6435104273    0.4892956145    2.2946507346
 C   -2.2218477748   -0.0124782969   -1.1092148437
 C   -2.7675622990    0.3314208850   -2.1311498031
 C   -3.4666784650    0.7254235571   -3.3281693893
 O   -2.9773401232    1.3747710095   -4.2235047618
 H    1.3477097909    1.4428203254   -0.0855935488
 H   -0.1826111806    1.8130855398   -0.9196347578
 H   -0.1004891154    1.8229119502    0.8573966722
 H    0.3762062962   -0.5998000515   -0.7329928598
 H   -1.5262887606   -1.5384093669    0.1248653497
 H   -3.1143167886    0.8537599933    3.1744600395
 H   -4.5192775138    0.3795120500   -3.3712498262