16

 C    0.0628097976    1.5167439469    0.0208808832
 C   -0.0297845704    0.0255848161    0.0335808512
 C   -1.1792924900   -0.6952917334    0.0418440855
 N   -2.4512657544   -0.1451534463    0.0741201982
 C   -1.0896912667   -2.1451327304    0.0759001829
 N   -2.1652971838   -2.8574289705    0.0822272954
 C    0.2823902420   -2.6286138880    0.0855604607
 N    1.3596057825   -1.9192122476    0.0612662042
 O    1.2084052314   -0.5574570230    0.0337150172
 H    0.9931198281    1.8373840732    0.4957323299
 H    0.0535462263    1.9212380883   -0.9991816251
 H   -0.7791440654    1.9508929946    0.5677206816
 H   -2.5942223443    0.6917133712   -0.4699664131
 H   -3.1528909427   -0.8585038120   -0.0898626007
 H   -1.9498792150   -3.8548037714    0.1046910488
 H    0.4668076247   -3.7007060177    0.1009897702