23

 C   -0.2740224439    1.4755738818   -0.0362523569
 C   -0.0822613883   -0.0302424927   -0.0195752427
 C   -0.7848970144   -0.8059685316    1.0742409969
 C    0.7171135787   -0.6271099483    1.1129848171
 C    1.6556339910   -1.7982175904    0.8574905955
 C    2.7684271194   -1.5023419802   -0.1299942810
 C    2.6637530125   -0.9146993493   -1.3237978689
 C    1.4429869756   -0.3920726760   -2.0412901938
 C    0.0786171492   -0.6750525098   -1.3886099893
 H    0.5691321796    1.9892508136   -0.5120740356
 H   -1.1834773210    1.7510747419   -0.5842269449
 H   -0.3659945795    1.8724863940    0.9795687614
 H   -1.3931059204   -0.2552457454    1.7846856338
 H   -1.1677549923   -1.7945986196    0.8383064237
 H    1.0948656288    0.0874673057    1.8403438471
 H    2.0972159101   -2.1134269050    1.8095537922
 H    1.0802021115   -2.6670011547    0.5127859182
 H    3.7618675011   -1.8250371736    0.1756876810
 H    3.5855815922   -0.7879565964   -1.8914044832
 H    1.5649215531    0.6906404187   -2.1938834942
 H    1.4428749634   -0.8120873137   -3.0575070678
 H   -0.0606348526   -1.7585457013   -1.3139909685
 H   -0.7149614535   -0.3154397977   -2.0567504202