16

 O    0.0568272362    1.4467284859   -0.0701294984
 C    0.0577269815    0.0232757619   -0.0502480904
 C    0.7245741371   -0.5455984715    1.1802794877
 C   -0.1201603283   -1.2247963600    1.9620541068
 C   -1.4920956629   -1.3370679416    1.3673326664
 C   -1.3674402810   -0.5793581297    0.0039141186
 N   -1.5521981317   -1.8754111908   -0.6541547549
 C   -1.6977433955   -2.6193312553    0.4902903384
 O   -1.8955088393   -3.7837496454    0.6969646785
 H   -0.1520223678    1.7467260606    0.8215882304
 H    0.5626040836   -0.2732957786   -0.9773727748
 H    1.7752546186   -0.3755663226    1.3876660932
 H    0.1405236434   -1.6980536427    2.9018729275
 H   -2.3238743053   -1.1110354352    2.0371631796
 H   -2.1280446839    0.1650965792   -0.2446904234
 H   -1.4994088047   -2.1500238640   -1.6243869652