23

 C   -0.0017438493    1.5566382640    0.0106363440
 C   -0.0150134194    0.0257038155    0.0024395788
 C   -1.4314296608   -0.5581852439    0.0127661832
 C   -1.4431524438   -2.0799209855    0.0047587960
 O   -2.7855197370   -2.5220910250    0.0149995596
 C   -2.8894556964   -3.9332538523    0.0086026735
 C   -4.2886758170   -4.3377350115    0.0194046251
 C   -5.4375879267   -4.6947925497    0.0283709205
 C   -6.8291403761   -5.1209602113    0.0397161932
 H    1.0207592541    1.9468206323    0.0030060348
 H   -0.5198215868    1.9614487882   -0.8657392356
 H   -0.5029719524    1.9518380380    0.9010835728
 H    0.5242145075   -0.3393003852   -0.8818276610
 H    0.5409367942   -0.3488314339    0.8722495296
 H   -1.9763524648   -0.2095847553    0.8985718370
 H   -1.9930320761   -0.2002184334   -0.8587710037
 H   -0.9198782826   -2.4648179832   -0.8888288211
 H   -0.9032429587   -2.4742667427    0.8842199169
 H   -2.3857389548   -4.3491527096   -0.8821240098
 H   -2.3693888728   -4.3583843319    0.8854657410
 H   -6.9059432945   -6.2139178519    0.0345556226
 H   -7.3506516165   -4.7568539619    0.9316448030
 H   -7.3679524194   -4.7472996998   -0.8378607505