15

 N    0.0134527957    1.1641417211   -0.3638646612
 C    0.0113263981   -0.0789433714    0.1503320555
 O    0.9435546962   -0.6436698012    0.6954371725
 C   -1.3645951102   -0.7593761450   -0.0269146032
 O   -2.3017959336   -0.1975342762   -0.5735328713
 N   -1.3697873932   -2.0017519152    0.4900520100
 C   -2.5254024460   -2.8797792652    0.4140496775
 C   -2.1955350450   -4.1902308455   -0.1382795894
 C   -1.9138786211   -5.2745829153   -0.5707925362
 H    0.8444398854    1.7290766268   -0.3286127357
 H   -0.8353111319    1.5000595367   -0.7920744041
 H   -0.4943072106   -2.3198689940    0.8845323961
 H   -2.9763120120   -3.0022327370    1.4081211678
 H   -3.2625304311   -2.3639772695   -0.2103834873
 H   -1.6720591508   -6.2310306290   -0.9642251710