16

 C   -0.0338873706    1.4870906794   -0.1593497882
 C    0.0467426242   -0.0066675322    0.0029116558
 O    1.3423057585   -0.6062669748   -0.0682635676
 C    0.6790262362   -0.6402429265    1.1791537103
 C    1.1619040158   -0.0309536812    2.5076816507
 C    0.4963834755   -1.2191267730    3.2720542034
 C    0.2046213951   -1.8904518874    1.9091181617
 O   -0.1995570895   -2.9616878782    1.5654516649
 H    0.7652804471    1.9868265419    0.3933814530
 H    0.0580281802    1.7591012739   -1.2159577141
 H   -0.9994849637    1.8590648187    0.1995503807
 H   -0.7267425083   -0.5871052118   -0.5026386891
 H    2.2509399579   -0.0235169890    2.5888541571
 H    0.7794658172    0.9638805378    2.7426443605
 H    1.1455944687   -1.8003785316    3.9308851828
 H   -0.4149248144   -0.9610236062    3.8187750681