17

 N   -0.1029748417    1.3631507605    0.4087016673
 C   -0.1116305186    0.0228848206    0.0943613690
 N   -1.2109871484   -0.6215748639    0.0455537214
 C   -1.2239953331   -2.0412658917   -0.2272620850
 C    0.0114246478   -2.6091913710   -0.8929880501
 O    0.5138422434   -1.8868128139   -2.0226832920
 C    1.2715852329   -1.8662848012   -0.8144052926
 C    1.2917811326   -0.5652964314   -0.0508193168
 O    2.1215290527    0.4189181396   -0.6663417233
 H    0.6801743568    1.8828068601    0.0435034013
 H   -1.0045199098    1.8095636439    0.3281045596
 H   -1.3930203936   -2.6022502913    0.7057686484
 H   -2.0958576816   -2.2573969025   -0.8595459637
 H    0.0430303374   -3.6941379931   -1.0012664807
 H    2.2237557266   -2.3980963864   -0.8640186171
 H    1.6581314533   -0.7799192925    0.9680629467
 H    3.0342730734    0.1176150741   -0.6232547325