18

 C   -0.1260033169    1.4440393120    0.0388646023
 C   -0.0258026536   -0.0064536755    0.0162311074
 C    0.0689417126   -1.2108875722   -0.0029725939
 C    0.1657926338   -2.6156673447   -0.0249562552
 C    1.2632597743   -3.4604244138   -0.0802508025
 C    0.7815121580   -4.7920404098   -0.0779136067
 C   -0.5984576376   -4.7487171651   -0.0214125096
 C   -1.6120190965   -5.8442665398    0.0058560430
 N   -0.9565263858   -3.4268079784    0.0100335950
 H    0.8687617708    1.9029858978    0.0618185321
 H   -0.6447910132    1.8289966248   -0.8470675263
 H   -0.6709459649    1.7981448919    0.9218734240
 H    2.2914048608   -3.1365071277   -0.1177665480
 H    1.3740715159   -5.6939360735   -0.1135397467
 H   -2.2238857586   -5.8195333578    0.9164135742
 H   -2.2982302583   -5.7945961187   -0.8489697443
 H   -1.1110980293   -6.8142974540   -0.0289250188
 H   -1.8981602615   -3.0760801855    0.0526531940