17

 C   -0.1830386877    1.4218584155    0.6210598370
 C    0.2083728326    0.0083968332    0.2705785249
 C    0.3215823773   -0.4615604444   -1.1635707448
 N    1.4942594318   -0.2323601385   -0.3503842804
 C    2.5566795725   -0.9957020771    0.0347885628
 O    3.1491766368   -1.7954319654   -0.6645388932
 C   -0.2324962311   -1.8168504281   -1.5785167779
 N    0.6412169539   -2.8502701805   -1.5769908336
 O   -1.4070737489   -1.8970858450   -1.8839880640
 H    0.1825612538    2.1232087196   -0.1335594872
 H   -1.2723161424    1.5066994712    0.6800891243
 H    0.2332300805    1.7131950828    1.5907964019
 H   -0.1145631105   -0.7578286043    0.9755194137
 H    0.1517980831    0.2945695722   -1.9273070154
 H    2.8829531846   -0.7511727136    1.0617911372
 H    1.6388959874   -2.6984583068   -1.4667160821
 H    0.2996116962   -3.7396857708   -1.9060345531