19

 O   -0.2100046795    0.9073659164    0.8639753080
 C   -0.4163298160   -0.3974271978    0.3603654724
 C   -1.8283420551   -0.5393096403   -0.2670894467
 N   -2.9353714798   -0.1657848001    0.6098294643
 C   -3.2325207227   -1.1160731695    1.6523847386
 C   -2.5039735116   -1.1636862655    2.9846154832
 C   -3.9235621798   -0.6443832999    2.8933441617
 C   -1.8756564051    0.2994563964   -1.4797435988
 N   -1.8426040239    0.9924396757   -2.4040453186
 H   -0.1116133024    1.5061321712    0.1143007140
 H    0.3488813195   -0.6852290386   -0.3741368892
 H   -0.3465835979   -1.0753013865    1.2135315921
 H   -1.9706269844   -1.5829605527   -0.5750183521
 H   -2.7397533668    0.7500997345    1.0028527223
 H   -3.5640393508   -2.0688013340    1.2464010212
 H   -2.3315359700   -2.1260281701    3.4554878320
 H   -1.7227276599   -0.4305246411    3.1549378683
 H   -4.0741189162    0.4246227491    3.0075084076
 H   -4.7305007377   -1.2462955672    3.2951760296