15

 C   -0.0326738134    1.5052171820    0.0363728970
 C   -0.0251250086   -0.0031058429    0.0396422613
 O   -0.0325596202   -0.6589386392    1.0602748941
 C   -0.0070077828   -0.7089200500   -1.2812628114
 C    0.0013464664   -2.0371406602   -1.4418040192
 C    0.0189575400   -2.3591483026   -2.8993069865
 O    0.0200174288   -1.0977400470   -3.5611888906
 C    0.0048990810   -0.0830583517   -2.6354693762
 O    0.0025630620    1.0723391460   -2.9545394502
 H    0.8422971053    1.8892533613   -0.4975519475
 H   -0.8998873029    1.8804447647   -0.5161547292
 H   -0.0455048132    1.8660875297    1.0649546375
 H   -0.0037501325   -2.7744855839   -0.6499560308
 H    0.9114311058   -2.9261688979   -3.1947086457
 H   -0.8611704058   -2.9349094483   -3.2142003024