18

 C   -0.1477137367    1.3799044949   -0.5556436525
 O   -0.2445365277    0.0079037608   -0.8588081677
 C    0.8913463975   -0.7228011366   -0.4562582255
 C    0.6658054798   -2.1582883806   -0.8316756340
 C   -0.3702140662   -3.1748202124   -0.2858238465
 C    0.6681897197   -3.9151433740   -1.1592566219
 C    0.5528613153   -2.8102549072   -2.2340634931
 O    1.7424752149   -3.1254635647   -0.5025457933
 H   -0.0440107867    1.5520184348    0.5272272255
 H    0.7107305600    1.8497186162   -1.0609558461
 H   -1.0674059854    1.8561562306   -0.9034878454
 H    1.8038383952   -0.3515081233   -0.9522200234
 H    1.0517723863   -0.6476863525    0.6323549299
 H   -0.3006637460   -3.3730282634    0.7846169211
 H   -1.3981383634   -3.1046622935   -0.6478867734
 H    0.8382087449   -4.9846324710   -1.2788553755
 H   -0.3909142037   -2.7067986032   -2.7737205635
 H    1.4308675422   -2.6891853248   -2.8700010447