21

 C    0.8742027429   -0.3320537231   -0.9958320460
 O   -0.1120169772    0.0684225917   -0.0726560664
 C   -1.3717392211   -0.5548700799   -0.1155685822
 C   -1.8737081038   -1.3098226271   -1.3191544585
 C   -1.5180621313   -2.0521148893   -0.0397082138
 C   -2.3633827414    0.3037087064    0.6630060159
 C   -1.8839190711    0.5775026892    2.1002752109
 C   -2.5929754769    1.6185757920   -0.0645023972
 O   -3.6752133316    2.0368863934   -0.3899108732
 H    1.7800646997    0.2193900361   -0.7334887967
 H    1.0972207093   -1.4068519712   -0.9380725002
 H    0.5995464700   -0.0835477471   -2.0298352085
 H   -2.9183275491   -1.1956609956   -1.5882899061
 H   -1.2156659871   -1.4523673923   -2.1676805558
 H   -0.6173462547   -2.6560385019   -0.0570755211
 H   -2.3140733209   -2.4616862513    0.5726687506
 H   -3.3274591281   -0.2134597534    0.6870352260
 H   -2.6347428631    1.1463174612    2.6560653698
 H   -1.7081803601   -0.3665622801    2.6246239005
 H   -0.9470725712    1.1396402238    2.0987026512
 H   -1.6638635634    2.1918287184   -0.2761361291