18

 C   -0.1692718209    1.5863594904    0.0428964806
 C   -0.0390547682    0.0969194103    0.0398059717
 C    0.0156657686   -0.7302552088   -1.0425417651
 N   -0.0080783786   -0.4528149821   -2.4117165295
 O    0.0731590333   -2.0349248672   -0.6741128846
 C    0.0730378025   -2.0566142863    0.7234489758
 N    0.0694051176   -3.2692941041    1.4099012204
 C    0.0111133534   -0.7784203207    1.1856581672
 N   -0.1035941646   -0.3751472589    2.5236785489
 H    0.7747678956    2.0990292367    0.2744577029
 H   -0.5030687377    1.9434985575   -0.9360534317
 H   -0.9015113381    1.9127582702    0.7902239134
 H    0.8193157119    0.0367512534   -2.7334893388
 H   -0.1186002357   -1.3031716274   -2.9502318631
 H   -0.7962084746   -3.7921065212    1.3073171440
 H    0.8367075925   -3.8790804736    1.1452575396
 H    0.0817864368   -1.1526071191    3.1473941922
 H    0.5113874663    0.3964132310    2.7536486960