17

 O   -0.1301390501    1.4081385195    0.0732516292
 C   -0.0379754548    0.0077016170    0.0033977373
 C   -1.4280410060   -0.5903122948   -0.2440623924
 C   -1.0675882353   -1.9891540922   -0.7908740832
 N   -0.5055226607   -1.2572985946   -2.0025809137
 C   -1.6224314223   -0.2547422017   -1.7435191379
 C    0.6355153337   -0.5707146228   -1.3243216258
 C    1.2508995699    0.4712325218   -2.1392502879
 N    1.7669980137    1.3225660589   -2.7265372163
 H    0.7475727982    1.7940822561   -0.0229106767
 H    0.4502137049   -0.4060220858    0.8962479452
 H   -2.1791275679   -0.4096602465    0.5247905843
 H   -0.3492877259   -2.6140145565   -0.2504227037
 H   -1.9319447883   -2.5833491770   -1.0910156479
 H   -2.5531819458   -0.6361767825   -2.1657369526
 H   -1.4280927486    0.7629957949   -2.0842301676
 H    1.4026703153   -1.3151583436   -1.0918411702