21

 C   -0.4031946103    1.0370833888    0.1229869290
 O    0.5362721301    0.0138947136   -0.1358169866
 C    0.9468673230   -0.6463402424    1.0196336390
 C    0.1311984771   -1.7188480712    1.6947948750
 C   -0.6095783255   -2.5723867771    0.6986543666
 C   -0.0480298667   -3.9737712384    0.6733621569
 C    0.6967541135   -2.8800655677   -0.0509868164
 C    0.9578949461   -2.8970851042   -1.5319935836
 C    1.4662605589   -2.0410081081    0.9481728793
 H    0.0151196906    1.8142977991    0.7811766594
 H   -0.6609854102    1.4898481469   -0.8372082016
 H   -1.3148140307    0.6415244114    0.5931102733
 H    1.4829603731   -0.0003215621    1.7211011831
 H   -0.0368378129   -1.7153608180    2.7672514724
 H   -1.5721350319   -2.3369051530    0.2588297530
 H    0.3522482694   -4.4161472277    1.5822275681
 H   -0.5739484211   -4.6754997313    0.0312922962
 H    0.1563572830   -3.4169421609   -2.0675256855
 H    1.0273905305   -1.8779679079   -1.9215526257
 H    1.8957093706   -3.4169874418   -1.7632847387
 H    2.4241248034   -2.3105171879    1.3822208770