22

 C    0.9246312730    1.0668792212   -0.7692234854
 C    0.2195507511   -0.1366293947   -0.1390505337
 O    0.2590056890   -1.2132335035   -1.1029238797
 C    0.9883506701   -2.3611044009   -0.7203771810
 C    0.4864074322   -2.8837001812    0.6393715598
 N    1.4050709891   -1.8867053110    1.3023527188
 C    2.2638082922   -1.9843507031    0.0616887714
 C    0.7145934363   -0.5780572884    1.2995466342
 C    1.5790230126    0.4576325647    2.0188959053
 H    2.0018190900    0.9122331315   -0.8758402204
 H    0.5111524216    1.2274507097   -1.7688205424
 H    0.7642665668    1.9766887734   -0.1832642374
 H   -0.8416765057    0.1259210841   -0.0470422976
 H    1.0301880593   -3.0107604761   -1.5988999823
 H   -0.5775100056   -2.7653850554    0.8626653124
 H    0.8093008482   -3.9029695258    0.8729722925
 H    2.9688741272   -2.8142784125    0.1658161462
 H    2.8058648686   -1.0804837036   -0.2230875306
 H   -0.1819795659   -0.7327819771    1.9114551027
 H    2.5188301047    0.6474930722    1.4917619056
 H    1.0555603549    1.4124313606    2.1255481391
 H    1.8238611201    0.0824153561    3.0155354425