16

 N   -0.0046115199    1.1159565892   -0.5536667374
 C   -0.0265137209   -0.0466301211   -0.0973627451
 O    1.0126591781   -0.8411240594    0.4320760550
 C    0.0738227419   -1.9303987028    0.6715246256
 C   -0.6105101043   -2.0244605264    2.0609669094
 C   -1.8592164867   -1.2662204549    1.4525266991
 C   -1.0649048029   -1.1404664768    0.1231424057
 O   -1.3083235360   -2.0600370492   -0.9620912411
 C   -0.1889103960   -2.8948651738   -0.5003929170
 H    0.9360464641    1.5146886147   -0.5359432236
 H   -0.8013682103   -3.0352378378    2.4262977913
 H   -0.0711150143   -1.4658329682    2.8268647220
 H   -2.7428984871   -1.8948606836    1.3344756825
 H   -2.1434276595   -0.3299191905    1.9342516301
 H    0.6139622352   -2.9527723457   -1.2413265893
 H   -0.5268110515   -3.9004502737   -0.2290508772