20

 C    0.0618830902    1.4368047403   -0.0924083089
 C   -0.0006637713   -0.0937067150   -0.1161369522
 C   -1.4091647940   -0.6470245457    0.1515573440
 O   -2.3463860330   -0.1978269347   -0.8264448026
 C   -1.4428084427   -2.1693862191    0.1093377773
 C   -2.6958833706   -2.8763485014   -0.3197513915
 N   -1.5268442585   -2.8686967875   -1.1943162637
 C   -0.6241334401   -2.8999342466    1.1175209881
 O   -0.1115636379   -2.3968562940    2.0880349595
 H    1.0896082173    1.7855239122   -0.2267475248
 H   -0.5304009763    1.8876150439   -0.8976431670
 H   -0.3000674355    1.8361574708    0.8620364290
 H    0.3456437804   -0.4677595768   -1.0874394646
 H    0.6689883310   -0.4975103850    0.6480422152
 H   -1.7265144952   -0.3305649267    1.1571207628
 H   -2.3554008836    0.7629850176   -0.8122117326
 H   -2.9426317533   -3.8420046008    0.1135580389
 H   -3.5364775890   -2.2365129614   -0.5629346662
 H   -1.6642479636   -2.1517562598   -1.9052904441
 H   -0.5413587342   -3.9882859303    0.9040554833