17

 O    0.0732219596   -0.0131809650   -0.3417283320
 C    0.0414046570    1.1587000726   -0.0875188389
 N   -0.9853192873    2.0152224061    0.2484022066
 C   -0.1745954404    3.2435626105    0.2518260296
 C    0.0674905769    3.9497681357    1.5964877826
 C    1.3353892191    3.3140356263    2.1636088855
 C    1.3467996134    1.8581970516    2.4353049946
 N    1.9450592134    2.3720476130    1.1878630565
 C    1.0699657207    2.3260373684    0.0086598496
 H   -1.9860826371    1.8788078346    0.2185896772
 H   -0.4405517360    3.9324594106   -0.5546606115
 H    0.2331404520    5.0180160280    1.4264931344
 H   -0.7901913219    3.8555056113    2.2698386261
 H    2.0302374659    3.9621954784    2.6910406034
 H    2.0698944876    1.4397502246    3.1294271482
 H    0.4040635138    1.3207245334    2.3893080123
 H    1.6522860634    2.5004599098   -0.8971498343