16

 O   -0.0153722293    1.3717928566    0.1030533837
 C    0.0504074673    0.0044624398   -0.0054018995
 C   -0.9098958750   -0.9136324200    0.7628432636
 O   -1.0620233010   -2.1237069999    0.0209037946
 C    0.3754945133   -2.0380285883   -0.2301880204
 C    0.5603005865   -1.0559034811    0.9898500035
 C    0.4857566772   -0.8401529775   -1.1835297793
 C    0.3106249572   -0.7033916383   -2.6334591102
 N    1.6622235363   -0.5977342711   -2.0057046547
 H    0.8807697984    1.7217122131    0.1686990297
 H   -1.7165067205   -0.5556156509    1.3893950147
 H    0.8678301002   -2.9888742724   -0.4166553883
 H    1.2017505876   -1.0284004409    1.8592769227
 H    0.1695260392   -1.5800805198   -3.2590556435
 H   -0.1542378471    0.2054584438   -3.0068072458
 H    1.9307079997    0.3841180068   -1.9534303608