23

 C    0.1029088464    1.5920216940   -0.0250359958
 C    0.0400728564    0.0504880762   -0.0355093944
 C    0.6727120599   -0.4721769625   -1.2476006131
 C    1.2130319571   -0.8814689231   -2.2411386664
 C    0.6636340394   -0.5741062995    1.2330916667
 C   -0.0156232138   -0.1371136902    2.5532083622
 C    0.2389606046   -1.2892158061    3.5682846910
 C    0.9329038662   -2.4181879353    2.7626495914
 C    0.5992958860   -2.1094581715    1.2963248749
 H    1.1411712638    1.9338432732    0.0297754631
 H   -0.3391672625    2.0032241643   -0.9362025103
 H   -0.4399096277    1.9951351989    0.8340644101
 H   -1.0200738762   -0.2447563001   -0.0551916575
 H    1.6791371061   -1.2512882238   -3.1204787415
 H    1.7214707282   -0.2773849679    1.2630615363
 H    0.3581273318    0.8245594911    2.9139706040
 H   -1.0925364165   -0.0119109048    2.3848346819
 H    0.8539350835   -0.9618185606    4.4111003304
 H   -0.7071751757   -1.6386575952    3.9923710592
 H    2.0186158931   -2.3714420407    2.9075475877
 H    0.6140727613   -3.4168820517    3.0737837522
 H   -0.4215899151   -2.4417106526    1.0612449097
 H    1.2708738938   -2.5929170323    0.5831600382