18

 C   -0.2518365532    1.5079652327    0.1582064971
 C    0.0610750679    0.0171839084   -0.0316822145
 C    0.9569903262   -0.5227140019    1.0388748142
 C    2.4450692719   -0.2389500750    1.2966282819
 C    2.5389173699   -1.6535485599    1.9945852012
 O    2.8881291836   -1.7072294615    3.3481154360
 C    1.0483289050   -1.8527618947    1.6689118275
 O    0.3793536097   -0.7689849355    2.3420882690
 H    0.6618186183    2.1110661668    0.1396201572
 H   -0.9097679465    1.8721521619   -0.6359368788
 H   -0.7481620162    1.6782701839    1.1180470471
 H   -0.8678100791   -0.5637836745   -0.0331688514
 H    0.5420846643   -0.1431669412   -1.0048158203
 H    3.0472574166   -0.1790513984    0.3861310721
 H    2.6588396149    0.6190735973    1.9385333542
 H    3.2008873068   -2.3379738572    1.4589191614
 H    2.2040776255   -1.2091590056    3.8146023843
 H    0.4780833044   -2.7630570654    1.5166318020