14

 C   -0.0134961021    1.4527706699    0.0527627939
 N   -0.0369042448    0.0097246704    0.0557692040
 C   -1.1797447846   -0.8213456129    0.0471238838
 C   -0.7202779961   -2.0830110469    0.0494734266
 N   -1.3072536509   -3.3329229299    0.1451713003
 O    0.6507922377   -2.0826337084    0.0448897792
 C    1.0922040087   -0.7583373538    0.0411359279
 O    2.2533396032   -0.4417909717    0.0238481564
 H    1.0330667620    1.7607265650    0.0456236639
 H   -0.5128254261    1.8549803729   -0.8360659854
 H   -0.5019361907    1.8583405956    0.9458748892
 H   -2.1799649121   -0.4274659451    0.0486538344
 H   -2.2934653751   -3.3217738670   -0.0771611686
 H   -0.8233728192   -4.0289465481   -0.4099413457