20

 C   -0.0597191059    1.5507411408   -0.0556893362
 C    0.0406597438    0.0285746257    0.0075588344
 C    0.6877008811   -0.6229043010   -1.2113714874
 O    2.0612559925   -0.2602892069   -1.4104783915
 C    1.7701065796   -1.4960586545   -0.7409175299
 C    1.8131016775   -1.4263577909    0.7750083422
 C    1.9600588405   -2.7233455007    1.5314946824
 C    2.2014457302   -0.1020054704    1.3309348514
 N    0.7769326102   -0.4603662519    1.2039627055
 H    0.9183218188    2.0016619651   -0.2413661681
 H   -0.7319145137    1.8575595272   -0.8631568032
 H   -0.4532089340    1.9438132406    0.8855538587
 H   -0.9723299138   -0.3881791101    0.0933405265
 H    0.1128254889   -0.7982795131   -2.1194238768
 H    2.0914174828   -2.3978113648   -1.2554999271
 H    2.9577589682   -3.1522219957    1.3849386424
 H    1.8098911344   -2.5563345849    2.6005915520
 H    1.2224758555   -3.4635572409    1.2002534876
 H    2.5451678538   -0.0324799743    2.3604580947
 H    2.6374241498    0.6144505307    0.6444598723