16

 O   -0.0528966533    1.3284375887    0.0281165012
 C    0.0357047602   -0.0596457796   -0.0257033192
 C    1.0420979621   -0.7166172786   -0.9582478601
 C    0.3897759712   -2.0710620723   -1.2976755327
 O    0.7226041295   -2.8395970945   -2.1572023798
 C   -0.7738437691   -2.2225355118   -0.3117715458
 N   -0.0770838588   -2.2474465185    1.0444385141
 C   -0.4394261220   -0.8218876663    1.1988189776
 C   -1.2924594339   -0.7883842390   -0.0550874009
 H    0.6948657210    1.6587887616    0.5383071846
 H    1.1552594625   -0.1199725890   -1.8689565738
 H    2.0359343078   -0.8769396998   -0.5285722514
 H   -1.4532988256   -3.0472050264   -0.5134065764
 H   -0.6521710504   -2.8044368577    1.6713202707
 H   -0.5556665259   -0.3405973710    2.1631050452
 H   -2.2415634154   -0.3326113258   -0.3038604334