18

 N    0.5558198248    1.0341665801   -0.6606888842
 C    0.1449729506   -0.1166396935    0.0946070775
 C    0.1158677762    0.0316618487    1.6328760960
 C   -1.1618677720   -0.8426062437    1.6827881732
 O   -2.2025454394   -0.4913428506    2.5429790177
 C   -1.3812671743   -0.5714505026    0.1453961916
 N   -2.2609634341    0.5832045259   -0.0054570256
 C   -1.7451489737   -1.7085115778   -0.6954203191
 N   -2.0201909410   -2.6022146985   -1.3783535182
 H    0.5537339176    0.8595802807   -1.6600645366
 H   -0.0444667386    1.8297507373   -0.4701935037
 H    0.7526302611   -0.9731658443   -0.2075697187
 H    0.9894665168   -0.3090732955    2.1899892316
 H   -0.1073982323    1.0633723283    1.9202937051
 H   -0.9404988787   -1.8962350465    1.8640127177
 H   -2.3911780319    0.4417302707    2.3832574909
 H   -2.2118267027    0.9358804871   -0.9572484693
 H   -3.2240104584    0.2991394542    0.1522748740