17

 C    0.0527337106    1.5618050563    0.0432909548
 C   -0.0215258305    0.0732046744    0.0279861904
 C   -1.1113613484   -0.7257794392   -0.0341400049
 C   -0.7622159687   -2.2074120370   -0.0276560919
 C    0.7730853256   -2.2350987365    0.0509633973
 C    1.2019956446   -0.7633369187    0.0843447111
 O    2.3377888624   -0.3486372497    0.1458565610
 C   -2.4559113752   -0.2973845113   -0.0998662541
 C   -3.6148658202    0.0305482998   -0.1568259263
 H    0.6523051279    1.9218500434   -0.8000879031
 H   -0.9386987324    2.0166209773   -0.0040266051
 H    0.5626265839    1.9083292798    0.9490140864
 H   -1.2411944574   -2.7068524581    0.8214343112
 H   -1.1513179914   -2.6933332811   -0.9289307200
 H    1.1472443837   -2.7416939377    0.9453207419
 H    1.2372775757   -2.7281639510   -0.8080599539
 H   -4.6324481801    0.3309875394   -0.2067434847