21

 O    0.0038479367    1.4259384648   -0.1237736698
 C    0.0053141692    0.0030550192    0.0158738503
 C    0.7814234889   -0.4286904084    1.2710868637
 C   -0.0133298595   -0.1423325901    2.5476332422
 C   -1.2704742146   -1.0204625651    2.6030801041
 O   -2.1306911547   -0.6592023731    3.6807849804
 C   -2.0848112498   -0.9553932055    1.3303690007
 C   -2.4900906422    0.3662006642    0.7425612744
 C   -1.4477355982   -0.4676774004    0.0397892526
 H    0.9216560323    1.7136958047   -0.1713772919
 H    0.4913421031   -0.4466918448   -0.8628204406
 H    0.9971738874   -1.5033700540    1.2012420483
 H    1.7532055009    0.0813602818    1.2899349518
 H    0.5996598605   -0.3366382541    3.4363877948
 H   -0.2997677652    0.9140161659    2.5826629414
 H   -0.9392347678   -2.0662308881    2.7305675050
 H   -1.6286711123   -0.7486402759    4.4978132878
 H   -2.8040885895   -1.7631005094    1.2345524626
 H   -3.4717435366    0.4424892140    0.2889148791
 H   -2.1523084792    1.2747466706    1.2245257143
 H   -1.7708045094   -0.9686631363   -0.8664829110