19

 O   -0.0963745632    1.4998444022   -0.0323960870
 C    0.0368401652    0.0986218031   -0.0127749107
 C    0.3556915134   -0.6004068447    1.3438582909
 C   -0.7716445099   -1.6054542045    1.0142055982
 C   -1.3128231494   -0.6499221676   -0.0646019888
 C   -0.5611543400   -3.1162717700    0.7302034303
 C   -0.4481071295   -3.3814017079    2.2496784788
 C   -1.6426429791   -2.4352231572    1.9830151079
 O   -2.0286798635   -3.2972596156    0.8355198998
 H    0.7826711916    1.8895346516    0.0119943471
 H    0.7179872513   -0.2490587585   -0.8026562906
 H    1.3669557060   -0.9846160444    1.5014849202
 H    0.0834168905    0.0572015542    2.1755617969
 H   -2.1062808220   -0.0045160922    0.3246095981
 H   -1.6327900219   -1.0765117080   -1.0159993344
 H   -0.0537404652   -3.6056737818   -0.1028221247
 H   -0.7229510234   -4.3900073056    2.5599092516
 H    0.4184771980   -2.9872050813    2.7854746559
 H   -2.4371837287   -2.1072651617    2.6549519207