18

 C    0.0103448454    1.4714745734    0.0043101413
 C    0.0072370260    0.0161358445    0.0058403356
 C    0.0057154237   -1.1871231954    0.0225324738
 C   -0.0039595553   -2.6505741741   -0.0191245108
 C   -1.4463213207   -3.2126318681    0.0348263155
 C    0.7117912653   -3.1357279664   -1.3285262859
 O    0.7818583692   -4.5364609322   -1.4183878979
 C    0.7733549906   -3.1955694856    1.1129124481
 N    1.4053576132   -3.6757391350    1.9534414049
 H    1.0185183433    1.8637594550    0.1744902640
 H   -0.3447063775    1.8661652021   -0.9536282454
 H   -0.6402218395    1.8682514738    0.7908852151
 H   -2.0277823345   -2.7736619962   -0.7797139952
 H   -1.4205286161   -4.2969479081   -0.0868623926
 H   -1.9256921096   -2.9614088521    0.9825920191
 H    0.1147232995   -2.7895292329   -2.1765120559
 H    1.6996673317   -2.6609598561   -1.3840633362
 H    1.4062410754   -4.8510290864   -0.7538631375