17

 O    0.0972305361    1.3463041254   -0.2153029149
 C    0.1347298906   -0.0062634270    0.2051277439
 C   -1.2457811766   -0.6232348035    0.1871819692
 N   -1.9464323589   -1.0960751462   -1.0257363253
 C   -0.9379431684   -1.7898634773   -1.9127060119
 C   -0.5817547968   -2.8337417479   -0.8294802113
 C   -1.5467026897   -2.0756631064    0.0923004230
 C   -2.4991192111   -2.7175595777    0.9491957374
 N   -3.2384099059   -3.2606197902    1.6543905447
 H   -0.3036185162    1.3764510797   -1.0906342204
 H    0.8559767247   -0.5923924418   -0.3791107439
 H    0.4969372209    0.0087283442    1.2382403749
 H   -1.9482316869   -0.0738165294    0.8106783935
 H   -1.4593437015   -2.2129652917   -2.7716240718
 H   -0.1354699344   -1.1407487028   -2.2737325382
 H   -0.9469957650   -3.8316554328   -1.0721787655
 H    0.4535667390   -2.9084784844   -0.4897199834