18

 C    0.0428967076    1.6007177441    0.0185035277
 C   -0.0579276940    0.0720486340   -0.0202983971
 C    0.6647227270   -0.5896608014   -1.2307513651
 C    1.7327794344   -1.2245905519   -0.3009121233
 C    1.2173226185   -2.5895078319   -0.8073137366
 C   -0.2311005046   -2.7890853131   -0.6313576915
 N    0.2220245166   -1.9485098411   -1.7595430514
 C    0.9867949122   -0.6137800828    0.9042121267
 O    1.1695068137   -0.5991729094    2.0862297420
 H    1.0648787930    1.9394737560   -0.1829304094
 H   -0.6153577325    2.0507488910   -0.7306511993
 H   -0.2439035998    1.9740105438    1.0055289178
 H   -1.0936276586   -0.2361459821    0.1532862420
 H    0.9225690953    0.0671333979   -2.0599077430
 H    2.8054004520   -1.0568523868   -0.3877401700
 H    1.8802115063   -3.3844744579   -1.1328883056
 H   -0.6403666939   -3.7337052887   -0.9770716883
 H   -0.7667654332   -2.3647456396    0.2116690444