20

 C   -0.1735285435    1.4737942503   -0.0340550461
 C    0.0685722234   -0.0040598628    0.1689203421
 C    1.4156664055   -0.6342894081   -0.0882669835
 C    2.5421032033    0.1710240786   -0.4711086315
 C    3.5066022107    0.8152392915   -0.7915861863
 N    0.8526347447   -0.5546813274    1.2712040029
 C    1.4714657354    0.3105472394    2.2777226069
 C    0.6377671190    0.2033226057    3.5555183241
 O    0.5219907422   -1.1366187526    3.9828775606
 H    0.7476323541    2.0576946473    0.0026615228
 H   -0.6266285019    1.6330984957   -1.0176218117
 H   -0.8678450244    1.8631443242    0.7183190624
 H   -0.7912948735   -0.6266244658   -0.0758187315
 H    1.4391172054   -1.6463409212   -0.4885089217
 H    4.3577428679    1.3826444736   -1.0771835057
 H    2.4776102108   -0.0767246592    2.4686753059
 H    1.5706287518    1.3596835700    1.9709999874
 H    1.1200436133    0.7673377463    4.3614528315
 H   -0.3534951491    0.6579187941    3.3831454608
 H    0.3558894448   -1.6405415898    3.1744363808