14

 O   -0.0867054376    1.3881064774    0.0503633735
 C   -0.0488203723    0.0134659951    0.0374714683
 C    1.0210146004   -0.5654555658   -0.7930700636
 O    1.7567923786    0.1398480099   -1.4492173259
 C   -0.4699488877   -0.7390341482    1.2875194351
 O   -1.1864674338    0.0494703833    2.2137256138
 C   -2.3325780355    0.4050932370    1.5726226549
 N   -2.5432682066   -0.0526048631    0.4040342027
 C   -1.3714100461   -0.8112228086    0.0702469573
 H    0.5487760709    1.6602585167   -0.6312474805
 H    1.1025714501   -1.6711089920   -0.8031756220
 H    0.1234528899   -1.5183433370    1.7491464487
 H   -2.9846840851    1.0597840490    2.1350066761
 H   -1.4904998851   -1.6638277036   -0.5867193883