15

 O   -0.1554334952    0.0237980899   -0.2009587677
 C   -0.1235570128    1.2053112003   -0.0324765008
 C   -1.1614862708    2.3259156205   -0.0204397835
 O   -0.8270977583    3.1238325968    1.1371349140
 C   -0.0510325874    3.3160108843   -0.0394870778
 C    1.0380556354    2.2407162000    0.0098017287
 C    2.1797909826    2.2571456734    1.0391579090
 O    3.1790864164    2.2263014202   -0.0018676584
 C    2.1754735237    2.1247662690   -1.0278024123
 H   -2.1783943058    2.3747281970   -0.3898052775
 H   -0.0336901317    4.2980810571   -0.4966397577
 H    2.2415528172    3.1607547063    1.6563335446
 H    2.2301413855    1.3706318035    1.6825646153
 H    2.2110906780    1.1608885321   -1.5500846538
 H    2.2383880432    2.9407434498   -1.7587215919