21

 C    0.1114117558    1.3564918793   -0.2202168061
 N   -0.0887911274    0.0013927784    0.2572095882
 C   -1.2812591223   -0.6506838872    0.0069568862
 O   -2.2682378852   -0.0897451817   -0.4410575206
 N   -1.2549386571   -1.9967955673    0.3094981864
 C   -2.4864589732   -2.7631503191    0.3320711150
 C   -2.1890738352   -4.2335692278    0.0990462779
 O   -1.3213608408   -4.6683307720    1.1303298931
 C   -0.9258733949   -6.0123071401    0.9912424233
 H    0.7402381632    1.9147454028    0.4800055431
 H    0.5750063614    1.3939644661   -1.2155887743
 H   -0.8678347327    1.8313709434   -0.2832644003
 H    0.7345141050   -0.5699118169    0.3625068273
 H   -0.5337808403   -2.3434267037    0.9233619733
 H   -3.0189748354   -2.6513527621    1.2880959051
 H   -3.1370306487   -2.3734299356   -0.4530856422
 H   -3.1252836037   -4.8152208132    0.1099856612
 H   -1.7120530308   -4.3746485838   -0.8844813511
 H   -0.3859068405   -6.1836743604    0.0467061183
 H   -0.2619673283   -6.2479699895    1.8266314906
 H   -1.7890811787   -6.6953468398    1.0205382756