21

 C   -0.1309807938    1.4059744196    0.2509842656
 C    0.2294719513   -0.0811483920    0.1262889027
 C    0.7589137746   -0.5009132624   -1.2409102928
 C    2.0372366236    0.1881350951   -1.6817843484
 C    0.5145358008   -1.9056624843   -1.6888326538
 N   -0.1490605205   -0.7928085773   -2.3684133962
 C   -1.5919150520   -0.6741165054   -2.2138630436
 C   -2.2772759514   -1.4909134185   -3.2239285875
 N   -2.8291623650   -2.1401696646   -4.0034415383
 H    0.7396386290    2.0483383456    0.0924470792
 H   -0.8951546766    1.7000259903   -0.4758418285
 H   -0.5223257032    1.6222927492    1.2494075689
 H    1.0022977989   -0.3273781747    0.8654611260
 H   -0.6366589076   -0.6925460489    0.3990560914
 H    2.8341574044    0.0295720638   -0.9465079805
 H    2.3674724371   -0.2054503238   -2.6453668835
 H    1.8914697279    1.2667821040   -1.7952068109
 H    1.2532513274   -2.4430188452   -2.2776191804
 H   -0.0918917256   -2.5376378865   -1.0404722569
 H   -1.9813965096   -0.9774610618   -1.2288740037
 H   -1.8816165196    0.3720045379   -2.3664218088