23

 C   -0.0040055889    1.5685418978    0.0174485988
 C    0.0413646048    0.0388641253    0.0184726383
 C    0.6840090532   -0.5138360550   -1.2688493707
 C    1.0627510492   -1.9680890535   -1.1583526837
 C    1.0391428349   -2.6525286011   -0.0132983743
 C    0.6486233001   -2.0484612097    1.3194811520
 C    1.4496571348   -2.6535218711    2.4808725665
 C    0.7819000379   -0.5130203114    1.2527414832
 O    2.1472850878   -0.0983397768    1.2695037992
 H    1.0093041489    1.9764455627    0.0793638946
 H   -0.4756866921    1.9519227776   -0.8936589931
 H   -0.5713806980    1.9489568039    0.8736121896
 H   -0.9867541043   -0.3455083992    0.0708493448
 H   -0.0006611016   -0.3714261730   -2.1148192620
 H    1.5750488411    0.0799242786   -1.5250434011
 H    1.3713911701   -2.4653113551   -2.0755857160
 H    1.3196471345   -3.7041101506   -0.0096593835
 H   -0.4140420769   -2.2715385604    1.5009493717
 H    2.5142588701   -2.4247520097    2.3856233679
 H    1.1087438489   -2.2507111972    3.4400466332
 H    1.3315889725   -3.7416483757    2.5096719165
 H    0.3491976423   -0.0752236147    2.1603292548
 H    2.6072242808   -0.6070981317    0.5915235534