20

 C   -0.1159564659    1.6197734518   -0.0007326145
 C    0.0513577510    0.1091415905    0.0107319346
 O   -1.2217832394   -0.5316179873   -0.0720466970
 C    1.0861430548   -0.6255496663   -0.9023811740
 C    2.4364053669    0.0848113219   -0.9142491913
 O    2.7187053551    0.6938716274    0.3433518801
 C    2.1318059720    0.0656738665    1.4812196844
 C    0.8310356811   -0.6444636531    1.1232570454
 N    1.2088291935   -1.7163768348    0.1308985399
 H    0.8395541826    2.1329148817    0.1139149423
 H   -0.5671555605    1.9448541893   -0.9475255202
 H   -0.7890517100    1.9253661280    0.8066869479
 H   -1.6612298562   -0.2079444371   -0.8659406057
 H    0.7774354369   -0.9387018858   -1.9046958055
 H    3.2114062136   -0.6510372012   -1.1729252349
 H    2.4592791289    0.8933391130   -1.6540218089
 H    2.8192646494   -0.6749414698    1.9141603498
 H    1.9659346194    0.8626583864    2.2148930173
 H    0.2771781650   -0.9731434832    2.0061468282
 H    0.3894007521   -2.3109237979    0.0250685422