19

 C    0.0431111813    1.5261996530    0.0784423583
 C   -0.0363939414    0.0005545818   -0.0221023010
 C    0.6712721100   -0.5513484182   -1.2521391246
 O    2.0673249322   -0.1786308552   -1.2246540233
 C    2.8101089366   -1.2779678882   -1.6846925317
 C    2.6498051720   -2.5963113746   -0.9429546565
 O    1.4549961759   -2.5563799705   -0.1639600615
 C    0.7294097617   -2.0746796901   -1.3429700894
 C    1.9424975781   -2.3621311708   -2.2567642426
 H    1.0846344436    1.8542551065    0.1246070584
 H   -0.4227926838    2.0077576622   -0.7889049264
 H   -0.4701042238    1.8860275207    0.9752147337
 H    0.4099895027   -0.4683245057    0.8597093324
 H   -1.0862886508   -0.3183474570   -0.0640941863
 H    0.2109815504   -0.1463105985   -2.1707024902
 H    3.7649468116   -1.0165998151   -2.1251047743
 H    3.4415683433   -3.2707496950   -0.6371915789
 H   -0.2168436507   -2.5961269682   -1.4914857923
 H    1.9741275409   -2.8287122869   -3.2314108536