22

 C   -0.1132454211    1.4700852770    0.0339597411
 C    0.1143259916   -0.0100630984   -0.0338296085
 C    0.0489363726   -0.8599993456   -1.2932912969
 C   -0.2125219889   -2.0272381322   -0.3207180986
 C   -1.0780720616   -3.1974379144   -0.6863176986
 C    1.1084079525   -2.1908567577    0.4571495945
 C    0.7673554793   -0.8303755367    1.0451075355
 C    1.2838664206   -0.2849225105    2.3423833856
 N   -0.7075368392   -0.9992663051    0.7604610859
 H    0.7397284389    2.0156257535   -0.3866212697
 H   -1.0054319845    1.7474560700   -0.5376492145
 H   -0.2596078375    1.8112889330    1.0618482802
 H   -0.8456457769   -0.6149103776   -1.8751513407
 H    0.9179090282   -0.9172798929   -1.9590029610
 H   -0.5882786096   -3.8142229260   -1.4493976528
 H   -1.2735699436   -3.8280504549    0.1869704501
 H   -2.0410363604   -2.8630565262   -1.0855769493
 H    1.0291992988   -2.9699738741    1.2224014710
 H    2.0372571887   -2.3233773894   -0.1096332087
 H    2.3352158890    0.0120045278    2.2498461425
 H    0.7135377400    0.5873932608    2.6713082784
 H    1.2158489831   -1.0420585305    3.1309174148