15

 O    0.6461818837    0.2251832179   -0.7224880261
 C   -0.1791059603    0.2648573755    0.4267242356
 C   -1.4854134085   -0.4440737156    0.1978811557
 O   -2.4176789468   -0.4614276831    1.3103339667
 C   -2.6990114608   -1.8026874395    1.0698241545
 O   -3.3707060486   -2.5247831189    1.7285308355
 C   -1.8408073239   -1.8851577789   -0.1637988135
 C   -2.2060877719   -0.6937067989   -1.0709116576
 O   -3.4976454840   -0.2300784196   -1.2496798167
 H    0.3456777305    0.9084471197   -1.3296891735
 H    0.3679587444   -0.2317462519    1.2344931285
 H   -0.3869080271    1.2927815479    0.7571477844
 H   -1.2493744726   -2.7270476844   -0.4937794209
 H   -1.5594171344   -0.6648245641   -1.9500864916
 H   -3.9808133395   -0.8663741161   -1.7882209808