21

 C    0.1057323666    1.5623714019   -0.0575610298
 C    0.0327483423    0.0342494592    0.0266021309
 C   -1.3915992073   -0.5402945457   -0.0003382267
 C   -1.4021644428   -2.0706430956   -0.0325423354
 C   -2.8320277878   -2.5763384898   -0.1363671381
 O   -3.7086443273   -2.0639552514    0.8813038484
 C   -3.5569673317   -0.8254585552    1.4107711674
 O   -4.4404642307   -0.3706985812    2.0854819661
 C   -2.2329734490   -0.0975915671    1.2045970420
 H    1.1457635750    1.9001772633   -0.0925295445
 H   -0.3939091582    1.9333182966   -0.9594773103
 H   -0.3651371505    2.0437545192    0.8049879554
 H    0.5942698085   -0.3984899652   -0.8112690801
 H    0.5373845209   -0.3095266852    0.9402438332
 H   -1.8839794437   -0.1819856621   -0.9173676202
 H   -0.8337741634   -2.4537536307   -0.8877430906
 H   -0.9287609411   -2.4673481161    0.8751830411
 H   -3.2583098781   -2.3073394496   -1.1121421370
 H   -2.8856767584   -3.6635935158   -0.0376283105
 H   -1.6601132918   -0.2700952713    2.1274993252
 H   -2.4683503416    0.9682300218    1.1887816734