11

 C    0.0338686985   -1.1722308584   -0.0189049690
 C    0.0043278429    0.0277323350    0.0180079796
 C   -0.0467996508    1.4700994006    0.0649792252
 C    0.5443059495    2.1821751766    1.2302096468
 O    1.2309813827    2.1443216455   -0.0073996239
 C   -1.1232786736    2.0907781476   -0.6706809371
 C   -2.0264681638    2.5986402328   -1.2777014658
 H    0.0635407101   -2.2334194711   -0.0573220031
 H    0.1240535502    3.1456703177    1.5128694341
 H    0.9758191395    1.5872417024    2.0331303373
 H   -2.8214351951    3.0476245614   -1.8207658441