18

 C    0.1145628802    1.5596493066    0.0393044634
 C    0.0121300394    0.0290729381    0.0099349678
 C    0.6019838923   -0.5469173055   -1.2982166056
 C    0.7902295011   -2.0407232337   -1.2660194765
 C    1.0714010069   -2.6935286046   -0.1371349755
 C    1.1862167517   -1.9663026261    1.1503654471
 O    2.0685605257   -0.8147137265    1.1861531878
 C    0.6606636385   -0.5932273285    1.2311923878
 H    1.1636960533    1.8737292827    0.0435610961
 H   -0.3686601584    2.0038789686   -0.8368650856
 H   -0.3642622157    1.9744886110    0.9324155456
 H   -1.0504863626   -0.2519453685    0.0577456683
 H   -0.0389048650   -0.2606710226   -2.1393023409
 H    1.5747427817   -0.0706660991   -1.4808632754
 H    0.7222777461   -2.5808646203   -2.2063956616
 H    1.2195697142   -3.7688508868   -0.1279550840
 H    1.2298477330   -2.5659097283    2.0573607884
 H    0.2915122077   -0.2331901864    2.1938591628