12

 C    0.0922912124    1.2837539950    0.0087277792
 N    1.3490712549    1.7537889536   -0.0009041822
 N    2.0580035768    0.6246311355   -0.0143250259
 N    3.3895955486    0.5794028139   -0.0276515880
 C    3.8599413663   -0.6488504287   -0.0392879944
 N    3.1622549298   -1.8153090715   -0.0390898283
 C    1.8513709468   -1.7299703019   -0.0257298365
 C    1.2114951968   -0.4759946038   -0.0122987779
 N   -0.0518958839   -0.0558959482    0.0024846238
 H   -0.7459835788    1.9647427928    0.0208473765
 H    4.9412630893   -0.7245593716   -0.0503156728
 H    1.2631623509   -2.6434747451   -0.0251809536