13

 N    0.0287175817    1.3367034584   -0.1323873575
 C   -0.0073469997   -0.0348627150   -0.0281536920
 N   -1.1061307151   -0.7488435666    0.0133535644
 N   -0.6147221673   -2.0463366468   -0.0065167893
 C   -1.0129871387   -3.3554154424    0.0064789784
 N    0.0553595901   -4.1237423336   -0.0131959218
 N    1.2015087587   -3.3301597785   -0.0333678753
 C    0.7400680798   -2.1076291570   -0.0296050655
 N    1.1541092238   -0.7861661462   -0.0207396768
 H    0.6868195346    1.7912290967    0.4872918978
 H   -0.8956516280    1.7402467460   -0.0545328609
 H   -2.0385397625   -3.6812743313    0.0312091346
 H    2.0725896627   -0.4557800937   -0.2601157462