17

 N    0.0085612152    0.9985233868   -0.1439163494
 C   -0.1115161997   -0.3677305002   -0.0408509791
 O    0.7533155168   -1.1426056952   -0.3995832057
 N   -1.3159394079   -0.7678972899    0.5535363524
 C   -2.6346261380   -0.4498496811    0.0250641737
 C   -2.1374446914   -1.8648845644    0.0766708335
 C   -1.8318038822   -2.6275737931   -1.2007644075
 C   -0.8777814815   -3.7920034689   -0.9640618219
 O   -1.1685092805   -4.9398152388   -1.1888085656
 H    0.9459926435    1.3272542209   -0.3137956674
 H   -0.5660995124    1.5772277596    0.4475017377
 H   -3.3686132655   -0.0961959167    0.7446578540
 H   -2.6820516184    0.0222069628   -0.9538695309
 H   -2.5168547250   -2.4893946398    0.8843443718
 H   -2.7607372802   -3.0323452919   -1.6148482108
 H   -1.3778496960   -1.9547221695   -1.9372176142
 H    0.1106494633   -3.4973768406   -0.5627153404