14

 C    0.0006427795    1.4851990022    0.0942306709
 C    1.2966092046    0.7375339828    0.0348429062
 O    1.9883173263    0.4277468114    1.2429190829
 C    1.1464573826   -0.4057122323    1.9135683477
 C    0.0102305389   -0.7471665074    1.2320038407
 N   -0.6164750517   -1.5754166522    2.0941271086
 N    0.1154223927   -1.7275041512    3.2305563865
 N    1.2020031427   -0.9886777278    3.1190018689
 C   -0.0412670018   -0.0355783861   -0.0545856972
 H   -0.3207296334    1.9148358153    1.0361546496
 H   -0.2466510950    2.0681138384   -0.7864915467
 H    1.9759273814    0.8618911835   -0.7982476309
 H   -1.4855379820   -2.0772172109    2.0125304416
 H   -0.4007630349   -0.4916436659   -0.9690409488