19

 C   -0.1654925740    1.4645476997   -0.2420466703
 C   -0.1289457161    0.0041258371    0.1262569323
 O    1.1085234432   -0.7109713111   -0.0175402841
 C    0.5605376077   -0.5759066340    1.2903100020
 C    1.3565283761    0.1692524309    2.3621616634
 C    2.1124441571   -0.8596225750    3.2507736937
 O    2.8033523662   -0.2533520782    4.3152675385
 C    2.3257396950    1.1406707988    1.8626228812
 C    3.2022723997    1.9043278873    1.5518474108
 H    0.6898853313    2.0092703275    0.1564711526
 H   -0.1693724434    1.5738405079   -1.3317256704
 H   -1.0861124567    1.9198894750    0.1398242374
 H   -0.9873945211   -0.5656210311   -0.2384304504
 H    0.1351949273   -1.5025714169    1.6859559881
 H    0.6424299650    0.6883325900    3.0172741903
 H    1.3815333974   -1.5381214962    3.7020944518
 H    2.7779917077   -1.4550097834    2.6071798423
 H    3.4191992809    0.3812566630    3.9285054729
 H    3.9466613168    2.5919415685    1.2330840378