15

 C   -0.0143073029    1.4820228137    0.0514646911
 C   -0.0003567494   -0.0063500122   -0.0402838476
 N   -0.0381842945   -0.7088828500   -1.1443632563
 C   -0.0055414393   -2.0303329566   -0.7258772187
 C    0.0527829063   -2.0923563641    0.6558089669
 N    0.0833176230   -3.3878853592    1.0285413992
 N    0.0461218516   -4.1982880960   -0.0817921368
 C   -0.0070682661   -3.3865125181   -1.1345343333
 N    0.0567216146   -0.8031214496    1.1150003147
 H    0.8840718371    1.8689490481    0.5468172653
 H   -0.0549323657    1.8893815720   -0.9590817648
 H   -0.8841664302    1.8484653564    0.6094104890
 H    0.1257811128   -3.8139572441    1.9361248974
 H   -0.0435388910   -3.8127997456   -2.1256496479
 H    0.0934655837   -0.4709744646    2.0627013017