13

 N    0.0391369116    1.3452227509    0.1447117042
 C   -0.0646514802   -0.0156009830    0.0567436793
 C   -1.2315801167   -0.7173096342    0.0373464139
 C   -1.1926512868   -2.1520232812   -0.0001991375
 N   -2.2231273033   -2.9135014594   -0.0182364219
 N    0.1450474252   -2.6170184962   -0.0170416380
 N    1.2676918880   -1.8938067876   -0.0124205599
 N    1.1961921392   -0.6302677329    0.0253238001
 H    0.9401848219    1.7248270877   -0.0997630413
 H   -0.7604056831    1.9029886512   -0.1043854663
 H   -2.2019673130   -0.2376747071    0.0546415669
 H   -1.9685056095   -3.9013007394   -0.0456098824
 H    0.3220788667   -3.6112541087   -0.0498464271