21

 N   -0.0315653793    1.3127606804   -0.0517064044
 C   -0.0542981447   -0.0689150462   -0.2378265782
 O    0.7487854890   -0.6442460956   -0.9488097941
 N   -1.0434267317   -0.7058401035    0.4755275325
 C   -1.1326825823   -2.1553642224    0.5252666899
 C   -2.5066709478   -2.6776142881    0.0925962141
 C   -2.5997701610   -4.2034286266    0.1731001617
 C   -3.9561233773   -4.7390526876   -0.2653831287
 O   -3.9328278747   -6.1520171775   -0.1318691203
 H    0.5402171947    1.7733179846   -0.7440279531
 H   -0.9165731529    1.7722073789    0.1064972046
 H   -1.5088779478   -0.1846455504    1.2009509721
 H   -0.3510506590   -2.5289392799   -0.1402655878
 H   -0.9000013568   -2.5152558190    1.5375099710
 H   -3.2845651786   -2.2255695681    0.7242947001
 H   -2.7039321559   -2.3367832660   -0.9313777094
 H   -1.8256205531   -4.6625246114   -0.4536714949
 H   -2.4100500587   -4.5422507291    1.1993118636
 H   -4.7507283530   -4.2931239914    0.3562017448
 H   -4.1539577553   -4.4394534619   -1.3077394733
 H   -4.7808157241   -6.4965197991   -0.4262403201