19

 C    0.4705545454    1.3592530481   -0.9576766875
 C    0.0310286585    0.1039090214   -0.2320497205
 N    1.0168841749   -0.9887562785   -0.2557401933
 C    0.7383869255   -0.3058959894    1.0281397866
 C    1.8033210901    0.4859237411    1.5961303917
 N    2.6317336630    1.1347174717    2.0753983027
 C   -1.4280305200   -0.2204019772   -0.3986055367
 C   -2.2175642188   -1.1190345188    0.5209382323
 C   -2.4815472327    0.3658047278    0.5086561259
 H    1.5402884507    1.5337996027   -0.8308332576
 H    0.2653104808    1.2602604144   -2.0287593317
 H   -0.0762315649    2.2309559495   -0.5854159937
 H    0.5381417810   -1.8878696639   -0.2439825636
 H    0.1687861615   -0.8446813670    1.7788054262
 H   -1.7060790818   -0.2835098825   -1.4485399843
 H   -2.9482095647   -1.7772932691    0.0646194640
 H   -1.7440219976   -1.5419189480    1.4001181960
 H   -2.1391040916    0.9376871693    1.3645408868
 H   -3.4026299492    0.7291897884    0.0675478666