18

 O   -0.0492596750    1.4385487518    0.0833062240
 C   -0.0160274161    0.0454636219    0.0350631303
 C   -1.3014383968   -0.7575842614    0.0248595137
 C   -2.6248228151    0.0022971730   -0.0033004100
 C   -3.2389104173    0.1253302094   -1.4121862960
 C   -2.2105174776    0.4508020398   -2.4690694805
 C   -0.9366206309    0.0560059049   -2.3808650435
 C   -0.4213652189   -0.7061224424   -1.2168035946
 H   -0.4065516127    1.7542818519   -0.7566206927
 H    0.8228493472   -0.3387872981    0.6071634583
 H   -1.2933793690   -1.6881481978    0.5831553551
 H   -3.3400029459   -0.4807163100    0.6688895490
 H   -2.4549535405    1.0100544720    0.3933585838
 H   -3.7388100506   -0.8143000834   -1.6906328038
 H   -4.0264582933    0.8873541263   -1.4075477526
 H   -2.5476627717    0.9933657181   -3.3488979240
 H   -0.2350869528    0.2874832647   -3.1794206717
 H    0.1697901969   -1.5854166407   -1.4586399848