19

 C   -0.1410101796    1.5493216931    0.0267341709
 C   -0.0093001975    0.0319895245    0.0268582704
 C    1.0927217901   -0.6001221286   -0.8854401025
 C    2.1194998177   -0.2691284163    0.2508051721
 C    0.8599935691   -0.5991809283    1.1456202842
 O    0.6897098760   -0.1476432124    2.4498244746
 C    0.7477182236   -2.1202962269    0.8350834046
 O   -0.3309286440   -2.5185195711   -0.0242886231
 C    0.9165502885   -2.1148465785   -0.6148024307
 H    0.8128857484    2.0784701335    0.0920346460
 H   -0.6432368993    1.8813748651   -0.8881887190
 H   -0.7517962133    1.8688428929    0.8766917190
 H   -0.9944631070   -0.4218012190   -0.0785432959
 H    1.2417830656   -0.2736640132   -1.9133220033
 H    2.9938612203   -0.9218072534    0.3414653306
 H    2.4264006126    0.7756891165    0.2960900117
 H    1.2859681514   -0.6314952090    3.0312536723
 H    1.1249880645   -2.8735163638    1.5215320279
 H    1.4392723429   -2.8713460351   -1.1906321399