17

 C   -0.0914564271    1.4933854317    0.0726622331
 C   -0.0277195762   -0.0208101275    0.0168798848
 O    0.6890443606   -0.4656202200    1.1775713411
 C    0.8320896126   -1.7984514419    1.3023028880
 C    1.4292143188   -2.4356625515    2.3745488273
 N    1.9779379979   -1.9939133743    3.5854844345
 N    1.3085540227   -3.7467138548    2.0396119964
 N    0.7076505708   -3.9167267531    0.8508307738
 N    0.4048435066   -2.7180048776    0.4076725847
 H    0.9134507577    1.9253904009    0.0734335682
 H   -0.6310500500    1.8755534090   -0.7987966806
 H   -0.6111241308    1.8284918425    0.9749692180
 H   -1.0281266588   -0.4694010617    0.0142906884
 H    0.4878924240   -0.3722159327   -0.8843287921
 H    2.9939866856   -1.9919065840    3.5770215607
 H    1.6704417393   -1.0469941263    3.7768163559
 H    1.6009314963   -4.5491250887    2.5745592480