17

 N   -0.0116369659   -0.6396300104   -1.2052579050
 C   -0.0112971132    0.3078904795   -0.5446547331
 C    0.0038058666    1.5034992740    0.2988242924
 C    1.3951036670    2.1087494335    0.4044230266
 O    1.8862698592    2.8519385022   -0.7134388159
 C    1.6296159842    3.5589020458    0.5060847946
 C    0.5315616341    4.5809087414    0.4615750151
 C    0.6198958377    5.7083877960   -0.4994970451
 N   -0.3704893764    4.6344507592   -0.6969307672
 H   -0.7122579303    2.2322421585   -0.0894137370
 H   -0.3356094571    1.2226086740    1.3034585865
 H    2.1370228864    1.4399040435    0.8409358758
 H    2.5299931455    3.8733642934    1.0369489719
 H    0.0453472694    4.7561628155    1.4197972291
 H    0.2070417505    6.6775422614   -0.2365095963
 H    1.4785083652    5.7372575610   -1.1649232987
 H   -0.0009987829    4.0003851515   -1.4047758836