19

 C    0.0396215299    1.4400565940   -0.0163925881
 N    0.0076281181   -0.0060131310    0.0920816709
 C   -1.2202989419   -0.6794773139    0.0546328469
 C   -2.4607674763   -0.0423711502    0.1042932302
 C   -3.6451324281   -0.7814571737    0.0740609270
 C   -3.6009591587   -2.1656930075   -0.0184054515
 C   -2.3655621088   -2.8145023078   -0.0502421523
 C   -1.1781658498   -2.0929094784   -0.0063469779
 N    0.0911599566   -2.7070994839   -0.0723093038
 H    1.0814971477    1.7687416433   -0.0384590678
 H   -0.4675751447    1.8294312901   -0.9138311997
 H   -0.4340458797    1.8948962899    0.8598104656
 H    0.6922201841   -0.4634307618   -0.4976680106
 H   -2.5082444876    1.0386816348    0.1558707942
 H   -4.5977565100   -0.2639852424    0.1110805906
 H   -4.5159745217   -2.7468534114   -0.0499725635
 H   -2.3197838757   -3.8993393102   -0.0994219150
 H    0.0390035157   -3.7139748706    0.0138718704
 H    0.7256597208   -2.3391857494    0.6296192444