20

 C    0.2420481315    1.5309820236    0.2230205058
 C   -0.0876654574    0.0560184682   -0.0467318015
 C    0.5422103531   -0.4624150330   -1.2961959008
 C    0.9233245577   -1.7974954458   -1.8139805700
 C    0.3426114745   -1.5243805421   -3.1981270512
 C    0.5014453351   -0.0238584507   -2.8199704022
 O   -0.3397445131    0.9616748156   -3.3123161191
 C    2.0286308664    0.1277824470   -2.6974760829
 N    1.9902711327   -0.7675882915   -1.4942460039
 H    1.3214194867    1.6707211491    0.3372670115
 H   -0.0983429608    2.1631796132   -0.6027158893
 H   -0.2437375444    1.8783840411    1.1397208745
 H    0.2526668529   -0.5664237665    0.7898037746
 H   -1.1752127662   -0.0760559834   -0.1141720144
 H    1.0075465845   -2.7404363445   -1.2889412845
 H    0.8735901490   -1.8902282327   -4.0847310355
 H   -0.7117142413   -1.8100489470   -3.2409123297
 H   -0.3141580531    0.9428589790   -4.2756278270
 H    2.6630436637   -0.2176667845   -3.5234091087
 H    2.3331279085    1.1275645349   -2.3787032858