19

 C   -0.0478247168    1.5701299833   -0.0904203457
 C    0.0319759398    0.0541808159   -0.0054918337
 C    1.0790736333   -0.6528833460   -0.8949537139
 O    2.3783002986   -0.2092290586   -0.4844933844
 C    1.7442215532   -1.2556067785    0.2707112144
 C    0.7576227967   -0.5968893841    1.2099402364
 C    0.9748427678   -0.0430785507    2.5926882239
 C    0.0637457714   -1.2299751278    2.3682403264
 O   -1.3239431676   -1.0633983640    2.4165842456
 H    0.9506065231    2.0090138746   -0.0153352601
 H   -0.4948245001    1.8862494536   -1.0393383885
 H   -0.6666693042    1.9743800312    0.7173297298
 H   -0.9548951023   -0.4031112311   -0.1266613302
 H    0.9765677487   -1.0130985855   -1.9123015940
 H    2.2850602857   -2.1888023614    0.3810681630
 H    1.9307476930   -0.2002327902    3.0824014955
 H    0.4948684460    0.9043299539    2.8185039171
 H    0.4197211932   -2.2070555056    2.6991229285
 H   -1.5809482395   -0.9629058493    3.3391792298