14

 C   -0.0369775134    1.4126379470   -0.0475641403
 N    0.0154575074   -0.0297289795    0.0449296701
 N   -0.0233829718   -0.7914018685   -1.0588246715
 N    0.0446683914   -2.0464255661   -0.6694695625
 C    0.1006507720   -2.0785800356    0.6750879886
 O    0.1860901391   -3.2210626779    1.3933678091
 C    0.0802886024   -0.7921993695    1.1745139697
 N    0.1918634728   -0.2389935487    2.4586050617
 H    0.6551613977    1.8444977750    0.6783348347
 H    0.2525233052    1.6880280359   -1.0614863717
 H   -1.0455149410    1.7883720381    0.1542894878
 H    0.2276971059   -3.9453353444    0.7565946883
 H    0.6320391673   -0.9004842806    3.0880399447
 H   -0.7077553351    0.0140475849    2.8574787512