21

 C    0.0372556857    1.5518143982   -0.0632559895
 C    0.0138255309    0.0431959380    0.0226580116
 C    0.9687566404   -0.8368511809   -0.9148220022
 C    0.6065078542   -1.8764770298    0.1612641446
 C    0.6627207442   -0.7345697788    1.2031083498
 O    0.8319264020   -3.2450674178    0.5317121844
 C   -0.6025827742   -3.3374170354    0.8465883426
 C   -0.8678564172   -2.1196039821   -0.0817376894
 C   -1.3914189523   -0.6663778787    0.0102305227
 H    1.0563571746    1.9432133005    0.0187127071
 H   -0.3804604203    1.9018643467   -1.0142030245
 H   -0.5579900214    1.9975458382    0.7422489587
 H    0.6615770564   -1.0433844948   -1.9435501770
 H    1.9869566167   -0.4412442025   -0.8832636563
 H    1.6868157751   -0.4183583610    1.4150703421
 H    0.0910550486   -0.8289671894    2.1303862481
 H   -1.0157665744   -4.3014666468    0.5401929530
 H   -0.7796689013   -3.1737235096    1.9161071192
 H   -1.0201465938   -2.5176639986   -1.0888234640
 H   -1.9472179100   -0.4148578518    0.9189596435
 H   -2.0131441139   -0.3954826834   -0.8481741145