15

 O    0.0126100753   -0.0313420025    0.0406905844
 C   -0.0046447488    1.1729500659    0.0428325367
 C   -1.1932995894    2.1658769988   -0.0241194038
 N   -0.6374880572    3.5305287662   -0.0497354731
 C    0.6139874012    3.3396916100    0.0157403087
 O    1.6331445308    4.2093227924   -0.0046620131
 C    2.8593234781    3.4774336003    0.2387040261
 C    2.5236962578    1.9692631594    0.0478875558
 N    1.0826678111    2.0335150550    0.1070632164
 H   -1.7930904545    1.9635874664   -0.9183319566
 H   -1.8492747240    2.0199789462    0.8415124585
 H    3.6105449233    3.8410533978   -0.4634370236
 H    3.1870842095    3.6910608078    1.2603486482
 H    2.8707479997    1.5832845235   -0.9168017903
 H    2.9447368472    1.3488657430    0.8425327956