23

 C   -0.1485772745    1.5677873754   -0.0838975817
 C   -0.0433457739    0.0404501619   -0.0709185717
 C    0.7402868322   -0.5192648447   -1.2651793397
 C    0.8286685932   -2.0414777060   -1.2607039220
 C   -0.4587738946   -2.8686660847   -1.6047135480
 C    0.3207002254   -3.5969856489   -2.7212127356
 O    0.1788863725   -2.9558684843   -4.0069672289
 C    1.4170559167   -2.2276070185   -3.8301252481
 C    1.6009608952   -2.7731549380   -2.4044226697
 H    0.8434159018    2.0327518155   -0.0621620741
 H   -0.6583513363    1.9218795467   -0.9868502147
 H   -0.7085454232    1.9377663988    0.7806892771
 H    0.4369670918   -0.2871188715    0.8607873363
 H   -1.0505203847   -0.3960949472   -0.0616568918
 H    0.2654087377   -0.1765191643   -2.1939335564
 H    1.7546413356   -0.0950417665   -1.2641976903
 H    1.2347236911   -2.3661494980   -0.2961170514
 H   -0.8099651705   -3.5132896378   -0.7945530544
 H   -1.3032156068   -2.2918414502   -1.9916405959
 H    0.2612457825   -4.6867243037   -2.7899501929
 H    2.1824465849   -2.5712127530   -4.5385800993
 H    1.2882043600   -1.1456268876   -3.9511889250
 H    2.5720868342   -3.2008005632   -2.1565419119