14

 C    0.0567418660    1.5061606260   -0.1303818636
 C    0.0016376278    0.0177552612    0.1783280989
 O   -0.0797991925   -0.4369789367    1.2912201146
 N    0.0553553731   -0.7681210965   -0.9720960649
 C    0.0270283444   -2.1448825119   -1.0625338526
 N    0.0907496550   -2.7388990862   -2.2538118816
 N    0.0339683195   -4.0158066555   -1.8849979854
 N   -0.0569359308   -4.2153033219   -0.5853438938
 N   -0.0633683978   -3.0262138483   -0.0328617053
 H    0.9804612739    1.7637375788   -0.6593919384
 H   -0.7861907130    1.8070742354   -0.7615749707
 H    0.0156484901    2.0540767715    0.8098081924
 H    0.1240100030   -0.3010364148   -1.8631883669
 H    0.0586420513   -4.7751417809   -2.5485569028