22

 C   -0.1409124356    1.5526353661    0.0709408609
 C   -0.0061821276    0.0252274517   -0.0110000657
 C    0.8014529490   -0.4610557074   -1.1996644600
 C    1.8198521403   -1.2589550318   -0.8617968491
 C    2.8217786995   -1.9094817863   -1.7612380454
 C    1.8675495626   -1.3941358353    0.6291817915
 N    2.1298616363   -0.0843469025    1.3040869310
 C    0.7433074550   -0.5954033757    1.1824016672
 C   -0.0249296213   -0.9624898179    2.4248418208
 H    0.8456393539    2.0091508070    0.1814095687
 H   -0.6144063126    1.9548323538   -0.8306049980
 H   -0.7568630469    1.8477440307    0.9277386945
 H   -1.0186112104   -0.4062026601   -0.0516703309
 H    0.5739864794   -0.1449509894   -2.2133308468
 H    2.6125263211   -1.7001872364   -2.8138259596
 H    3.8375830792   -1.5594441228   -1.5379936415
 H    2.8300352330   -2.9990806488   -1.6281907523
 H    2.2329282022   -2.3012766991    1.1025855546
 H    2.4473713096   -0.2719033803    2.2552421072
 H   -0.4206889554   -0.0694184378    2.9236011302
 H   -0.8748232851   -1.6118526871    2.1873700520
 H    0.6105932941   -1.4913491007    3.1435935809