17

 O    0.8326710540    0.5268748564   -1.3665625410
 C    0.3643622431    1.3006637722   -0.5524860209
 N    0.9989214822    1.7179760259    0.5715028476
 C    2.3527752915    1.2856663096    0.8894653378
 C    3.4324868400    2.1305122231    0.2207230224
 C    4.6374282380    1.4196139089   -0.3117117013
 N    3.6438516217    1.9617591180   -1.2348904612
 C    3.5369512287    3.4777933139    0.7276525535
 C    3.5913344318    4.5825733818    1.1995907705
 H   -0.6518349606    1.7273595608   -0.6462362559
 H    0.5787838684    2.4507666583    1.1203154365
 H    2.4759056486    1.3103285731    1.9759626231
 H    2.4462272872    0.2498806732    0.5530819597
 H    5.5943513363    1.9324277770   -0.3094570071
 H    4.6923515084    0.3447028686   -0.1533085161
 H    3.0120402544    1.2341732956   -1.5689164427
 H    3.6589563062    5.5665805436    1.5932421250