18

 C   -0.0893123763    1.5721040410    0.0810554037
 C   -0.0016866814    0.0325092533    0.0263528217
 C    0.7440809345   -0.5133833709    1.2639101357
 C   -1.3612382163   -0.5325428879    0.0149168453
 N   -2.4226605532   -0.9869950347    0.0548782246
 C    0.7041867431   -0.4472226444   -1.2890282217
 N   -0.0056902764    0.0172558528   -2.4760614534
 C    2.1298734135   -0.0523587720   -1.2795538687
 N    3.2343041552    0.2881141485   -1.3196063930
 H    0.9160461677    2.0026751874    0.0490659014
 H   -0.6775762134    1.9660251983   -0.7505726825
 H   -0.5695857201    1.8880834636    1.0100008565
 H    0.2108342450   -0.2357967915    2.1759525951
 H    0.8183437805   -1.6041015427    1.2330376316
 H    1.7527864485   -0.0952341521    1.3099567479
 H    0.6695219210   -1.5419011586   -1.2901190068
 H    0.2228501189    0.9844703093   -2.6807624215
 H    0.2658272892   -0.5284932993   -3.2867086060