21

 C    0.1895891072    1.0708178300    0.3500723430
 C   -0.0381265261   -0.4264739251    0.1288479102
 C   -1.5144451630   -0.7953845588    0.1391932340
 O   -1.6370426444   -2.1917596581   -0.0666199828
 C   -2.9645321339   -2.6569033872   -0.0528332095
 C   -2.9265202274   -4.1741018858   -0.0840464780
 O   -2.4006683633   -4.6980636617    1.1371383033
 C   -1.0607345500   -4.8456668078    1.2217156714
 O   -0.5187607912   -5.1753627296    2.2332291019
 H    1.2565419861    1.3098683911    0.3367484697
 H   -0.2943208167    1.6693440545   -0.4297156436
 H   -0.2112282681    1.3976912954    1.3157805156
 H    0.3924959479   -0.7392700771   -0.8293215530
 H    0.4701151211   -1.0080429772    0.9062104366
 H   -1.9764198259   -0.5142613365    1.1004006733
 H   -2.0547798618   -0.2479674700   -0.6520522429
 H   -3.4917769961   -2.3223010700    0.8547411221
 H   -3.5285649501   -2.2864747231   -0.9261081939
 H   -3.9361981425   -4.5797814204   -0.1816350092
 H   -2.3266765485   -4.5143225891   -0.9372091696
 H   -0.5449451633   -4.6485778137    0.2653097413