15

 O   -0.0882923676    1.4314975268    0.0347337579
 C    0.0469686753    0.0655744505   -0.0465333987
 C    0.0128788234   -0.9181206496    1.1173220094
 N    0.8749778461   -2.0459677332    1.0068701847
 C    1.2305614993   -2.0376543320   -0.2314611324
 N    0.4965943249   -3.0122186986   -1.0630067799
 C   -0.3542058026   -1.7102445541   -1.2753610132
 C   -1.0383792057   -0.9983034534   -0.0569223401
 C    0.8399543558   -0.7624917575   -1.0498340644
 H    0.6483124282    1.7823556206    0.5484425154
 H   -0.3580878533   -0.6034428167    2.0861413718
 H    0.9511310656   -3.1266562541   -1.9750560121
 H   -0.9222018806   -1.7126632398   -2.2054733357
 H   -2.0959722241   -0.9287460341    0.1523982274
 H    1.4662279453   -0.3864109848   -1.8533192699