20

 C    0.0283100939    1.5460253217   -0.0389911092
 C    0.0250680400    0.0391285009   -0.0295567327
 C    0.5654867154   -0.9615104947   -1.0601498127
 N    0.0152067486   -1.9165784449    0.0005478022
 C    0.6083203215   -0.9346901708    1.0515220396
 C   -0.3361681224   -0.9840919296    2.2285564659
 C   -1.5319870603   -0.9852556237    1.6410958358
 C   -1.2067342052   -0.9387062951    0.1562332504
 C   -2.3491625095   -1.0561993693   -0.8239987288
 H    1.0485952091    1.9390599173   -0.1076280190
 H   -0.5378508313    1.9372338359   -0.8916017358
 H   -0.4258537182    1.9358012885    0.8788100125
 H    0.0771846213   -1.0389059131   -2.0342136251
 H    1.6516318037   -1.0296110145   -1.1765305785
 H    1.6863526294   -1.0146437227    1.2004645770
 H   -0.0684334094   -1.0302361664    3.2742815609
 H   -2.5232996989   -1.0342007535    2.0703518001
 H   -3.0821060861   -0.2616030470   -0.6467997291
 H   -2.0266234537   -0.9849637309   -1.8655137455
 H   -2.8584782880   -2.0170913981   -0.6962061881