17

 C    0.1050183419    1.3373942138    0.2399566548
 C    1.5118826519    1.9034088178   -0.0930668597
 C    2.2385190828    0.6079279859   -0.2342090131
 C    3.2766227223    0.0072025540    0.3477984966
 C    3.0743166034   -1.4790971069    0.2931569144
 O    1.9147998719   -1.8619885126    1.0728354324
 C    1.7616209337   -1.7276476092   -0.3362181903
 C    1.2600133655   -0.3770228719   -0.8449681415
 O   -0.0261651800    0.0872769711   -0.4564541248
 H    0.0149016122    1.1692213576    1.3212590266
 H   -0.7094809101    1.9933242269   -0.0818095600
 H    1.4824475763    2.4615146271   -1.0368124269
 H    1.8978666784    2.5584004330    0.6902574586
 H    4.0578021661    0.4821436010    0.9289564207
 H    3.8879026443   -2.1974890714    0.2936112006
 H    1.5255110166   -2.6412909625   -0.8736671657
 H    1.3105568227   -0.3976778138   -1.9463426028