18

 C   -0.1569174164    1.4969399059    0.0642804089
 C    0.1447998461    0.0368184275   -0.0052147887
 O   -0.6992386564   -0.8842507134    0.7278199950
 C    0.7208794293   -0.9088928409    0.9710185446
 C    1.3036379443   -1.7993102055   -0.1475128746
 O    0.8688493177   -3.1281408219   -0.1856182777
 C    0.6979728368   -0.7844905565   -1.1612570354
 C    0.1419863226   -0.9990623794   -2.5084177832
 N    1.4384241922   -0.3028868636   -2.3215837272
 H    0.7063359095    2.0881801602   -0.2584716031
 H   -1.0059592672    1.7543718873   -0.5790753021
 H   -0.4097523021    1.7834524978    1.0880557644
 H    1.0524066003   -0.7614441100    1.9930150360
 H    2.3955088999   -1.7996607647   -0.1908435539
 H   -0.0871878209   -3.0967830749   -0.0499182688
 H    0.2197939894   -1.9825700318   -2.9629141676
 H   -0.7262796926   -0.4189744272   -2.8111471501
 H    1.3090012475    0.7012265212   -2.4330048167