17

 C   -0.0168895134    1.4493554791   -0.0075382901
 C    0.0390246080   -0.0484906581   -0.0770632139
 C    0.5723285349   -0.9647016719   -1.2066047610
 C    0.0739639035   -1.9456109840   -0.1252688548
 O    0.0005860065   -3.3237931471   -0.1424493028
 C    0.5320282384   -1.0078894226    1.0566979685
 N   -0.8018399127   -0.9789188728    1.7420503104
 C   -1.1244107060   -1.0379043788    0.2783024021
 H    0.9853421113    1.8866659613   -0.0740957323
 H   -0.6151969077    1.8622175177   -0.8269434189
 H   -0.4670171276    1.7621101255    0.9394208844
 H    0.0185428189   -0.9501326473   -2.1507938669
 H    1.6518770724   -0.9311283500   -1.3909913650
 H    0.8892141152   -3.6785197104   -0.2556343275
 H    1.4859953120   -0.9798382842    1.5878044180
 H   -0.9900772338   -1.8884311948    2.1720956568
 H   -2.1408241800   -1.0446140017   -0.1192362670