21

 O    0.0331588749    1.4148778220    0.3227200117
 C    0.0428671271    0.0165855874    0.0029373968
 C    0.7613430038   -0.8641658173    1.0342306864
 C   -0.3009040921   -1.2586777710    2.0810752937
 C   -0.6680086327   -0.1920441614    3.1577229798
 C   -2.0419601371    0.0467883593    2.4646877487
 C   -1.6974773520   -1.0342406501    1.4022169937
 C   -1.4096898201   -0.5318696158   -0.0331761153
 O   -2.3238201019    0.4175238286   -0.5293648163
 H   -0.0581125045    1.5167126591    1.2751050887
 H    0.5088824177   -0.0310606302   -0.9848026020
 H    1.1333882012   -1.7620840578    0.5277100877
 H    1.6323926467   -0.3575964854    1.4639112038
 H   -0.1078452820   -2.2498387311    2.4954207566
 H   -0.7489045585   -0.5965850358    4.1693944903
 H    0.0089918767    0.6687931052    3.2174486113
 H   -2.9024645501   -0.1988998118    3.0902108669
 H   -2.2144276976    1.0450125356    2.0548924828
 H   -2.3816950497   -1.8840765692    1.3947219287
 H   -1.4316664572   -1.3968622043   -0.7095767256
 H   -1.9014007927    1.2759387342   -0.3816082886