23

 C   -0.1622905684    1.5550401108   -0.0756042849
 C    0.0352119832    0.0396174526    0.0152573939
 C    0.7781656363   -0.5005882260   -1.2235086807
 C    0.9787845395   -2.0143051101   -1.1341234469
 O    1.6581334335   -2.3868191250    0.0519249837
 C    0.9504340854   -1.9752472309    1.2082726557
 C    0.7606639879   -0.4687165672    1.2649360557
 C    1.8588166659    0.3279975356    1.9259540187
 C    0.5374168342    0.1240229465    2.6311674108
 H    0.7932744725    2.0853671014   -0.1444597085
 H   -0.7364601511    1.8030812058   -0.9743384612
 H   -0.7116397384    1.9537267822    0.7824558575
 H   -0.9645662167   -0.4237580033    0.0249148757
 H    0.2222374035   -0.2578568850   -2.1375181178
 H    1.7588409707   -0.0140220635   -1.2974530457
 H   -0.0011609901   -2.5229801463   -1.1817826407
 H    1.5869753171   -2.3838223165   -1.9651540186
 H   -0.0365147939   -2.4725773505    1.2390105167
 H    1.5308112486   -2.3280709703    2.0664662353
 H    2.7272341758   -0.2111046483    2.2898088445
 H    2.0829227636    1.3217983007    1.5555021439
 H   -0.1236659011    0.9774266757    2.7304012548
 H    0.5063827320   -0.5536744883    3.4791200781