23

 C   -0.3281206548    0.9365280738   -1.8715938186
 C   -0.0339476662   -0.2072938728   -0.9238894349
 C    1.3677916551   -0.5309901609   -0.4514696687
 C    2.5655350676    0.2736492518   -0.8843924652
 O    2.9311718107   -0.1654559359   -2.1898834126
 C    0.3386623528   -0.0131449118    0.5348965233
 C    0.4253182907    1.3442068219    1.2049140674
 C   -0.9201888067    1.7910855432    1.7687926070
 O   -0.7265682160    3.0389163561    2.4183867102
 H    0.2477833148    1.8365568022   -1.6437385419
 H   -0.0878025214    0.6510139144   -2.9007517459
 H   -1.3884409938    1.2106860578   -1.8356018777
 H   -0.6497924665   -1.0817409212   -1.1200417081
 H    1.5998155131   -1.5899897113   -0.3724974250
 H    2.3468013439    1.3502742408   -0.8819104433
 H    3.3907085122    0.1130036911   -0.1717670773
 H    3.7418426232    0.2887148015   -2.4389631268
 H   -0.0499384253   -0.7778073880    1.2053108708
 H    1.1469967882    1.3116785627    2.0308989529
 H    0.7784696688    2.1189355406    0.5187449680
 H   -1.6557815779    1.8733903895    0.9529145878
 H   -1.2982275625    1.0298761103    2.4714038293
 H   -1.5730990602    3.3299400742    2.7691814493