16

 C   -0.0127936324    1.5565243990   -0.0410800807
 C   -0.0087379099    0.0558656549   -0.0083665516
 N   -0.0143544312   -0.6691727634    1.1385198898
 O   -0.0232906024   -0.0384520496    2.2210589804
 C    0.0012322606   -0.7263313826   -1.1742475643
 C    0.0065055586   -2.1094228987   -1.3909202620
 N    0.0161927928   -2.3094673552   -2.7516643018
 C    0.0173519391   -1.1529826920   -3.4097335683
 N    0.0083823353   -0.1841498557   -2.4672643652
 H    0.0069094607    0.8044771262   -2.6551108083
 H    0.8770411110    1.9865766192   -0.5250396186
 H   -0.8980780962    1.9814796491   -0.5377188374
 H   -0.0211520965    1.8795617510    1.0043543504
 H    0.0039788437   -2.9136324181   -0.6808084048
 H    0.0217044871   -3.2115349299   -3.1994884920
 H    0.0240596195   -1.0183870844   -4.4751215854