20

 C   -0.1784924783    1.4701616573    0.0488423832
 C    0.0489352624   -0.0252323461   -0.0617111493
 C    1.4688549929   -0.5142113516   -0.0634610585
 N    0.6382515359   -0.6372241665    1.1313186141
 C    0.2613745523   -1.9158454447    1.5783812127
 O    1.0454062064   -2.6637550021    2.1121832845
 C   -1.1731742755   -2.2737805912    1.2440877192
 C   -1.2765750208   -2.2174600571   -0.2967192408
 C   -1.0634123383   -0.7784095233   -0.7936515393
 H    0.6423541808    1.9526878132    0.5848606787
 H   -0.2561266201    1.9211941764   -0.9467447165
 H   -1.1083785045    1.6832897756    0.5873880787
 H    1.7090264168   -1.4361722249   -0.5878111714
 H    2.2855218173    0.2013201275   -0.0111185637
 H   -1.3874880395   -3.2687794023    1.6366422540
 H   -1.8713477867   -1.5567427432    1.6920108636
 H   -0.5296487861   -2.8964956464   -0.7258709329
 H   -2.2520656008   -2.5822163263   -0.6320242404
 H   -1.9933176027   -0.2202954695   -0.6285958341
 H   -0.8845535917   -0.7582554249   -1.8746995017