23

 C   -0.1181314297    1.5322287176    0.0681565735
 C    0.0329164744    0.0089762674    0.0137992651
 C    0.7779479798   -0.5127472412   -1.2384262357
 C    2.2497261740   -0.0550113300   -1.2735428850
 C    0.6738798645   -2.0110674463   -1.3426058959
 C    0.0872597875   -2.7295439290   -2.2971904799
 C    0.2163692921   -4.1966545782   -2.0102221915
 O    0.9416807037   -4.2730716423   -0.7853406956
 C    1.2530331747   -2.9644887385   -0.3203268199
 H    0.8482945450    2.0401360436    0.1414262096
 H   -0.6262306331    1.9109505384   -0.8260297223
 H   -0.7111973487    1.8319759270    0.9377454067
 H    0.5528683770   -0.3392803271    0.9157856292
 H   -0.9620040445   -0.4513693609    0.0375999428
 H    0.2742338639   -0.0925842774   -2.1193792671
 H    2.7614021231   -0.4584390710   -2.1523450792
 H    2.3249222219    1.0350279397   -1.3137927813
 H    2.7920795895   -0.3937088288   -0.3840130382
 H   -0.4190552297   -2.3398033970   -3.1722126123
 H   -0.7605308607   -4.6947989429   -1.8977168489
 H    0.7614496307   -4.7369701362   -2.8014176499
 H    2.3448066863   -2.8569043110   -0.2182949217
 H    0.8227540679   -2.8149132557    0.6828687474