15

 C    0.0726402938    1.5077626552    0.0349234804
 C    0.0082827147    0.0584431329   -0.0800719732
 C   -0.0532780972   -1.1392759609   -0.1712048800
 C   -0.1320684354   -2.5853599711   -0.2794984069
 C   -1.4404676690   -3.2053789992    0.2469350655
 C   -1.5263837869   -4.7168332409    0.1148899764
 O   -2.3271263837   -2.5462420690    0.7258149123
 H    0.9184922269    1.8221754374    0.6562984616
 H    0.1877535070    1.9817762502   -0.9461406811
 H   -0.8401796890    1.9064229184    0.4908894181
 H   -0.0112080732   -2.9100430997   -1.3233164171
 H    0.6970332406   -3.0665311937    0.2598820862
 H   -0.6932947731   -5.1977033211    0.6396928200
 H   -2.4722864367   -5.0678672986    0.5280117090
 H   -1.4529474288   -5.0132714898   -0.9376181811