15

 C    0.0216899870    1.5202480810    0.0042242772
 C    0.0062277111    0.0235745147    0.0025874849
 C   -0.0281443822   -0.8033541268   -1.0753086435
 O   -0.0325265381   -2.1085856571   -0.6931264748
 C    0.0001883493   -2.1107969117    0.6665192155
 C    0.0252878092   -0.8444044445    1.1589344108
 C    0.0644705442   -0.4244755828    2.5950394050
 H    0.9195064870    1.9145455336    0.4949363230
 H   -0.0008489938    1.9172438801   -1.0144336844
 H   -0.8409611759    1.9326306711    0.5409690944
 H   -0.0519628516   -0.6246647149   -2.1382504678
 H    0.0013312520   -3.0817351369    1.1351558178
 H    0.9579314847    0.1709037801    2.8177412584
 H   -0.8026065476    0.1924713244    2.8593754598
 H    0.0696046446   -1.2918938903    3.2608749737