14

 C   -0.0700942314    1.5661306596    0.1414894091
 C    0.0610093428    0.0546923058   -0.0897455301
 C   -1.3162476177   -0.5203044324   -0.4755381082
 O   -1.9221812594   -1.3393762701    0.1531479339
 N    0.9752107415   -0.2638496213   -1.1972289290
 C    1.8486728793   -1.0348015213   -0.6946110431
 O    1.7745966750   -1.3500687494    0.6344847672
 C    0.6538984251   -0.6626335494    1.1222777592
 O    0.3331954992   -0.6830132487    2.2635127976
 H    0.9176016521    2.0157763625    0.2693963385
 H   -0.5506357205    2.0361661398   -0.7207364288
 H   -0.6653003231    1.7530607674    1.0388781831
 H   -1.6929918563   -0.0908890441   -1.4279754108
 H    2.6836897435   -1.4828118584   -1.2196782688