20

 C   -0.2490193521    1.5251977101   -0.1360331847
 C    0.0107282868    0.0092445321    0.0022866320
 C    0.8950151655   -0.2602115343    1.2324945850
 C   -1.3355339276   -0.7325385750    0.1503396710
 C    0.6822619883   -0.4740944883   -1.2610012367
 N    0.1808746718   -0.3900353349   -2.4847125145
 C    1.1471173586   -0.9518561940   -3.2597427992
 N    2.2154579232   -1.3807102381   -2.6097953200
 N    1.8968233194   -1.0646412025   -1.3294763284
 H    0.6903708358    2.0812044629   -0.2189638114
 H   -0.8436603582    1.7300324950   -1.0290297173
 H   -0.7897454239    1.8973242699    0.7404011912
 H    0.3930217457    0.0956740575    2.1367452060
 H    1.0885692381   -1.3304409102    1.3665546371
 H    1.8550918801    0.2637408436    1.1648185432
 H   -1.9546018559   -0.5792263914   -0.7363599574
 H   -1.1819277074   -1.8092740289    0.2749006841
 H   -1.8770049343   -0.3613005597    1.0266878856
 H    1.0615379442   -1.0477380128   -4.3319903083
 H    2.5425945618   -1.2797129812   -0.5888686673