19

 O   -1.0325697768    1.4210686825   -1.1090300925
 C   -0.3459269978    0.3037063286   -0.5953428208
 C   -1.2750281491   -0.7039718756    0.0738630897
 O   -2.1454298540   -1.3467617038   -0.8541722682
 C   -3.4234102716   -0.8102517911   -1.0357256463
 C   -3.6293673673   -0.2224534347   -2.4373311817
 O   -2.7498901769    0.3206338413   -3.0613255101
 C   -5.0400139130   -0.3736804922   -2.9831138034
 O   -5.1939537381    0.4018642427   -4.1377125655
 H   -1.4745992973    1.1324197130   -1.9227448734
 H    0.2363513987   -0.2137398442   -1.3730116336
 H    0.3631643680    0.6690230251    0.1590150992
 H   -0.6825356325   -1.5008354840    0.5404241008
 H   -1.8599032997   -0.2042310849    0.8590900365
 H   -4.1724871207   -1.5997606183   -0.8687951385
 H   -3.6454674918   -0.0027751422   -0.3202076943
 H   -5.1914290221   -1.4534980543   -3.1641707171
 H   -5.7444182364   -0.0979818097   -2.1769813239
 H   -6.0775929219    0.2521062318   -4.4861915768