22

 C   -0.2616667192    0.7112289479   -3.5045207579
 O   -0.1330176891   -0.6172878050   -3.0552321066
 C    0.8818673555   -0.7698554816   -2.0814245285
 C    0.8469181431   -2.2023251227   -1.5965315752
 C    1.3085442520   -3.3334775205   -2.4635643010
 C    1.8561181690   -3.1233982936   -3.8585577404
 O    2.9080939819   -4.0321849824   -4.1664048752
 N    2.0368059152   -2.9797049485   -1.2488620684
 C    3.3792906476   -2.4188236102   -1.3205959468
 H   -0.5253547009    1.3969879071   -2.6836973130
 H    0.6669759427    1.0782160262   -3.9704024634
 H   -1.0606176970    0.7285049833   -4.2495951460
 H    1.8597955865   -0.4965515906   -2.5035318885
 H    0.7007696824   -0.0877102398   -1.2334360827
 H    0.0010384336   -2.3996510691   -0.9392238981
 H    0.7657861755   -4.2774149077   -2.3689659984
 H    1.0259089171   -3.2091334935   -4.5758409576
 H    2.2848070693   -2.1286597394   -3.9897514435
 H    2.5702710195   -4.9251392871   -4.0409028826
 H    3.5760037488   -1.7362889900   -2.1581759910
 H    3.5834391137   -1.8809947499   -0.3890072028
 H    4.0893973228   -3.2463364430   -1.4023128826