17

 C    0.1744958606    1.5158118420   -0.2146463162
 C    0.1337218888    0.0675693248   -0.0738536712
 C    0.1115074534   -1.1323587759    0.0392749513
 C    0.0455637393   -2.5815406480    0.1613538346
 C    0.1420895843   -3.1197726250    1.6244470594
 C   -1.4063239968   -3.2482969257    1.5652789937
 N   -1.3310241323   -3.1654601580    0.0885555209
 C   -2.0157532062   -4.4702248136    2.0900851783
 N   -2.4914321539   -5.4301154190    2.5237047066
 H    0.5189671433    1.8085506607   -1.2123442861
 H   -0.8162677807    1.9574076709   -0.0617117192
 H    0.8540245553    1.9656017712    0.5174558508
 H    0.7300385895   -3.0525600656   -0.5515039126
 H    0.6380356741   -4.0886248938    1.6771960738
 H    0.5448475232   -2.4424430639    2.3745158137
 H   -1.8940341418   -2.3879269138    2.0420586226
 H   -2.0259928802   -2.5623533573   -0.3391932804