16

 C   -0.0053622125    1.5617098132    0.0423051478
 N    1.4121414643    1.9738797310    0.0559001768
 C    2.0879011249    0.9516127070   -0.2936863422
 N    3.3696370705    0.6658160615    0.2404805910
 C    3.0850249952   -0.0841903571    1.4246810892
 N    2.0114990079   -0.7247648760    1.6767840264
 C    1.0462282687   -0.9024143580    0.6153749341
 C    0.0129850196    0.0419612762   -0.0915579987
 C    1.3387438623   -0.2810910647   -0.7164633015
 H   -0.4501613192    1.9183878271    0.9776198326
 H   -0.5675166827    2.0208169775   -0.7824748703
 H    3.9199140580    1.4912110369    0.4541838722
 H    3.8842076216   -0.0555582937    2.1637784499
 H    0.6629892302   -1.9193730385    0.6196165170
 H   -0.8927379834   -0.4698291487   -0.3955979244
 H    1.5701826046   -0.8141638138   -1.6308374899