19

 C    0.2563206719    1.8057512032    0.2348054410
 C    0.1694061895    0.3369207867   -0.1664126810
 O    0.9851985774    0.0737428172   -1.3194148400
 C    2.1572021215   -0.6577912837   -0.9533422353
 C    2.1758009575   -0.7635877465    0.5718335723
 C    0.6800196901   -0.6446538455    0.9103108548
 O    0.3908320966   -0.1518811169    2.2016694948
 C    2.1020066235   -2.0146570494   -1.6528866112
 O    2.6074916656   -3.0226373116   -1.2316297117
 H    1.2705966696    2.0797781801    0.5394856598
 H   -0.0280462327    2.4317954231   -0.6151825381
 H   -0.4168331920    2.0117928794    1.0704599203
 H   -0.8623651587    0.0995722668   -0.4486148467
 H    3.0419929605   -0.1337211451   -1.3455114533
 H    2.6282180335   -1.7043329993    0.8928035362
 H    2.7183834397    0.0699656646    1.0254182883
 H    0.1957635253   -1.6204368351    0.7511961441
 H    0.6763071570   -0.8080155318    2.8444966341
 H    1.5368074641   -1.9880549361   -2.6105319184