20

 C   -0.6071146284    1.2531205445   -0.0019206573
 C    0.1581709545   -0.0552051498   -0.1177578401
 C    1.5442037602   -0.0666150462   -0.8209356608
 C    2.0455994937   -1.0625334854    0.2575555071
 C    0.8268193590   -0.6913934478    1.1394203523
 C    1.0120638773    0.0851780117    2.4788964155
 N    0.2889051671   -1.0130250553    3.1308621247
 C    0.0948127268   -1.7501223687    1.9878225663
 O   -0.4415085596   -2.8043619867    1.7657431480
 H    0.0186720328    2.0507450130    0.4134926322
 H   -0.9510937363    1.5851877486   -0.9876104300
 H   -1.4905808828    1.1483022894    0.6378267521
 H   -0.4857378945   -0.8227123730   -0.5624107392
 H    1.5784732440   -0.3891316021   -1.8642528868
 H    2.0416691683    0.9055899931   -0.7416126537
 H    1.9800451373   -2.1033424821   -0.0715535455
 H    3.0356269448   -0.8913318212    0.6873331671
 H    2.0517025842    0.1938540720    2.8066215895
 H    0.5038604174    1.0520067234    2.5448902646
 H    0.0382940343   -1.1817991074    4.0937720941