22

 C   -0.0794396620    1.6289729023   -0.0015285441
 C   -0.0189879081    0.1035689625    0.0066466846
 C    1.0752042994   -0.5740310831   -0.8710360071
 C    2.0724261123   -0.2674021379    0.2835868112
 C    0.7935281174   -0.5919646522    1.1502963878
 C    0.6583048280   -0.2167048829    2.6076393145
 C    0.6851685129   -2.0845839133    0.7731975779
 C   -0.3272785089   -2.5762171881   -0.1970136524
 N    0.9626404854   -2.0624324391   -0.6925106718
 H    0.8902693847    2.1166728925    0.1220149450
 H   -0.5034291061    1.9812841078   -0.9484246476
 H   -0.7335138403    1.9899954646    0.8001056827
 H   -1.0424836188   -0.2503549950   -0.1312234326
 H    1.2547472484   -0.2904408997   -1.9083225886
 H    2.9221756044   -0.9485365410    0.3725654448
 H    2.4076251301    0.7675267739    0.3457569884
 H    0.8164115962    0.8556163847    2.7611178486
 H   -0.3377058233   -0.4672010891    2.9905410771
 H    1.3917804460   -0.7514508198    3.2222395457
 H    1.2486140032   -2.7943005507    1.3764975471
 H   -0.4160428671   -3.6524823636   -0.3224645318
 H   -1.2545874638   -2.0459035727   -0.3765347895