18

 O   -0.1053940921    0.2396881289    0.7465605013
 C    0.3746476395    0.7179320766   -0.2508989122
 C    1.4609410792    1.7345690920   -0.2467377591
 N    2.2354460224    1.8374700755   -1.5064739162
 C    1.3848272195    2.9546320506   -1.1185865361
 C    0.2036339566    3.2866108534   -2.0456613936
 C    0.3964078541    4.7579676324   -2.3163438198
 C    1.3568952009    5.2941188915   -1.5654151903
 C    1.9953899601    4.2846921808   -0.6440094649
 H    0.0330949317    0.4291609835   -1.2695134551
 H    1.9715493190    1.8437349648    0.7076402500
 H    3.2116886229    2.0270376446   -1.2906545707
 H    0.2384295088    2.6690638177   -2.9496764410
 H   -0.7667577356    3.0978106279   -1.5668122583
 H   -0.2092808174    5.2976571126   -3.0352817563
 H    1.6551257717    6.3360694661   -1.5757369105
 H    1.7556248164    4.4932053658    0.4075412871
 H    3.0915372924    4.2735958353   -0.7143812043