18

 C    0.0969791096    1.6031829677    0.0905144259
 C    0.1224344866    0.0834043849    0.0292419201
 C    0.8216778790   -0.6508128702   -1.1248202860
 C    1.2907976912   -1.7500996062   -0.2265000956
 C    2.3240342743   -0.7597113497   -0.7745803166
 C    2.4656782935   -0.1884199875    0.5848687093
 N    3.4617059651    0.3276486045    1.1724168594
 O    3.1612056892    0.5854889175    2.5349005072
 C    1.0908664685   -0.7171203396    0.9657703875
 H    1.1016083223    2.0238770144   -0.0137864933
 H   -0.5276798068    2.0138081315   -0.7102525232
 H   -0.3144942310    1.9493929905    1.0448125739
 H   -0.8876384130   -0.3264381269    0.1407561305
 H    0.5100768108   -0.7262088981   -2.1597246159
 H    1.2686016636   -2.8277814760   -0.2787976788
 H    3.0808678673   -0.9224222106   -1.5283206363
 H    3.9961531590    0.9431155550    2.8534313300
 H    0.8431407508   -0.9369622013    1.9994265621