18

 O   -0.0033242471    1.4464065524   -0.0532189820
 C    0.0299357646    0.0331329861    0.0295024387
 C    0.6284547048   -0.5382473302    1.3560415056
 C   -0.5611371583   -1.3802841257    1.9089423327
 N   -1.2712275229   -1.8613625863    0.7004103483
 C   -1.4162620538   -0.5335729180    0.0600970726
 C   -2.2247782297    0.2076017593    1.1395041682
 C   -1.5908852518   -0.3628574776    2.4176605452
 O   -1.8198125158   -0.0589056704    3.5567814182
 H    0.9006811253    1.7728390720   -0.0872565998
 H    0.5601257565   -0.3832153668   -0.8392210834
 H    1.4936452945   -1.1820349768    1.1723362035
 H    0.9392861162    0.2665429614    2.0290849898
 H   -0.3070671816   -2.1558293286    2.6293946413
 H   -0.6647429411   -2.4641430356    0.1476764338
 H   -1.8964651933   -0.5827107948   -0.9170231343
 H   -2.1353573680    1.2935187094    1.1043276387
 H   -3.2823514386   -0.0676650398    1.0972794928