14

 O    0.0503668343   -0.0042404099   -0.0002685244
 C    0.0137263958    1.1846521967    0.0407502364
 C   -1.0691572609    2.2869590245    0.0267641996
 C   -1.2897863669    2.8574865082    1.4381550154
 C    0.0647835288    3.1298275379    2.0608884594
 C    1.1792168482    2.8760599591    1.3707181980
 C    0.9987926690    2.3702067883   -0.0473371174
 O   -0.0913548888    3.1111834118   -0.6742324460
 H   -1.9858009047    2.1311624317   -0.5468077666
 H   -1.8960956807    3.7716815667    1.3934120477
 H   -1.8556905575    2.1360467199    2.0425029909
 H    0.0977101273    3.5313976626    3.0691728864
 H    2.1743286724    3.0083667840    1.7800104537
 H    1.8992828038    2.3259059885   -0.6601458831