13

 C   -0.0331624078    1.5043083666   -0.0083210983
 C   -0.0096203603    0.0079976077   -0.0516865367
 N   -0.0448053477   -0.6257091395   -1.1796907003
 C   -0.0206631817   -2.0046361494   -1.1564777523
 C    0.0376909107   -2.6916172185   -0.0024274939
 O    0.0757353407   -2.0662884705    1.1922976208
 C    0.0554473486   -0.6803244838    1.2588552530
 O    0.0897242676   -0.1481288063    2.3344433984
 H    0.8582714073    1.8869080380    0.5004131226
 H   -0.0823879828    1.9007819065   -1.0226785184
 H   -0.8911374396    1.8573223828    0.5739626271
 H   -0.0507583274   -2.5172320077   -2.1094768641
 H    0.0595720724   -3.7702205957    0.0914731322