19

 O    0.0272333050    1.5030566781   -0.0894780459
 C    0.1028367796    0.0971280651    0.0936898867
 C   -1.2696450611   -0.5601530607    0.0434095479
 C   -2.0404310220   -0.5684224563   -1.2983776520
 C   -1.3712955192   -1.4580335888   -2.3106615661
 C   -2.1988076961   -2.0923541774   -1.2243086460
 C   -1.4044240765   -2.0995174438    0.0647597384
 C   -0.5681953628   -3.1468161601    0.6576537374
 O   -1.8408475528   -2.7842300246    1.2213697000
 H   -0.3434073666    1.6582077202   -0.9646115155
 H    0.7790180508   -0.3638651428   -0.6433443535
 H    0.5536361683   -0.0526065746    1.0808740952
 H   -1.8987154475   -0.1471132076    0.8381445525
 H   -2.7891926706    0.1596911126   -1.5841081872
 H   -1.8243966759   -1.4615532530   -3.2968643985
 H   -0.2917587636   -1.5849833613   -2.3228840198
 H   -3.0686959755   -2.7053605360   -1.4231433487
 H   -0.5264748216   -4.1318804894    0.1944118098
 H    0.2970563682   -2.8825901296    1.2643833253