16

 C   -0.1655350997    1.3818881976   -0.0632939743
 C    0.1088755507   -0.1005357768    0.0266880264
 C    1.4777024881   -0.6671542727   -0.1153508916
 O    2.5383488661    0.2372539117   -0.2320362748
 C    0.8009753281   -0.6808119800    1.2702078996
 O    1.3258182712    0.1794151511    2.2279595743
 C    0.3408914627   -1.9837930968    1.7909485340
 O   -0.1999250083   -2.8277184238    1.1111124102
 H    0.5998681116    1.9654932329    0.4500779718
 H   -0.1957579622    1.7055012448   -1.1084128717
 H   -1.1307924000    1.6172925382    0.3941984247
 H   -0.6677510245   -0.7584864236   -0.3543948928
 H    1.6007613950   -1.6214104416   -0.6214456616
 H    3.3618812868   -0.2583739916   -0.1694408094
 H    2.1202081430    0.5722109339    1.8382784442
 H    0.5493085916   -2.1348434933    2.8718795910