19

 C   -0.0285527944    1.4964025386    0.0837337576
 C    0.0103817836   -0.0135390146   -0.0297902623
 C    0.6731277656   -0.5329410397   -1.3233354478
 C    0.3658033293   -1.9958627202   -1.5235505419
 C   -0.4469515796   -2.6483875614   -0.6948186175
 C   -1.0717896837   -1.8898676033    0.4530374130
 C   -0.0596028990   -1.6633767827    1.5922354345
 O    0.7117545643   -0.5709466563    1.0975195405
 O   -1.3042222041   -0.5323383612    0.0604815562
 H    0.9862939807    1.9009557745    0.0469644153
 H   -0.6091813291    1.9245739692   -0.7374356058
 H   -0.4885809863    1.7791544999    1.0328407259
 H    0.3324999442    0.0527052602   -2.1881400291
 H    1.7555581461   -0.3756724574   -1.2444874009
 H    0.8255800336   -2.4975427370   -2.3707889528
 H   -0.6615443133   -3.7065643526   -0.8046032463
 H   -2.0205144071   -2.3169434709    0.7827010846
 H   -0.5670334724   -1.3861934645    2.5262632703
 H    0.5949887718   -2.5211181805    1.7733125065