20

 C   -0.3291000800    1.4260370050   -0.5730447151
 O   -0.2578562884    0.0267356519   -0.7010650526
 C    0.9875339622   -0.5012542118   -0.2936033834
 C    0.9415858943   -2.0040379873   -0.4983656383
 C    1.0393546486   -2.6290442427   -1.8790658535
 C    2.4784270305   -2.8809326275   -2.2023839976
 C    3.3395074572   -2.4234562968   -1.0403399854
 C    2.1538896467   -2.9077499791   -0.1818748703
 N    1.7200579278   -3.8620085394   -1.3479071417
 H   -0.1907596435    1.7487979890    0.4713769456
 H    0.4300400992    1.9333612811   -1.1898049988
 H   -1.3213979804    1.7363281341   -0.9095044352
 H    1.8028368954   -0.0428375241   -0.8761357003
 H    1.1772109572   -0.2683274129    0.7700099008
 H    0.0565509378   -2.4038102281    0.0072761361
 H    0.2628195210   -2.7014533651   -2.6315718962
 H    2.7974595729   -3.1459317630   -3.2043032825
 H    4.1986812866   -3.0879481160   -0.9170989293
 H    3.6689058211   -1.3817698094   -0.9709893946
 H    2.3060588237   -3.3145898180    0.8161104422