18

 C    0.1603612914    1.2144870843   -0.2231441162
 O   -0.0106357176   -0.1695968724    0.0440627815
 C    0.5819893460   -0.6092080728    1.2590303508
 C    0.0987537306   -2.0273598544    1.5697379719
 C    1.2468840736   -2.9318370961    1.1308125945
 C    1.7941460331   -2.7935864694   -0.2326995898
 N    2.4801798704   -2.1372655976    0.9264853706
 C    2.1134917549   -0.7580896768    1.0369768128
 O    2.8904693935    0.1511908220    0.9309336745
 H    1.2155231615    1.4837999995   -0.3396987815
 H   -0.3773809052    1.4197672818   -1.1514411995
 H   -0.2703726227    1.8243093788    0.5851843425
 H    0.3758318569    0.1093310064    2.0633833305
 H   -0.0659455934   -2.1451189860    2.6445305057
 H   -0.8419929400   -2.2393979273    1.0561218121
 H    1.3944223812   -3.8650307698    1.6652704719
 H    2.3710198213   -3.5971994290   -0.6788184656
 H    1.2715907147   -2.1467464013   -0.9309545468