16

 O    0.0625130983    1.3121225041    0.3090402457
 C    0.0086477072   -0.0486716400   -0.0892478322
 C   -1.3708546606   -0.5998774665   -0.0004994565
 C   -2.2935236959   -0.9727685256    1.1542622222
 C   -3.4608164931   -0.4143187777    0.3101089985
 C   -3.1911170163   -1.3732294137   -0.7945874990
 N   -2.5358274420   -0.0141060338   -0.8077730514
 C   -1.9877145329   -1.9650940874    0.0127653986
 O   -1.3598881506   -3.1762231154    0.0232600904
 H   -0.5890435090    1.7816583901   -0.2245751575
 H    0.3844145318   -0.1775600314   -1.1171547263
 H    0.6756276887   -0.6052013826    0.5772128407
 H   -2.0909909070   -1.0474537539    2.2131172572
 H   -4.3492174832    0.1548543083    0.5584458029
 H   -3.8027236652   -1.7262743518   -1.6172820938
 H   -1.8809338803   -3.7947764629    0.5490934604