16

 O    0.0126669113    1.3918569855    0.0407154956
 C    0.0043805481   -0.0188967008   -0.1123731057
 C   -1.3994437249   -0.5564161336   -0.0610251297
 C   -2.5981580764   -0.3117179771   -1.0499631039
 C   -3.2464208081   -1.1776080757    0.0864773759
 C   -1.9296228125   -2.0313217880    0.0367184160
 C   -2.4484820952   -0.2643546762    1.0229383792
 O   -2.5517470525    0.3704678301    2.0303313944
 H   -0.3904766070    1.5888535071    0.8943705650
 H    0.4746427866   -0.2272308546   -1.0793928702
 H    0.6133204498   -0.5164507402    0.6597365932
 H   -2.9485096742    0.7135879856   -1.1746963920
 H   -2.4987959613   -0.8320053324   -2.0059231174
 H   -4.2711541082   -1.5343112502    0.1520768769
 H   -1.8111346613   -2.6149401673   -0.8796051420
 H   -1.6644289640   -2.6086310023    0.9246645445