18

 C   -0.5398797486    1.3940707329    0.0894388435
 C   -0.0915301016   -0.0441571126   -0.0319226151
 C    0.7329647191   -0.5165080885   -1.2106908203
 O    1.1888830141    0.4462960841   -2.1123533152
 C    2.6057744217    0.5534575306   -2.0562733846
 C    3.0696870036    0.9942114750   -0.6847638130
 N    4.0808107162    1.7363403493   -0.5390140817
 O    2.3090672122    0.5749639627    0.3714647318
 C    1.3544395804   -0.4433791955    0.1566673614
 H    0.1803744922    2.0740621507   -0.3661244566
 H   -1.5005530751    1.5371009267   -0.4146878058
 H   -0.6615843542    1.6748334811    1.1400952425
 H   -0.8001142646   -0.7806984131    0.3385954329
 H    0.5306878545   -1.4896311954   -1.6569692578
 H    3.0783356913   -0.4043553747   -2.3223774291
 H    2.9139977939    1.3042643251   -2.7832597675
 H    4.2573094583    1.9086133040    0.4531863136
 H    1.6012225965   -1.3475546926    0.7041623209