19

 O   -0.7546507523    1.0166817925    0.4989656413
 C    0.3076411248    0.8572591467   -0.0466711023
 C    1.4383866389    1.8506826264    0.0042289810
 C    1.6005839371    2.6775182912    1.2938013406
 C    2.5425626175    3.8316558002    0.8197316784
 C    2.7928676172    3.4791207736   -0.6664135174
 C    3.6011814514    2.1728305031   -0.7178588833
 O    2.6697709448    1.1678054929   -0.2643716815
 C    1.4100136179    2.9438378848   -1.0928983177
 H    0.5304449376   -0.0411837488   -0.6628665827
 H    0.6306417814    3.0355408500    1.6457820022
 H    2.0432725018    2.0617002024    2.0794255646
 H    2.0549254620    4.8065250000    0.9093794128
 H    3.4727424166    3.8767493755    1.3928276835
 H    3.2142867323    4.2839715883   -1.2704957602
 H    3.9361178036    1.9240349876   -1.7331537070
 H    4.4761249433    2.1871973350   -0.0572593001
 H    1.3826006638    2.5262749498   -2.1026366360
 H    0.5957515703    3.6594166889   -0.9607107361