18

 C    0.1197374321    1.3248160351   -0.6527339480
 C   -0.0477660486    0.1093357532    0.2357302902
 O    0.7865740033   -0.2245690403    1.0495634942
 C   -1.2980999846   -0.7069793716    0.0733569641
 C   -1.8871260925   -0.9996364430   -1.2824701928
 N   -2.5641519139   -0.0633363499   -0.4017804048
 C   -3.6552516422   -0.6580872590    0.4090491433
 C   -2.9982043715   -1.6872221351    1.3030599374
 C   -1.6782565875   -1.6914922360    1.1284641015
 H    0.9304399459    1.9427216295   -0.2654523175
 H    0.3766687700    1.0102445241   -1.6712126893
 H   -0.8142341355    1.8892104043   -0.7137276441
 H   -1.4604864562   -0.5521220919   -2.1762261709
 H   -2.2965412477   -1.9992882693   -1.4131956064
 H   -4.1412571790    0.1368870318    0.9893258145
 H   -4.4203586466   -1.0829673447   -0.2526817261
 H   -3.5563839500   -2.3234045843    1.9794311560
 H   -0.9449995755   -2.2868297128    1.6532936587