23

 C    0.2551699096    1.4439396055    0.0929105361
 C   -0.0514757022   -0.0579505414    0.0925767917
 C   -1.5321165766   -0.4724626695    0.0021825060
 C   -2.4874090810    0.2957300391    0.9549021856
 O   -3.0958981915    1.0028301824   -0.1415979034
 C   -2.3516134726    0.2381148075   -1.1103743622
 C   -1.6224033487   -1.9873415170   -0.0001232107
 C   -1.7726390719   -2.7811642411    1.2741556328
 C   -2.8971431573   -2.7449861675    0.2678757062
 H    1.3368986388    1.6034483759    0.1379111345
 H   -0.1116815665    1.9407764062   -0.8100378505
 H   -0.1854567962    1.9560801145    0.9532393738
 H    0.4779230694   -0.5270750630   -0.7481190877
 H    0.3693186932   -0.5121845767    0.9992036604
 H   -3.2161450278   -0.3205753430    1.4967657915
 H   -2.0140195516    0.9757533339    1.6724885313
 H   -1.7958967263    0.8810818064   -1.8033098203
 H   -3.0004183924   -0.4321842558   -1.6884977832
 H   -0.9746126724   -2.4401673905   -0.7484599296
 H   -1.2043503830   -3.6974906265    1.3883105908
 H   -1.9119446334   -2.2314389298    2.1998693409
 H   -3.7926224484   -2.1888623177    0.5232378924
 H   -3.0891214614   -3.6356120120   -0.3203397265