19

 C    0.0047525820    1.4359253261   -0.1737335492
 O    0.0033897343    0.0161880985   -0.0528038813
 C    0.5832630946   -0.6819838214   -1.0363759472
 C    0.7017405873   -2.0225406496   -1.2091399436
 C    1.4293009673   -2.1912396985   -2.4449406358
 C    1.8072568413   -3.5026003802   -3.0608723116
 C    1.6910691264   -0.9438648242   -2.9200414284
 C    2.3835467861   -0.4003712791   -4.1159372781
 O    1.1674440083    0.0004068642   -2.0475470106
 H    1.0251882671    1.8321528636   -0.1977790345
 H   -0.5218273199    1.7585214511   -1.0780758739
 H   -0.5155044168    1.8075354270    0.7096745956
 H    0.3256205086   -2.7892639846   -0.5522604741
 H    0.9217099501   -4.1112241739   -3.2785277855
 H    2.3546339260   -3.3686882028   -3.9976448688
 H    2.4413142959   -4.0916248657   -2.3878259595
 H    1.7144748834    0.2100177137   -4.7352270666
 H    3.2390229628    0.2301712135   -3.8433482416
 H    2.7565096352   -1.2193885876   -4.7349560052