18

 O    0.0501136757    1.2689298862   -0.7733859578
 C    0.0479115150    0.0060536664   -0.1906376584
 C    0.8939846853   -1.0209316043   -0.9568515405
 N    2.3438739781   -0.8731958146   -0.7973462627
 C    3.0624475421    0.1430079157   -1.3196432339
 O    2.5908525923    1.1300540491   -1.8619476468
 C    0.2285683373   -0.1012049201    1.3507001228
 O   -0.9562528150   -0.9204744201    1.4509475083
 C   -1.3642497154   -0.5423418297    0.1195871872
 H    0.8896869672    1.3974675808   -1.2515901092
 H    0.6425872323   -2.0225434708   -0.6010684716
 H    0.6388586554   -0.9575353503   -2.0214755964
 H    2.8561912410   -1.6387813122   -0.3899385271
 H    4.1518691819   -0.0003750608   -1.2061921091
 H    1.1182017507   -0.6077946153    1.7426595971
 H    0.1058449978    0.8717405714    1.8432642558
 H   -2.1116533666    0.2609332679    0.1239755109
 H   -1.7374803348   -1.3935744892   -0.4621448885