16

 O    0.0017753496   -0.0505486753    0.2349673427
 C   -0.0169133754    1.1621815638    0.1048911337
 C   -1.2579671828    1.8959323058   -0.1192625929
 C   -1.4865491072    3.2345801599   -0.1791329786
 N   -0.6618650108    4.2611566622    0.1646059769
 C    0.4646410411    4.0552383634    1.0629475218
 C    1.5806089208    3.2586166326    0.4188892211
 O    2.0567528917    2.1535034739    1.1904884437
 C    1.3248670328    1.8805547401   -0.0098024084
 H   -2.1054819921    1.2512306212   -0.3258631715
 H   -2.4632951484    3.5673485220   -0.5226023773
 H   -1.0767107345    5.1774207961    0.1686034715
 H    0.8237775202    5.0336209003    1.3912700122
 H    0.1372830341    3.4909526904    1.9483905010
 H    2.3556450603    3.8272139131   -0.0942315666
 H    1.9373971307    1.4601425404   -0.8087699893