23

 C    0.2855415262    1.3851068942    0.3086309208
 C   -0.1803991897   -0.0039269447   -0.1484725768
 C    0.6225738178   -0.5714272229   -1.3148152734
 C    0.4129364094    0.1750792468   -2.6265038800
 C    2.0468436427   -1.0966563035   -1.1514722091
 C    2.2324752355   -1.8249200862    0.1841754448
 C    1.0693725364   -2.8020801079   -0.1866573233
 C    0.8724477752   -2.0408064414   -1.5009618531
 O    0.4876866430   -2.6510702324   -2.6829984832
 H    1.3428626477    1.3695571744    0.5943286472
 H    0.1672993406    2.1358288206   -0.4785970478
 H   -0.2912209374    1.7245610166    1.1747782173
 H   -0.1433528292   -0.6841276390    0.7077236261
 H   -1.2370758843    0.0432982112   -0.4436460112
 H    0.7065602737    1.2252295980   -2.5315225111
 H    0.9937476581   -0.2693746330   -3.4368971558
 H   -0.6405833256    0.1450644500   -2.9255576478
 H    2.8481239695   -0.7141334830   -1.7738333531
 H    3.1953289610   -2.3349354095    0.2625771777
 H    2.0884848777   -1.2262970148    1.0888432238
 H    1.4417322734   -3.8156409465   -0.3673926842
 H    0.2122243139   -2.8709080866    0.4909620420
 H    1.0887871642   -3.3847918104   -2.8528673799