16

 N   -0.0209662830    1.3322284951    0.0359040299
 C    0.0411306347   -0.0337218023    0.0190121310
 O    1.1001628476   -0.6363078460    0.0183979729
 C   -1.2783116721   -0.7306687375    0.0179617179
 C   -1.3684777267   -2.0667946543    0.0053573301
 C   -2.7825750557   -2.5610790774    0.0110056804
 C   -3.6137741389   -1.2667880987    0.0310761549
 O   -4.8119373046   -1.1924246243    0.0408859510
 C   -2.6376758145   -0.0724984108    0.0355468290
 H    0.8459624983    1.8410978505   -0.0176493084
 H   -0.8839390459    1.8383115938   -0.0520222853
 H   -0.4977401147   -2.7106572118   -0.0059234781
 H   -3.0420700345   -3.1638340580   -0.8691735702
 H   -3.0279585785   -3.1821206549    0.8824742070
 H   -2.8221797490    0.5468571465    0.9230467958
 H   -2.8397933326    0.5626027201   -0.8373656779