16

 C   -0.0003755447    1.5929482074   -0.1922425482
 C    0.1445953277    0.0657618889   -0.0421876089
 O    0.6808202705   -0.3465814516    1.1990303479
 C   -0.0059582830   -0.1029997185    2.3461286950
 N    0.5120647902   -0.4480218625    3.4409038697
 C   -1.2045377721   -0.6042951424   -0.3635788576
 O   -1.8401466262   -1.2484513182    0.4233169078
 C    1.1444349716   -0.4520388403   -1.0880257277
 O    1.0435784169   -0.2085305970   -2.2601572726
 H    0.9395954244    2.0734556122    0.0908830339
 H   -0.2179214819    1.8346198010   -1.2348984317
 H   -0.8012128676    1.9859909639    0.4389415803
 H   -0.9703301255    0.3883262822    2.2011406245
 H   -0.1092644550   -0.2071727951    4.2102884618
 H   -1.5375332457   -0.4266670515   -1.4070412705
 H    1.9465739506   -1.0830877785   -0.6563151236