21

 C   -0.0042208534    1.5045640216    0.0557770546
 C    0.0476116147   -0.0068170432    0.0312446558
 O    0.6876995760   -0.4104702341   -1.1584682431
 C    0.7841213135   -1.8274577121   -1.2575517125
 C    1.5236292847   -2.4077336349   -0.0439379584
 C    3.0169461462   -2.0419435070   -0.0913908713
 O    3.7313797295   -2.4884594729    1.0531735273
 C    0.8319377683   -1.8695764961    1.2138359220
 O    0.7460409739   -0.4493638347    1.1742685612
 H    1.0124915373    1.9047200544    0.0355070089
 H   -0.5488199131    1.8734245284   -0.8161181409
 H   -0.5035441437    1.8461452408    0.9651471746
 H   -0.9694963058   -0.4481191867    0.0505450564
 H   -0.2242004502   -2.2676075788   -1.3311524920
 H    1.3115033650   -2.0338155382   -2.1940007066
 H    1.4309070997   -3.5009619404   -0.0499546317
 H    3.4763020703   -2.5349343341   -0.9561830854
 H    3.1236901706   -0.9606300310   -0.2345429566
 H    3.6835032601   -1.7975540608    1.7193421256
 H   -0.1774896992   -2.3040342751    1.3038753015
 H    1.3908233856   -2.1299816953    2.1160680609