16

 O   -0.1356748861    0.0511895050    0.4486670278
 C   -0.0855235008    1.1689981740    0.0740020600
 O   -1.1785121320    2.0197471272   -0.2581399862
 C   -0.2045517919    2.8624615136   -1.0376667553
 C    0.6852483622    4.1799518296   -1.0249960886
 C    0.7459500878    4.6449864563    0.4207913307
 C    0.9262357361    3.2460599647    1.0715784555
 C    0.8921086487    2.3558614235   -0.2066249793
 N    1.8843071028    3.1953178323   -1.0751339861
 H   -0.2288021600    2.4714211062   -2.0573145677
 H    0.6246808107    4.9059275275   -1.8360815174
 H    1.5944633484    5.3091815484    0.5924701412
 H   -0.1708666511    5.1511124876    0.7308062021
 H    1.8919750042    3.1207322629    1.5642619180
 H    0.1341641194    2.9989773711    1.7792161289
 H    1.9144613316    2.7884264303   -2.0121906134