15

 C   -0.0560963931    1.5228938636    0.1224818322
 C    0.0064810521   -0.0102992356    0.0013377740
 C   -1.4073951425   -0.5761530307    0.0307138798
 O   -1.9002340508   -1.0925414449    0.9990758902
 C    0.7261779575   -0.4701201155   -1.2946682254
 O    0.1136888285    0.0105088459   -2.4768981777
 C    2.1561319668   -0.1053014175   -1.2445793102
 N    3.2636525380    0.2222742443   -1.2049770404
 H    0.9472810564    1.9569780630    0.0738407498
 H   -0.6671736847    1.9636499100   -0.6726242311
 H   -0.5040560716    1.8062027800    1.0777279214
 H    0.5410121910   -0.4260620889    0.8612617583
 H   -1.9746160472   -0.4533987176   -0.9171229561
 H    0.6669747509   -1.5623189071   -1.3641184090
 H    0.2952215087    0.9536587410   -2.5579496856