15

 N    0.0249874157    1.1318025518    0.5990201872
 C   -0.0824603051    0.0050995830    0.0421915610
 O   -1.0034260373   -0.8777001626    0.4740957812
 C   -0.9627850169   -2.1944003979   -0.0784363238
 C   -2.3580510413   -2.7492227793   -0.1318460210
 C   -2.5595279732   -4.2080242885    0.0620924936
 N   -3.0067111035   -3.2525645490    1.0845217936
 H    0.7432078640    1.6821261743    0.1329639372
 H    0.5085886724   -0.3613931173   -0.8100392464
 H   -0.5233608505   -2.1666507741   -1.0856004894
 H   -0.3244761980   -2.8300262239    0.5521323319
 H   -3.0309977570   -2.2069178646   -0.7922889792
 H   -3.3552932700   -4.7190504470   -0.4714291163
 H   -1.6841727818   -4.8224262077    0.2608790211
 H   -2.3537162477   -3.2313697575    1.8646042494