25

 C   -0.0759122605    1.6178048201   -0.0150046058
 C    0.0263480761    0.0845422379   -0.0071702191
 C    0.5635786114   -0.4467704725   -1.3531869118
 C    0.0202735369   -1.8271308886   -1.7420946362
 O    0.4893123769   -2.9111219395   -0.9689364646
 C    0.1612889597   -2.8740691952    0.4100447218
 C    1.0929124442   -1.9610188547    1.2157600705
 C    0.7892422148   -0.4408245743    1.2419692211
 C    2.0961269122    0.3146067819    1.5343251430
 H    0.8883155992    2.0891931107   -0.2310236500
 H   -0.7825285039    1.9502701533   -0.7825564584
 H   -0.4264910118    2.0022328599    0.9492332392
 H   -1.0033433163   -0.2893264314    0.0834602498
 H    0.2635332793    0.2439751754   -2.1521354496
 H    1.6603404804   -0.4678652878   -1.3628757948
 H   -1.0839626272   -1.7933315159   -1.7148089029
 H    0.3146606092   -2.0637312700   -2.7701290186
 H   -0.8989921459   -2.6083467671    0.5522092458
 H    0.2856924417   -3.9046769192    0.7593124643
 H    1.1251756642   -2.3198797792    2.2522125255
 H    2.0982842780   -2.1282896572    0.8094806309
 H    0.1168990491   -0.2550243616    2.0913192997
 H    2.7889986497    0.2565786527    0.6866535283
 H    1.9265780996    1.3708211175    1.7589627509
 H    2.6038967929   -0.1283999653    2.3977702107