24

 C   -0.3571378157    1.4605157881   -0.0141819630
 C   -0.0069399350   -0.0272449619    0.0035323165
 C    0.8773166179   -0.4752231801   -1.1837559290
 C    1.6264867631   -1.7493090730   -0.7036073443
 C    1.1949505562   -1.9518089398    0.7675653593
 C    0.7315908165   -0.5625034799    1.2669632905
 C    1.9506775436    0.3024090049    1.6399473881
 C   -0.1991773511   -0.6759004543    2.4800505056
 H    0.5414375127    2.0863792023   -0.0079004998
 H   -0.9237103041    1.7134978436   -0.9169431268
 H   -0.9712999384    1.7455799471    0.8468871912
 H   -0.9493784404   -0.5913669536   -0.0520871874
 H    0.2782889475   -0.6537542971   -2.0817874666
 H    1.5878586190    0.3179122644   -1.4426313543
 H    1.3867961850   -2.6243691280   -1.3139822814
 H    2.7092938153   -1.6104980905   -0.7776154530
 H    0.3477408873   -2.6467181027    0.8160917802
 H    1.9891429064   -2.3766990695    1.3902055501
 H    2.6449951419    0.4254325186    0.8026773616
 H    1.6496376232    1.3016903657    1.9698842174
 H    2.5065106151   -0.1608525516    2.4625529543
 H    0.3152319606   -1.1383260749    3.3301710870
 H   -0.5537926311    0.3068960918    2.8102210079
 H   -1.0778139953   -1.2887359597    2.2492224759