20

 C   -0.0307919579    1.5603423088    0.0954071429
 C   -0.0395734124    0.0606402816    0.0604784427
 C    1.1677422898   -0.7633126615   -0.3482470823
 C    0.5741157566   -0.9623550706    1.0197016045
 O    1.2689432426   -0.7557479742    2.2006296252
 C   -0.6821914530   -1.8035941188    0.9418395468
 C   -0.8370669175   -3.2520462908    1.1896767202
 N   -1.4027580886   -2.2500585384    2.1248994180
 C   -1.3015305593   -0.8193164186   -0.0713935961
 H    0.9329091412    1.9384149969    0.4513529670
 H   -0.2090651623    1.9851928798   -0.8997018507
 H   -0.8084354932    1.9439964530    0.7650756582
 H    1.0984810829   -1.5345720467   -1.1131630145
 H    2.1023770580   -0.2080506257   -0.3505165390
 H    2.0922270659   -1.2538215619    2.1646078883
 H   -1.5790426012   -3.8309037011    0.6459451137
 H    0.0408804462   -3.8177437766    1.4956108346
 H   -0.7906749558   -2.1479470548    2.9335538495
 H   -2.2002963541   -0.3501195980    0.3369677806
 H   -1.5133522279   -1.2047890026   -1.0741357696