17

 N   -0.0686128195    1.2952659893   -0.3298837880
 C   -0.0097094024    0.0675199494   -0.0517815342
 O    1.1418767982   -0.6546188018    0.1377435419
 C    0.8021858754   -1.9173788193    0.7514279029
 C    0.8110544230   -1.7447248699    2.2752179449
 C   -0.5033343447   -0.9735890638    2.5732115385
 C   -1.4283588643   -1.3355311550    1.4131736250
 C   -0.6778277481   -2.1094759121    0.3888379283
 N   -1.1556742612   -0.7675225576    0.0581591033
 H    0.8719736875    1.6887342556   -0.3605333174
 H    1.4883634071   -2.6714198760    0.3662955528
 H    0.7782934787   -2.7342618131    2.7449673857
 H    1.7124704074   -1.2328103347    2.6212062362
 H   -0.9485762722   -1.2764635634    3.5240578686
 H   -0.3408633169    0.1079514186    2.6252577173
 H   -2.4864609006   -1.4854602051    1.5977288974
 H   -1.0456347174   -2.9520457212   -0.1854020231