19

 C   -0.2245370430    1.4214904305   -0.2306540059
 C    1.2305997122    1.2587862054    0.1291561221
 C    0.3356566606    0.0459144201    0.0408925419
 C   -0.0560131819   -0.6956172784    1.2897005025
 C   -1.1537729406   -1.7857697352    1.2053027323
 C   -0.1490319074   -2.8662993068    0.6865689377
 O   -0.5082374458   -3.8609392545    1.6900191309
 C   -0.5404879045   -2.5845785676    2.3961573724
 C    0.7034485623   -1.9930033271    1.6647127776
 H   -0.8858008929    1.8519430513    0.5146677651
 H   -0.4780512933    1.6838840153   -1.2517348754
 H    1.9743192293    1.4096781683   -0.6453362753
 H    1.5474930715    1.5798622893    1.1163504877
 H    0.4813224461   -0.5843890861   -0.8332519740
 H   -0.1844091510    0.0047665015    2.1246990772
 H   -2.2103139608   -1.7024891902    0.9500412495
 H    0.0635187768   -3.2064101362   -0.3261110792
 H   -0.8009214586   -2.5730359286    3.4541885590
 H    1.7499902111   -2.1443881310    1.9296768938