21

 C   -0.0631784254    1.5818535732    0.0457949403
 C   -0.0264666671    0.0490368599   -0.0153334064
 C    0.6351371771   -0.4800518089   -1.2642871978
 C    0.0560534119   -0.3945719479   -2.6915712809
 C    1.1210007366   -1.4682433892   -3.0341456038
 C    2.4272611860   -0.6610220777   -2.8817738374
 C    2.2241989205   -0.4479068739   -1.3709596442
 O    2.2948989388   -1.8218566186   -0.8804530868
 C    1.0182167814   -1.9602446261   -1.5109362753
 H    0.9467996792    2.0048703971    0.0149679386
 H   -0.6231562247    2.0000452105   -0.7973355168
 H   -0.5400582502    1.9285690895    0.9674553009
 H    0.5069988460   -0.3463373202    0.8581836016
 H   -1.0502842253   -0.3430051755    0.0432491716
 H   -0.9659343400   -0.7871725637   -2.7092621338
 H    0.0943180485    0.5502146674   -3.2424042294
 H    1.0129037461   -2.1424715654   -3.8814053615
 H    3.3416366156   -1.2273593423   -3.0700676402
 H    2.4279023521    0.2552117530   -3.4786895623
 H    2.8535564469    0.2478673902   -0.8166953688
 H    0.4441143958   -2.8460157414   -1.2407397676