18

 C    0.2528007807    1.3475670728   -0.2350639572
 N   -0.3469513047    0.1482843185    0.3631246528
 C    0.4810996351   -0.6426054234    1.1523156934
 C    0.8573277752   -1.9272483166    1.0734174588
 O    1.6180362468   -2.2638317336    2.1958741246
 C    1.7091302885   -1.1446855570    2.9941444763
 N    1.0685525940   -0.1162867496    2.3094449651
 N    2.2571274076   -1.0551617784    4.1270448661
 C    2.8663615866   -2.2501234959    4.6849672625
 H    1.0752876089    1.1239220486   -0.9301659113
 H   -0.5243188952    1.9003746458   -0.7680279135
 H    0.6447997072    1.9939095999    0.5537266816
 H   -0.8159209548   -0.4172621875   -0.3322903895
 H    0.7085212149   -2.6956188463    0.3368483565
 H    0.6861651142    0.6614843097    2.8213448031
 H    2.2670999538   -3.1573648664    4.5256417339
 H    3.8594848408   -2.4373188299    4.2520839471
 H    3.0005918204   -2.1116588410    5.7615898398