23

 C   -0.0608280606    1.6199883593    0.0575122907
 C   -0.1678419488    0.0817491432    0.0094571060
 C   -1.5633321493   -0.3454160461   -0.0972966381
 C   -2.7103022503   -0.6935244218   -0.1989767138
 C    0.7065686398   -0.5608572382   -1.0968359787
 C    0.2971480664   -0.1209264126   -2.5038719655
 C    2.2490069431   -0.4420981075   -0.8665191486
 C    2.3927710816   -1.9543958033   -1.1849853926
 C    0.8606049537   -2.1125561886   -0.9956133705
 H    0.9877298796    1.9261455841    0.1249888219
 H   -0.4993127891    2.0784739974   -0.8321807791
 H   -0.5900967186    2.0125830950    0.9296720268
 H    0.2183028441   -0.3011571295    0.9651339022
 H   -3.7226911018   -1.0034581859   -0.2785609220
 H    0.4360197930    0.9555034073   -2.6486573226
 H    0.9025532931   -0.6317551398   -3.2596198015
 H   -0.7536444580   -0.3592725329   -2.6960175149
 H    2.7904066400    0.2616096878   -1.5048202332
 H    2.4919095464   -0.2174312130    0.1771374847
 H    2.7084460709   -2.1355178424   -2.2155931494
 H    3.0371749987   -2.5395427306   -0.5252999434
 H    0.6020827241   -2.4835417276    0.0004989570
 H    0.3176853019   -2.7079050444   -1.7338710253