15

 O    0.0123628377    0.0071302309   -0.0363691807
 C   -0.0140902812    1.2123847010    0.0052755326
 C   -1.2545314708    2.0695530189   -0.0149419101
 C   -1.4514958193    3.1656199691    1.0254067307
 C   -0.8167131400    3.5000370962   -0.2884806064
 C    0.7114733346    3.4995258725   -0.3292098293
 N    1.3374094564    3.1293166805    0.9505666580
 C    1.2043486268    2.1118014434   -0.1295531253
 H   -2.1358859711    1.6201399293   -0.4558715205
 H   -2.4809195356    3.4711547767    1.1761483648
 H   -0.8270552379    3.1687876801    1.9083803612
 H   -1.3396894386    4.1192099638   -1.0068378461
 H    1.2183587585    4.1978178940   -0.9851837015
 H    2.3038179943    3.4478396651    0.9655688111
 H    2.0958343061    1.6975321986   -0.5863021284