21

 C   -0.0413724678    1.4597143296    0.1383454642
 C    1.2866892943    0.7549954791    0.0371083541
 C    2.0243539249    0.3851048036    1.3336678646
 C    1.0535304593   -0.5544058765    2.0065411769
 C   -0.0227545679   -0.8092817431    1.2550789481
 C   -1.0161574384   -1.7019206685    1.9453058621
 C   -0.2060869272   -2.1970039457    3.1833045488
 C    0.9863638982   -1.2055527577    3.3592308825
 C   -0.0129524227   -0.0491970908   -0.0221345448
 H   -0.3553990413    1.8590901203    1.0980528889
 H   -0.3477653690    2.0517703940   -0.7185244590
 H    1.8700947173    0.9196697100   -0.8613222201
 H    2.9882651701   -0.0996058503    1.1243816032
 H    2.2536071546    1.2688160732    1.9443759650
 H   -1.9155378259   -1.1415900548    2.2393796378
 H   -1.3674951214   -2.5336648649    1.3230893020
 H   -0.8218989556   -2.2760949461    4.0830169821
 H    0.1878253437   -3.1969737427    2.9772537874
 H    1.9111660257   -1.7204462037    3.6470450960
 H    0.7901944961   -0.4680908485    4.1514097240
 H   -0.3817144468   -0.4881112266   -0.9432911940