18

 C    0.1262912635    1.5068097178   -0.0147949510
 C   -0.0209765512   -0.0119137957    0.0323103539
 C   -1.4894391028   -0.4547566608    0.0142246621
 O    0.6702644454   -0.5336909086   -1.1228673063
 C    1.3360495030   -1.7499968257   -0.8113142818
 C    1.5432825743   -1.7276737967    0.6859260844
 O    2.1250650353   -0.5022672194    1.1476447193
 C    0.7040032464   -0.6515718373    1.2103229927
 H    1.1825333381    1.7761116156    0.0491167300
 H   -0.2788183528    1.8932757234   -0.9542629043
 H   -0.4130001767    1.9777509290    0.8131466502
 H   -1.9742685844   -0.0921952659   -0.8961953111
 H   -1.5733877338   -1.5460580177    0.0340366531
 H   -2.0336442262   -0.0556815910    0.8767729016
 H    0.7366122018   -2.6335173491   -1.0865188965
 H    2.2717058968   -1.7782204631   -1.3804363480
 H    1.8024969684   -2.6268915471    1.2380240028
 H    0.2598272450   -0.6520281274    2.2023842589