15

 O   -0.2138399716    1.3180885639   -0.5534563941
 N    0.0085236141   -0.0482645515   -0.3390556352
 C   -1.0041881209   -0.5900023896    0.2074478503
 C   -2.2999588602    0.0895228883    0.5549882181
 O   -3.1628827625   -0.8033905119    1.2657210592
 C   -3.3632973986   -2.0309125746    0.7288478256
 N   -4.4952525442   -2.5767000952    0.7977431647
 O   -2.2674553736   -2.6060486854    0.1542364481
 C   -0.9947942504   -2.0527283441    0.5273187042
 H    0.6068371836    1.6030451469   -0.9696971774
 H   -2.1349076363    0.9434460406    1.2162563570
 H   -2.7952056533    0.4630906071   -0.3509044255
 H   -4.4383028310   -3.5302611406    0.4445376856
 H   -0.2370685080   -2.5864334649   -0.0454086773
 H   -0.8229854871   -2.2217749791    1.5985343865