15

 C   -0.3061809175    1.6023265783   -0.1804076333
 C    0.0524793237    0.1233027958    0.0266802004
 O    0.8116949267   -0.0509183216    1.1888310166
 C   -1.1984673027   -0.7507261247    0.1052189876
 O   -1.4306534336   -1.4167735085    1.0948107996
 C   -2.0777259012   -0.7637600954   -1.0419335338
 C   -2.8084758436   -0.7732512621   -2.0065557319
 C   -3.6742062343   -0.8147774041   -3.1641686602
 O   -4.5385294731   -0.0013124832   -3.3830756541
 H    0.6168643690    2.1857443523   -0.2055352608
 H   -0.8449177734    1.7557090117   -1.1195435405
 H   -0.9206922886    1.9644847800    0.6486346081
 H    0.6197524756   -0.2253072598   -0.8543223529
 H    0.3192327713   -0.6779760046    1.7420173482
 H   -3.4758929483   -1.6662905340   -3.8441870830