21

 C   -0.1154145069    1.5750574099    0.1268628811
 C    0.0627698270    0.0671770868    0.0122530783
 O   -1.1923017690   -0.5725052881   -0.1802900651
 C    1.1473993217   -0.4832216634   -0.9876999455
 C    1.7801013521   -1.2813922542    0.1681687715
 C    2.2909922738   -2.6873302710    0.0645820528
 O    3.5774242599   -2.7791807500   -0.5411276687
 C    2.2241977327   -0.3225740806    1.2347529841
 C    0.7661855906   -0.6830549068    1.1489745532
 H    0.8306285106    2.0823946737    0.3346623794
 H   -0.5100546292    1.9890553597   -0.8101285743
 H   -0.8215714790    1.8116635157    0.9286904290
 H   -1.6163730514   -0.1640015745   -0.9430953072
 H    0.6699807719   -1.1171838558   -1.7394830368
 H    1.7956051502    0.2493178739   -1.4817840504
 H    2.4074695457   -3.1140275234    1.0668923273
 H    1.5595366501   -3.3122036148   -0.4728618827
 H    3.5025255131   -2.4315854354   -1.4355228980
 H    2.7566203844   -0.7707852806    2.0679555859
 H    2.5743964994    0.6741243059    0.9769071818
 H    0.2320294223   -1.1629957473    1.9606608844