16

 O   -0.1049193794    0.1313109592    0.7347793963
 C    0.0546432777    1.0180198331   -0.0514284372
 C    1.3592993057    1.8418367990   -0.1521478258
 O    1.3970862263    2.3490338030   -1.4621186971
 C    2.6481471651    2.8534054073   -1.8626835338
 C    2.6267758744    3.8179278901   -3.0004482628
 C    2.9843067675    4.2980107539   -1.6080236675
 C    1.3498635368    2.8990893875    0.8793935811
 N    1.3110037332    3.7290206470    1.6826082651
 H   -0.7040049083    1.3325771440   -0.7963372469
 H    2.1991653176    1.1632575722    0.0567604439
 H    3.4453981718    2.1126659191   -1.8128594890
 H    3.4039215579    3.7407617229   -3.7517757338
 H    1.6499728396    4.0939073665   -3.3805877154
 H    2.2457091783    4.8932030581   -1.0854252471
 H    4.0144007558    4.5518874472   -1.3852306000