14

 O   -0.0687610550    1.3153076161    0.1123083638
 C    0.0293776519   -0.0508876571   -0.0139643344
 C    0.8147248867   -0.9326508703   -0.9751909101
 N   -0.0789429434   -2.0677979120   -0.4887785493
 C   -1.0739927291   -1.0351875693    0.0212283693
 C   -0.2120570991   -0.9259028688    1.2895726092
 O   -0.4541579475   -0.3291312319    2.4889758418
 C    0.4125476816   -2.2208034922    0.9321504789
 O    1.0173274707   -3.1120251067    1.4320935431
 H    0.8158628947    1.6750118357    0.2545223192
 H    0.6197646130   -0.7121467356   -2.0284860080
 H    1.8838529728   -1.1026888780   -0.8074584060
 H   -2.1425736819   -1.0508891264   -0.1281811063
 H   -0.3445851555    0.6255180663    2.3729058688