19

 O   -0.1206229534    1.3594543470   -0.5311956498
 C   -0.0007107496    0.0942509804    0.1055510504
 C   -1.3602635390   -0.5567418718    0.0519071298
 C   -1.8106774242   -1.3455135365   -1.1420964106
 C   -1.5583497551   -2.0662769070    0.1747742868
 C   -0.3758142241   -3.0287439925    0.2803634071
 O   -0.6995028012   -4.3236273465   -0.1848398591
 C   -2.7000240423   -2.5209946106    0.9264150932
 C   -3.6229564921   -2.9596796803    1.5635781878
 H    0.7164484931    1.8232896202   -0.4334837342
 H    0.7512020604   -0.5299317946   -0.3994418074
 H    0.3170580322    0.2083723969    1.1541633837
 H   -2.1265939161    0.0356093069    0.5424464952
 H   -2.8345319733   -1.2412804511   -1.4797035936
 H   -1.0875405914   -1.5288606910   -1.9302271591
 H    0.4507539262   -2.6829542015   -0.3450384992
 H   -0.0216569450   -3.0555318178    1.3228961846
 H   -1.4825527956   -4.6107461362    0.3001582319
 H   -4.4493218994   -3.3189166339    2.1255080025