23

 C    0.0246475049    1.5749121701    0.0380131837
 C    0.0401184974    0.0653806389   -0.0059941653
 C   -0.8732492114   -0.7518681015    0.8907905899
 C    0.6224261098   -0.8251889493    1.0816784786
 C    1.4252372006   -1.9598572235    0.4221322783
 C    2.9327052492   -1.7458668957    0.6684894870
 C    1.0199931250   -3.3603692046    0.9166852472
 C    1.1018338157   -1.7526427193   -1.0521939454
 C    0.3940290671   -0.6446295141   -1.2759545228
 H    0.9871528369    1.9946492509   -0.2757551338
 H   -0.7474132373    1.9835408210   -0.6251628422
 H   -0.1856292279    1.9382620498    1.0488895080
 H   -1.4304752688   -0.2162717913    1.6541784029
 H   -1.4029597618   -1.5928359634    0.4556441653
 H    1.0281711314   -0.3844778240    1.9871494316
 H    3.1714032852   -1.8548217098    1.7331863366
 H    3.5301193541   -2.4784810920    0.1150210649
 H    3.2421203538   -0.7466779884    0.3478486195
 H   -0.0481742354   -3.5440947581    0.7729721604
 H    1.5703021064   -4.1396040344    0.3772741551
 H    1.2426416533   -3.4751521721    1.9831764598
 H    1.4250182774   -2.4589357574   -1.8105774748
 H    0.0694951044   -0.2885403915   -2.2486967744