22

 C   -0.9194677373    1.5883377118   -0.8039465694
 O   -0.8716598201    0.1815939913   -0.8430678375
 C   -1.7477827789   -0.4196140910    0.0890969490
 C   -1.5133943075   -1.9094797922    0.1133650246
 C   -2.5626228341   -2.9173361465    0.3636206725
 C   -3.8868054743   -2.5750829087   -0.3237371707
 C   -3.0896703672   -2.6113463917   -1.6596068947
 C   -3.1114593963   -1.4868690167   -2.6814876338
 N   -1.7877580172   -2.9071592195   -0.9484248676
 H   -0.2149175898    1.9602631973   -1.5515471656
 H   -1.9246940078    1.9725622529   -1.0410967085
 H   -0.6301142346    1.9790988794    0.1846694093
 H   -1.5438949652   -0.0341350226    1.1038298976
 H   -2.7901772460   -0.1605693393   -0.1424672083
 H   -0.5483447704   -2.1534318577    0.5540586762
 H   -2.4362057812   -3.7141088163    1.0905256617
 H   -4.6329414198   -3.3683491489   -0.2513239277
 H   -4.3600956066   -1.6331632944   -0.0309837030
 H   -3.3361412742   -3.5412894798   -2.1821068465
 H   -2.8294059064   -0.5179295243   -2.2698539292
 H   -2.4067156725   -1.7133723213   -3.4883653665
 H   -4.1113144427   -1.4038312519   -3.1224301117