18

 C    0.0370155944    1.5021483709   -0.0923987615
 C   -0.0005214015    0.0491676850   -0.0339030523
 C   -0.0289407061   -1.1542446447    0.0261731898
 C   -0.0650105014   -2.5908096773    0.0758597033
 C    0.5417695153   -3.4179731627   -1.0899340109
 N   -0.6041699702   -4.3738364349   -1.0297000307
 C   -1.3141480455   -3.5293268499   -0.0407497245
 C   -0.9785690416   -3.9329511928    1.3995807467
 O    0.2464114211   -3.1548486668    1.3758082815
 H    0.6966773376    1.8531322204   -0.8935240501
 H   -0.9598340431    1.9190515875   -0.2742466552
 H    0.4049511643    1.9224694181    0.8499761580
 H    0.6032266492   -2.8437209570   -2.0209873517
 H    1.5139594367   -3.8689891392   -0.8694650990
 H   -1.0981975745   -4.4458101950   -1.9105394102
 H   -2.3255861027   -3.2066004548   -0.2884755200
 H   -1.6711078354   -3.5508716565    2.1606950087
 H   -0.7928783868   -5.0003114902    1.5537008080