17

 C   -0.0698423951    1.5647960358   -0.0551857397
 C   -0.0061505996    0.0697629132    0.0385395341
 C   -0.8683622791   -0.7810330866    0.9604033791
 O   -1.6735682665   -1.8312718790    0.5508018954
 C    0.6147334202   -0.9087087802    1.0570676724
 N    0.9998670977   -1.8567996496   -0.0181730147
 C    0.6200476984   -0.8306426559   -1.0443140351
 C   -0.2151705026   -1.3156060000   -2.1478202144
 N   -0.8480562276   -1.6776051375   -3.0443048621
 H    0.9007372371    2.0001230194   -0.3204875127
 H   -0.7982306607    1.8780265243   -0.8122336211
 H   -0.3803616766    2.0003884896    0.8994531102
 H   -1.3375713622   -0.1925292433    1.7446096617
 H   -1.0755060383   -2.5285797113    0.2411710749
 H    1.2273695621   -0.7628291713    1.9392958473
 H    1.9939512140   -2.0516382652   -0.0416489350
 H    1.5001423489   -0.3399479324   -1.4746790703