18

 C   -0.0351429240    1.5867636584    0.0067663318
 C    1.5066784251    1.7284337867    0.0427981523
 C    1.7379736658    1.0863620742    1.4310816834
 C    1.2757880681   -0.2900847441    0.9197189822
 O    2.3521473110   -0.5227983491   -0.0056221948
 C    1.9833831578    0.5214894604   -0.9234641125
 C    0.6713013963   -0.1039393136   -1.4304168742
 C    0.0137535916    0.0394294099   -0.0375219742
 H   -0.5073292195    2.0143274283    0.8942443390
 H   -0.5227187027    2.0073025874   -0.8757329008
 H    1.9435288350    2.7062485750   -0.1534255508
 H    2.7756838617    1.0294822523    1.7623374464
 H    1.1262869453    1.5510587937    2.2077445682
 H    1.1788673893   -1.1231089513    1.6138279823
 H    2.7940928137    0.7237630269   -1.6212787889
 H    0.1303571927    0.4498946987   -2.2011017200
 H    0.8534998688   -1.1250425925   -1.7679976168
 H   -0.9017265661   -0.5154345112    0.1611880571