23

 C    0.1041103974    1.4454242172    0.3428684784
 C   -0.0398982930    0.0299420249   -0.2319415321
 C   -1.4303906389   -0.5657959871   -0.0711510447
 C   -2.5126470150    0.1495258486   -0.8656311067
 C   -1.6413718772   -2.0602554665    0.0601814113
 C   -0.4811334159   -2.9843612549    0.4394787791
 C   -0.0930635526   -2.5275345386    1.8310960238
 C   -0.8825699017   -1.5438253702    2.2713742749
 C   -1.9045911854   -1.1511387449    1.2608479909
 H    1.1274864115    1.8132043065    0.2177585387
 H   -0.5631833573    2.1609816736   -0.1473384221
 H   -0.1264567723    1.4542447964    1.4134854765
 H    0.2090948195    0.0411248477   -1.3020844870
 H    0.7020179037   -0.6135276283    0.2468770592
 H   -2.2809643626    0.1416766532   -1.9376360306
 H   -3.4860191959   -0.3328782640   -0.7330361032
 H   -2.6203696605    1.1943280051   -0.5561815963
 H   -2.4669192302   -2.4896133575   -0.4973496166
 H   -0.7961255189   -4.0363933284    0.4351621088
 H    0.3603290130   -2.9181807600   -0.2637691633
 H    0.7492096790   -2.9475111207    2.3700027425
 H   -0.7993520858   -1.0614627553    3.2391853249
 H   -2.9087490606   -0.8995974768    1.5892397937