19

 O    0.2084246263    1.4002129370    0.4145604605
 C    0.1190649810   -0.0008428543    0.2023290859
 C   -1.3305875209   -0.4583747082    0.0032930374
 C   -1.4812520941   -1.9756848582   -0.1533635883
 C   -2.9120577936   -2.5260862437   -0.0756597880
 C   -2.8098377940   -3.8087047864   -0.9093841362
 O   -1.7951552201   -3.5436485537   -1.8950560100
 C   -1.0059737600   -2.5063743767   -1.5093213064
 O   -0.0956362588   -2.1160598684   -2.1846452678
 H    0.0621383417    1.8336698214   -0.4318259881
 H    0.7337301895   -0.3278630370   -0.6442626643
 H    0.5276952581   -0.4657441700    1.1078244180
 H   -1.9188971940   -0.1240431749    0.8655826820
 H   -1.7521273782    0.0394692796   -0.8800053311
 H   -0.8602350326   -2.4800163939    0.6026136066
 H   -3.2558789807   -2.7139189113    0.9434560627
 H   -3.6087722029   -1.8230272493   -0.5452025478
 H   -2.4945138589   -4.6683617226   -0.3058875131
 H   -3.7272840278   -4.0712519793   -1.4397584920