19

 C   -0.3981281310    1.3431245632   -0.0304141716
 N    0.2064918160    0.0104161374    0.1014472300
 C    0.8340734827   -0.4697742905   -1.0851508957
 C   -0.0472389307   -0.9647072429   -2.2149714206
 C    0.8321141820   -1.9379593670   -1.4899299357
 C    2.1822932630   -2.2011877006   -2.1190787430
 O    2.8104059616   -0.9116041308   -2.2797976890
 C    2.1722994270    0.0379966358   -1.5284329927
 N    2.6643580996    1.1633537821   -1.2271012263
 H    0.3162166192    2.1209102968   -0.3267785135
 H   -1.1985343587    1.3014680654   -0.7760343804
 H   -0.8499876014    1.6174074430    0.9273551931
 H    0.8896826897    0.0323136612    0.8518960790
 H   -1.1047332218   -1.0016975087   -1.9812568306
 H    0.1954133543   -0.6855567857   -3.2353517685
 H    0.3891474209   -2.6831113016   -0.8423473079
 H    2.8156085197   -2.8220668277   -1.4739052394
 H    2.1289265616   -2.6654024674   -3.1090113814
 H    3.6159930261    1.2469496277   -1.5880861057