20

 O    0.0463822195    1.3734010667   -0.0774609107
 C    0.0350955447   -0.0475616736   -0.0739085431
 C   -1.4154895731   -0.5167825110    0.0127028429
 C   -2.2453806527   -0.0089029563   -1.1884951093
 C   -3.5887566275   -0.6791639783   -1.3052101900
 C   -3.7981764887   -1.9338014364   -0.9044187481
 C   -2.7078242943   -2.7347248550   -0.2954642990
 N   -1.4294116076   -2.8298435411   -1.0618432205
 C   -1.4851626105   -2.0243600988    0.1671796237
 H    0.9506243087    1.6673381055   -0.2190307329
 H    0.4903797607   -0.4563231771   -0.9897137626
 H    0.6040763497   -0.4431536613    0.7841470722
 H   -1.8452901194   -0.0867127487    0.9285403966
 H   -2.3563238940    1.0754109782   -1.1081713229
 H   -1.6755955092   -0.1889324698   -2.1100308419
 H   -4.3961406244   -0.1127106158   -1.7616253816
 H   -4.7720714886   -2.4020931001   -1.0124273023
 H   -3.0082643925   -3.6224128112    0.2546082584
 H   -0.9873553915   -3.7253879114   -0.8684783441
 H   -0.9883460993   -2.4197733247    1.0524725851