18

 C   -0.5197978817    1.4986369376   -0.0794938548
 C   -0.0005665933    0.0695346880   -0.0069937447
 C    1.1989573580   -0.3440462392   -0.9591924062
 C    2.0660693484   -0.4011375763    0.3084524939
 N    2.3089846700    1.0027319136    0.8897163584
 C    1.9298750188    0.2089077176    2.0973263557
 C    0.8294571106   -0.4593311960    1.2510442513
 C    2.8969064021   -0.9427016634    1.5160765417
 O    3.7604229865   -1.6905714782    1.8286999441
 H    0.2928394661    2.2214720877   -0.0128645104
 H   -1.0611692612    1.6575946342   -1.0195030982
 H   -1.2193140550    1.6920633253    0.7410927970
 H   -0.8409206629   -0.6180796942   -0.1353376922
 H    1.0431924601   -1.3194574143   -1.4253452719
 H    1.5165885931    0.3791905920   -1.7129995232
 H    3.3057090525    1.2319095539    0.8787412779
 H    1.9183862766    0.6340249787    3.1021070986
 H    0.4899228716   -1.4362820470    1.5968289328