17

 O   -0.0953372145    1.3535302028    0.0411914482
 C    0.0118991330   -0.0552324855    0.0150124219
 C    0.6692400905   -0.6833432005    1.2877026855
 C   -0.0358393281   -2.0213936971    1.4623983589
 N   -1.3463526828   -1.8932606552    2.1298514446
 C   -1.2908265289   -2.0114264295    0.6590850307
 C   -1.4153272636   -0.6703914455   -0.0489192913
 C    0.7861366848   -0.4750229547   -1.1779795725
 N    1.4148146890   -0.7848086148   -2.0975297258
 H    0.7894966865    1.7339502519    0.0023937906
 H    1.7512602043   -0.7861511378    1.1775802019
 H    0.4590836570   -0.0208602233    2.1319185373
 H    0.5446797841   -2.9257298666    1.6066286144
 H   -1.6098170620   -2.7910968402    2.5306228144
 H   -1.6752564463   -2.9090426561    0.1878308165
 H   -2.0872321135    0.0001402068    0.4930102451
 H   -1.7669355795   -0.7612422347   -1.0779341504