10

 C   -0.1173141927   -1.2078098689    0.0085486578
 C   -0.0357354254   -0.0097002407    0.0147388912
 C    0.0304645185    1.4229487326   -0.0009861029
 O    0.5313384284    2.0875873309    1.1664854664
 C    1.3244308796    2.1587147224   -0.0113589271
 C    2.5869392669    1.4526999628   -0.0023365347
 N    3.6106982320    0.9178351447   -0.0228417213
 H   -0.1748084973   -2.2688835984    0.0087306509
 H   -0.8111420540    1.9316740990   -0.4697265719
 H    1.3584698539    3.1344739256   -0.4932126281