14

 C   -0.0212541021    1.4527075335   -0.0068203848
 C    0.0083249574   -0.0011898612    0.0102627713
 C    0.0273252517   -1.2046580523    0.0191009197
 C    0.0684083205   -2.6465958751    0.0253913031
 C   -0.5934613792   -3.3984955116    1.1254784479
 O   -1.2037801437   -3.3187932931   -0.1495677070
 C    1.1848659690   -3.2543881447   -0.6622173968
 C    2.1211279404   -3.7511531069   -1.2273887662
 H    0.7493262007    1.8540819299   -0.6736218301
 H   -0.9911630357    1.8204108802   -0.3588583846
 H    0.1506161336    1.8671321898    0.9924678819
 H   -0.1938983186   -4.3726142417    1.4025787000
 H   -1.0737156643   -2.8298955789    1.9200262130
 H    2.9454140402   -4.1901025081   -1.7332666973