19

 C    0.1857241580    1.5423417976   -0.0707783106
 C   -0.0463810657    0.0352959154    0.0154879930
 O    0.3353633736   -0.5433876771   -1.2370769745
 C    1.2479202992   -1.5948483648   -1.1822042015
 C    2.4447917348   -1.6505230051   -0.2809242393
 C    1.2910360175   -2.6599798061   -0.1251599594
 C    0.9773584888   -2.0684471582    1.2730003088
 C    2.1095738358   -1.0687747511    1.1176164374
 C    0.6788620507   -0.5947468423    1.1863753063
 H    1.2554162816    1.7610079500   -0.1445697176
 H   -0.3123206543    1.9471256370   -0.9560716475
 H   -0.2146830346    2.0488772156    0.8142111848
 H   -1.1253666144   -0.1502944033    0.1390442227
 H    1.4246889032   -1.9538524773   -2.1917540059
 H    3.4551352145   -1.8099507485   -0.6368197433
 H    1.2690348437   -3.7199030931   -0.3464053750
 H    0.7159465782   -2.6692620500    2.1341162766
 H    2.8598324601   -0.7772842398    1.8406457043
 H    0.4122660693   -0.1477128491    2.1411011807