17

 N   -0.0438543607   -1.1624096286   -0.0706702269
 C   -0.0298120575   -0.0062750387   -0.0330304598
 C   -0.0346516260    1.4437970722   -0.0093080495
 C   -0.1015345026    2.0765078732    1.4240707712
 C    1.4296247911    1.7526339885    1.5282666712
 C    1.3874574263    2.1047682428    0.0003846920
 C    1.0413132548    3.6062398029    0.0880846551
 N   -0.3479333562    3.9594718401   -0.2870224354
 C   -0.0282609840    3.5859397385    1.1107498404
 H   -0.7418087233    1.8320175234   -0.7411970101
 H   -0.8281649006    1.7297618504    2.1565550221
 H    2.0342038829    2.3952960851    2.1733353550
 H    1.6393081831    0.7001490183    1.7266769126
 H    2.1583674582    1.7864450412   -0.6989906136
 H    1.8254616046    4.3522611256    0.0418598485
 H   -0.4236552344    4.9727610024   -0.3461029930
 H   -0.1242117456    4.3152569726    1.9060252501