19

 O   -0.0629666648    1.3813089326   -0.5165306423
 C   -0.0369028366    0.0271992456   -0.1812328589
 C   -1.4424642383   -0.5534951045   -0.0897854323
 O   -2.3927122954    0.1866780380   -0.2356042264
 C   -1.5821186238   -2.0505937189    0.1654843898
 C   -2.9998438001   -2.4624083072    0.6404514575
 C   -3.7182708401   -3.0407391421   -0.6072289576
 C   -2.5878356517   -3.3114727413   -1.5673771049
 C   -1.4318649326   -2.7956724048   -1.1560878198
 H   -1.0060938156    1.6108200859   -0.5469476468
 H    0.5418289988   -0.5543602332   -0.9169310385
 H    0.4533671512   -0.1406095405    0.7942414119
 H   -0.7976222264   -2.3423356727    0.8757932808
 H   -2.9066349622   -3.2346563867    1.4085416827
 H   -3.5361421892   -1.6168067171    1.0728883738
 H   -4.2952379954   -3.9425251754   -0.3735518980
 H   -4.4270989332   -2.3230186456   -1.0395956839
 H   -2.7249551812   -3.8542241547   -2.4963981466
 H   -0.4898014535   -2.8447901075   -1.6899454504