12

 O    0.0822472940    1.3315525469    0.2502218057
 C    0.0675270419    0.0024534150    0.0128985477
 C    0.0601703221   -0.7851485658   -1.1156837213
 N    0.0445424624   -2.1091026299   -0.7582212853
 C    0.0422948698   -2.1363941428    0.5608524784
 N    0.0561025538   -0.8507095393    1.0752030373
 C    0.0280581541   -3.2709887000    1.3988420287
 C    0.0161026459   -4.2180511873    2.1430161419
 H    0.0901127113    1.7953185279   -0.5931141548
 H    0.0652837047   -0.4720183970   -2.1485907451
 H    0.0577410074   -0.5851218376    2.0463615110
 H    0.0054455027   -5.0639720302    2.7847957560