19

 C   -0.0236512462    1.5684463551    0.0197659827
 C    0.0166009061    0.0403731714   -0.0364344782
 C    0.7822908326   -0.4871558205   -1.2545200872
 C    0.7785866585   -2.0094943233   -1.2543394151
 O    1.2718388294   -2.5815036002   -0.0334319393
 C    0.8594974278   -2.0544963687    1.1606668268
 N    0.7473396092   -2.7753312531    2.1956304810
 C    0.6639089602   -0.5570315001    1.2227073905
 H    0.9888611581    1.9853870056    0.0744707600
 H   -0.5087185720    1.9844805454   -0.8694611751
 H   -0.5749686414    1.9184845443    0.8986086544
 H   -1.0167966869   -0.3310417635   -0.1010929616
 H    0.3327776568   -0.1331058021   -2.1895949283
 H    1.8158994545   -0.1175523150   -1.2302371237
 H   -0.2417765010   -2.3826519091   -1.4252750551
 H    1.4199890548   -2.4169211389   -2.0397821915
 H    0.9541968179   -3.7490364089    1.9602495724
 H    1.6592397621   -0.1055668160    1.3474222733
 H    0.0955516196   -0.3310189223    2.1268496740