20

 C   -0.0303859283    1.4138276478    0.0120648793
 O   -0.0258244852    0.0076507719    0.0055311827
 C    0.6646057669   -0.5477921030    1.1046756542
 C    0.5897174698   -2.0689248157    1.0112355657
 C    1.3709921646   -2.7857127263    2.1452119009
 C    0.5164905141   -4.0208270679    2.5318099896
 C   -0.8478214728   -3.6752102973    1.9824305009
 C   -0.8082382016   -2.6287057262    1.1604110542
 H    0.9905244205    1.8265301110   -0.0306506638
 H   -0.5812092222    1.7454115859   -0.8717620147
 H   -0.5235371772    1.8184948316    0.9105234783
 H    1.7179665270   -0.2155953331    1.1033181017
 H    0.2161033962   -0.2059735290    2.0542270667
 H    0.9910671604   -2.3430986212    0.0244619987
 H    2.3907783455   -3.0477765666    1.8525644702
 H    1.4470441005   -2.1138783811    3.0084806811
 H    0.8986338869   -4.9419549724    2.0692169768
 H    0.5102829058   -4.2041253153    3.6124383657
 H   -1.7347470037   -4.2543013789    2.2168882587
 H   -1.6483230574   -2.2118652041    0.6177064530