21

 C    0.1389643859    1.5131033580    0.0053918738
 C    0.0301350626   -0.0017119855   -0.0075471560
 O    0.7011631447   -0.4873844901   -1.1628792276
 C    0.6799641232   -1.8700705835   -1.2878137648
 C    1.5630547656   -2.7279538643   -0.3314599421
 C    2.1966485156   -3.4368954486   -1.5730591181
 C    1.3079989391   -2.5870876274   -2.5110439685
 O    0.0543707983   -3.2311786438   -2.8202341047
 C   -0.6323811990   -2.5502982657   -1.7436949809
 H    1.1879103006    1.8212283640    0.0345735118
 H   -0.3175006051    1.9377142195   -0.8930861631
 H   -0.3694877541    1.9244889376    0.8824208276
 H    0.4804340614   -0.4300953024    0.9013365202
 H   -1.0268896978   -0.3122274987   -0.0246996102
 H    2.2798317237   -2.1099184706    0.2140687407
 H    1.0320773631   -3.3659010146    0.3795464909
 H    3.2669586325   -3.2458325215   -1.6828823579
 H    2.0134115283   -4.5091142195   -1.6624215838
 H    1.7525291034   -2.0854920200   -3.3735233722
 H   -1.1136758182   -3.2490634937   -1.0485082532
 H   -1.3754820437   -1.8394561992   -2.1277651220