18

 C    0.0785194503    1.5348490207    0.1105848483
 C   -0.1028400391    0.0271615774   -0.1021566195
 N    0.6737132272   -0.4304619891   -1.2379973265
 C    1.7552025638   -1.1126628344   -1.1230992830
 N    2.4281627028   -1.5598924652   -2.2183818289
 C    2.0252422884   -1.2187727261   -3.5614263653
 C    2.4546623772   -1.5014697447    0.1583506202
 O    3.5102350878   -2.0914341638    0.1661318604
 H    1.1062247267    1.7649629182    0.4110438703
 H   -0.1285807237    2.0758844716   -0.8169809937
 H   -0.5982745960    1.9012072414    0.8891146082
 H    0.0967576137   -0.5029026217    0.8403116195
 H   -1.1572519107   -0.1671963917   -0.3373710072
 H    3.3270067303   -1.9765268244   -2.0385955630
 H    2.6689943311   -1.7434192198   -4.2702410733
 H    0.9854279971   -1.5149393933   -3.7328186237
 H    2.0899641036   -0.1387383240   -3.7484696030
 H    1.9675841394   -1.1944946313    1.0989397004