18

 C    0.4298881584    0.8615029592   -0.8259705418
 C   -0.1025797726    0.1443006731    0.3925541490
 O    0.3878386441    0.2766146730    1.4923779161
 C   -1.3235155003   -0.7482775573    0.2341662367
 C   -2.1533377097   -0.8884220883    1.4936162071
 N   -1.9783274695   -0.7161850501   -1.0800598869
 C   -1.2664652059   -1.9471475633   -0.6925463926
 C   -0.1178705481   -2.3570785610   -1.4524121087
 C    0.8315682146   -2.7584734857   -2.0714860663
 H    1.2932707034    1.4602874427   -0.5340970850
 H    0.7083553842    0.1481048625   -1.6062326192
 H   -0.3516609931    1.4967202034   -1.2541391149
 H   -2.6030525752    0.0724052343    1.7653259606
 H   -2.9566192179   -1.6186185214    1.3545574330
 H   -1.5238632606   -1.2031405949    2.3279108838
 H   -2.9818360320   -0.8510117125   -0.9779798202
 H   -1.8741178448   -2.7819320643   -0.3464853220
 H    1.6739967751   -3.1022174795   -2.6194672187