17

 C    0.2349448011    1.4982873900    0.1047245836
 C    0.0293159875    0.0031295219   -0.0285407930
 C    0.7384649527   -0.6555134943   -1.2742896873
 C    1.4554716847   -1.7885723120   -0.6024570373
 C    1.2912291320   -1.6610850594    0.7333680305
 N    1.9903215087   -2.6619292448    1.3373283638
 C    2.5649350053   -3.3714984888    0.2851783682
 N    2.2628394043   -2.8645216132   -0.8894704962
 O    0.5537471898   -0.6411071546    1.2073933679
 H    1.3023945716    1.7366014459    0.1398500816
 H   -0.2052209219    2.0136220386   -0.7551394068
 H   -0.2373758376    1.8788805955    1.0145111669
 H   -1.0384232029   -0.2386502905   -0.0400547012
 H   -0.0037978837   -0.9595995727   -2.0197060669
 H    1.4144336901    0.0595389186   -1.7616687469
 H    2.0690591569   -2.8607691739    2.3197540700
 H    3.1788596816   -4.2399342762    0.4666943730