15

 C   -0.0649666295    1.5716085059    0.0146099471
 C    0.0633426637    0.0575406097    0.0833347729
 O    1.0852842218   -0.4778884349   -0.8109050270
 C    1.6680320595   -1.2257306544    0.2683148107
 C    2.2204461720   -0.2996488193    1.2977315152
 C    0.7387175291   -0.6207296641    1.2909541999
 C   -1.2273169817   -0.5873221144   -0.2201499608
 N   -2.2485453819   -1.0820613894   -0.4376579531
 H    0.8805665707    2.0428350225    0.2886232959
 H   -0.3297046026    1.8789246166   -1.0007276460
 H   -0.8476033611    1.9164997843    0.6963723771
 H    1.9821344313   -2.2417811716    0.0667865511
 H    2.7587120154   -0.7721123822    2.1137422022
 H    2.5974437086    0.6740947428    1.0015826683
 H    0.2130370148   -1.0624968615    2.1250409965