19

 C   -0.1803341618    1.5240951673   -0.1207604279
 C   -0.0351023251    0.0112266615   -0.0007429224
 N   -1.3324201693   -0.6355338481   -0.0392333140
 C   -1.4795030523   -1.9801270121   -0.0774222566
 N   -0.4745657417   -2.7815666863   -0.1207289262
 C   -2.9392594079   -2.3998604581   -0.0653840410
 O   -3.8298888221   -1.5768114668    0.0140123175
 C   -3.2977822878   -3.8747616417   -0.1493690371
 O   -4.6807838235   -4.0587961137   -0.1251728968
 H    0.8021740374    2.0018689109   -0.0900873415
 H   -0.6638840008    1.8009736073   -1.0630475855
 H   -0.7761158247    1.9326758511    0.7029731698
 H    0.5780651032   -0.3897298412   -0.8162590701
 H    0.4875577894   -0.2557409922    0.9283005146
 H   -2.1767552319   -0.0934594887    0.0544408510
 H   -0.7737367929   -3.7521206583   -0.1636703928
 H   -2.8565587349   -4.2862769617   -1.0717809475
 H   -2.8115932894   -4.3978212396    0.6902161570
 H   -5.0616968838   -3.1693353397   -0.0564785706