14

 N    0.0075402795    1.5093751674    0.0408189362
 C    0.0291750841    0.0419953733   -0.0014700973
 C   -1.4385384269   -0.4819980117    0.1227726914
 C   -2.1259651530   -0.0037038791    1.3184685553
 N   -2.7005479796    0.3497281932    2.2553839503
 C    0.6120312270   -0.5139208302   -1.2362605045
 C    1.0563270433   -0.9230210033   -2.2744955104
 C    0.8208766069   -0.4376026997    1.1535311163
 N    1.4497815173   -0.8235786097    2.0410575110
 H    0.9583553135    1.8667637529    0.0506896074
 H   -0.4300596807    1.8565043150   -0.8087408652
 H   -1.9844357988   -0.1517961809   -0.7669758738
 H   -1.4327676067   -1.5752233234    0.1127378473
 H    1.4659403541   -1.2891465138   -3.1845474139