17

 C    0.1748019116   -1.0807210416   -0.3797589487
 C    0.1400241527    0.0867263840   -0.0957490716
 C    0.0999246290    1.5090650586    0.2530034761
 N    1.4168679979    2.1421432875    0.1889795845
 C    1.7657938288    2.6568289103   -0.9114066991
 N    2.9545032979    3.3361195048   -1.1291076103
 C    3.2062948408    3.4176702334   -2.5591698444
 C    1.7581955521    3.3995813934   -3.0698408186
 O    1.0421556903    2.6579467805   -2.0720137663
 H    0.2038935829   -2.1118447144   -0.6300325083
 H   -0.6350200276    2.0091296146   -0.3938432786
 H   -0.2653642167    1.6062276342    1.2823473871
 H    3.7033372255    3.1051249276   -0.4950313453
 H    3.7297419692    4.3379252999   -2.8315730960
 H    3.7780401748    2.5605576442   -2.9441596488
 H    1.3415510103    4.4114761846   -3.1317527787
 H    1.6354405505    2.8966075984   -4.0303865332