21

 C    0.0548788055    1.3345512320   -0.0421915547
 O   -0.0723217527   -0.0657251841    0.0407848747
 C   -1.3911624058   -0.5933184250    0.0380682559
 C   -2.1936391487   -0.0883889947    1.2385478015
 C   -2.1086401172   -0.4591107704   -1.3557986884
 C   -2.0910208552   -1.9549834951   -1.7381197495
 C   -2.5902054889   -2.6740376993   -0.4670670059
 C   -1.2163097612   -2.1349911004   -0.0086211828
 O   -0.7329781072   -2.3457808399   -1.3691391681
 H    1.1193137685    1.5436345201   -0.1763221319
 H   -0.4910915235    1.7564706959   -0.8990404546
 H   -0.2858174366    1.8481341138    0.8682566793
 H   -2.3906016640    0.9853087653    1.1656318952
 H   -3.1620707629   -0.5881752354    1.3147463855
 H   -1.6379252502   -0.2682992549    2.1647714644
 H   -3.1165577518   -0.0391010708   -1.2944045087
 H   -1.5154998103    0.1316961480   -2.0558181320
 H   -2.3809904279   -2.2441388322   -2.7484639786
 H   -3.5091884970   -2.3416354746    0.0207662945
 H   -2.5709010380   -3.7580511689   -0.5805888096
 H   -0.6003350951   -2.5906297493    0.7661327137