19

 N   -0.0540770075    1.2868228324   -0.1402245056
 C   -0.0236300149    0.0271721967   -0.0643947702
 O    1.1144770241   -0.7382533523   -0.0213675281
 C    0.7283679266   -2.1376876149    0.0976737147
 C   -0.6404344696   -2.1739668160   -0.5909500048
 C   -1.2237450195   -0.9097859281    0.0488604896
 N   -1.5521060760   -1.2194814180    1.4516214346
 C   -0.3633731204   -1.4982229626    2.2766608260
 C    0.5732625984   -2.5017365694    1.5799387571
 H    0.8942742540    1.6688767219   -0.1626462715
 H    1.5081342166   -2.7218969787   -0.3938077267
 H   -0.5364038384   -2.0634257901   -1.6740428186
 H   -1.2227211854   -3.0670008201   -0.3615753734
 H   -2.1036635685   -0.4995021058   -0.4444140977
 H   -2.0514791888   -0.4327333724    1.8536539860
 H    0.2154798390   -0.5857564823    2.4913057645
 H   -0.6974137579   -1.8987734382    3.2388503542
 H    0.1735794439   -3.5199684123    1.6439171707
 H    1.5454487743   -2.4951774498    2.0819983791