15

 N   -0.0560863082   -1.1569988257   -0.0336443149
 C   -0.0423046355   -0.0020722779   -0.0103311286
 C    0.0033018856    1.4570649022    0.0182948854
 C    1.4428289472    1.9919326016   -0.0736084521
 N    1.4224866976    3.4475717927   -0.0153991838
 C    2.7615218891    4.0278953131    0.0237539205
 C    2.6958944116    5.4914594272    0.0328332200
 N    2.6441702676    6.6448841891    0.0157900286
 H   -0.5968494061    1.8409597027   -0.8156534352
 H   -0.4620214387    1.8207451295    0.9398261121
 H    2.0171932120    1.6217796329    0.7830426447
 H    1.9284965216    1.5905954347   -0.9795136046
 H    0.9186335186    3.8234390117   -0.8132663442
 H    3.2620071344    3.6976629465    0.9424071128
 H    3.4117939734    3.7210337398   -0.8152484008