20

 C    0.1233488385    1.3546567822    0.1778764705
 N   -0.1738397069   -0.0313443369   -0.1190627048
 C    0.5385337307   -0.6458811948   -1.1388167151
 C    1.2282401313   -0.0837968126   -2.1866001944
 N    1.6983799326   -1.1634141069   -2.9314236164
 C    2.4715816187   -1.0555006522   -4.1480769132
 C    1.2837923305   -2.2963175137   -2.2989423952
 C    1.5840855989   -3.6809674230   -2.7717071730
 N    0.5839349821   -2.0163415833   -1.2135658089
 H    1.1906964982    1.5453509544    0.3814256649
 H   -0.1712566328    1.9878396502   -0.6674745832
 H   -0.4605580883    1.6727536299    1.0448338182
 H   -0.2440165591   -0.6316797872    0.6901996805
 H    1.4265976862    0.9321931675   -2.4800104414
 H    3.3870904631   -0.4786280461   -3.9775264363
 H    2.7521918496   -2.0511779937   -4.4930544482
 H    1.8951775030   -0.5644483863   -4.9402667758
 H    2.6605878936   -3.8845478636   -2.8161437195
 H    1.1339150178   -4.3815187761   -2.0674576046
 H    1.1687325225   -3.8818976277   -3.7662720341