20

 C   -0.0507713000    1.5862364222   -0.2194085176
 C    0.0343460212    0.0762565556   -0.0519697562
 C    1.3649376836   -0.6094238888   -0.2095544582
 N    0.7385201281   -0.5353497531    1.0971123499
 C    1.3282497972    0.2967498530    2.1075973212
 C    0.5888076668    0.4084620250    3.4134292134
 C    1.8536352118   -0.4112327298    3.3293431242
 C   -1.1655315230   -0.6239221852   -0.4506889403
 C   -2.1749124919   -1.1718609260   -0.8065236803
 H    0.9025680222    2.0747571188   -0.0083521108
 H   -0.3337447161    1.8273040911   -1.2479294246
 H   -0.8119375764    2.0060741113    0.4452116904
 H    1.4227045809   -1.5966989505   -0.6592974704
 H    2.2177889105    0.0392004421   -0.4103826192
 H    1.8879724949    1.1731382501    1.7789099552
 H    0.6148233810    1.3569046001    3.9380200479
 H   -0.3487872102   -0.1299251893    3.4859504097
 H    1.7497882944   -1.4895596931    3.3445354180
 H    2.7548348085   -0.0278742281    3.7945545719
 H   -3.0622825036   -1.6696481055   -1.1098946840