17

 C    0.0203699809    1.4324682448    0.1524459974
 N    0.3547275824    0.0280256424   -0.0684563758
 C    0.6946419650   -0.7609636529    1.0055208712
 C    0.5774302829   -2.0889547169    1.2976787374
 N    1.2079442036   -2.3314193996    2.5114913639
 C    1.6536362291   -1.1838712673    2.9033741745
 C    2.4442571774   -0.8567755389    4.1216007389
 O    3.8259603749   -0.6394919788    3.8534119121
 O    1.3749322340   -0.1649009852    2.0193348106
 H    0.8656397745    1.9361882616    0.6247209431
 H   -0.1593005756    1.9022695262   -0.8168055421
 H   -0.8662712971    1.5768444030    0.7872148858
 H   -0.2725784233   -0.4474800749   -0.7004908210
 H    0.0936422730   -2.8681536925    0.7321524426
 H    2.0843794828    0.0740254615    4.5701373804
 H    2.2868594037   -1.6718053142    4.8394644799
 H    4.1666537916   -1.4463826783    3.4519140411