19

 C    0.3282971453    1.6329466463   -0.6582686124
 C   -0.0204809793    0.3356941927    0.0770260731
 C    0.3668765951   -0.9484458659   -0.7285949577
 N    1.5784489408   -1.3543142968   -0.0230261917
 C    1.5849256594   -0.7019229738    1.1879631188
 N    0.7428451529    0.2506245808    1.3434401191
 C    2.5522996354   -1.1150978549    2.2366187694
 C    2.5410046552   -2.4859345496    2.7785246902
 O    3.5380032354   -2.0765586614    1.8450106649
 H    1.3878481771    1.6453714021   -0.9349413142
 H   -0.2683792103    1.7390468146   -1.5708591684
 H    0.1362450719    2.4946592860   -0.0136752824
 H   -1.0911948863    0.3378041128    0.3064041959
 H   -0.4146783495   -1.7192910321   -0.6729824787
 H    0.5655672669   -0.7382726776   -1.7844974389
 H    2.0246072620   -2.2487630264   -0.1386055486
 H    2.9044103136   -0.3092711323    2.8757513098
 H    2.8890371422   -2.6569872175    3.7955539860
 H    1.8127110023   -3.2034728270    2.4042513557