18

 C    0.1328151574    1.4003773531   -0.2406924672
 C    0.0193388010   -0.0480765078    0.1638221877
 O    1.2133941452   -0.8433265642    0.1259376718
 C    0.5764462509   -0.6056861546    1.4073130697
 C    1.3631187764    0.2534084461    2.3964818325
 O    1.8237124343   -0.4639841685    3.5231863595
 C    0.0133682997   -1.8973771190    1.9698478434
 O    1.0824053215   -2.8208898533    2.1849199710
 H    1.0086786826    1.8800137092    0.1995952571
 H    0.2100904551    1.4816617959   -1.3296568408
 H   -0.7616112200    1.9496659357    0.0723592102
 H   -0.8510407758   -0.5597633664   -0.2538474870
 H    2.1898988592    0.7295023877    1.8491157102
 H    0.7175225622    1.0534028706    2.7818506185
 H    2.0383897396   -1.3623115216    3.2345214323
 H   -0.4537251563   -1.7353873326    2.9440712767
 H   -0.7319438121   -2.3195463542    1.2831783343
 H    1.5210438692   -2.9142266660    1.3293278502