19

 C    0.1258116605    1.4131158363   -0.2946449002
 C    0.0077036586   -0.0828858025    0.0554232777
 C    0.6422747873   -0.3814342960    1.3395616182
 C    1.1675250371   -0.6172886158    2.3945105433
 C   -1.4545047681   -0.5662374357    0.0255188985
 C   -2.0065433064   -1.0287677519   -1.3160740630
 C   -1.7020189489   -2.0397114847   -0.2485457238
 C   -2.3571296039    0.1071166182    0.9209045722
 C   -3.1115169981    0.6766749599    1.6650852908
 H    1.1734190628    1.7238253614   -0.3021799391
 H   -0.3051554641    1.6040186907   -1.2820041713
 H   -0.4098951447    2.0188472939    0.4401094254
 H    0.5356864903   -0.6560975558   -0.7188811070
 H    1.6272625168   -0.8288697027    3.3278965415
 H   -3.0439347986   -0.8032427911   -1.5312243172
 H   -1.3423393004   -0.9651923135   -2.1718029365
 H   -0.8251847803   -2.6676476307   -0.3644273525
 H   -2.5305416844   -2.5091909687    0.2672822783
 H   -3.7745589957    1.1731006587    2.3291967744