17

 O   -0.1171045249    1.4916821636   -0.0869654668
 C    0.0642787352    0.0928239895    0.0768011157
 C   -1.3218367175   -0.5358619292   -0.0081079748
 N   -1.9536320643   -0.3270154784   -1.2931325219
 C   -2.4992855914   -1.4482594235   -1.8644108903
 O   -3.1069093895   -1.5155814384   -2.9001712037
 N   -2.2202827480   -2.5804155966   -0.9970871963
 C   -0.7697148691   -2.8816604092   -0.9882324079
 C   -1.3693608756   -2.0601776763    0.0911119048
 H    0.7463429279    1.9139767648   -0.1101056790
 H    0.7096021712   -0.3242215484   -0.7092457078
 H    0.5122467853   -0.1485259195    1.0535351849
 H   -1.9273826024   -0.1017699574    0.8007599710
 H   -2.0513972037    0.5832776146   -1.7106701134
 H   -0.5268711094   -3.9220164052   -0.7967197179
 H   -0.1545493379   -2.3972277255   -1.7414364230
 H   -1.5302323159   -2.4960837047    1.0711190763