19

 C    0.0027839723    1.4885363919    0.0499299204
 C    0.0004892938   -0.0081741627   -0.0284592900
 C   -0.0232219809   -0.7431291519   -1.1530880466
 C   -0.0215467241   -2.2511634541   -1.0604030626
 C   -1.0702700312   -2.6783299572    0.0142304440
 C    0.0226957041   -2.2965208543    1.0626875865
 C    1.0708913698   -2.6786609298   -0.0304054560
 C    0.0267381421   -0.7822037882    1.2503595948
 O    0.0497985227   -0.2501357175    2.3414014398
 H    0.8921718859    1.8494408653    0.5776048885
 H   -0.0229409302    1.9400860951   -0.9452587806
 H   -0.8576957677    1.8494939178    0.6233755380
 H   -0.0436939143   -0.2739492756   -2.1333233908
 H   -0.0420290411   -2.7317185772   -2.0393960040
 H   -2.0204554924   -2.1400244368    0.0356075742
 H   -1.2512325975   -3.7567529961    0.0091958159
 H    0.0428366815   -2.7932962864    2.0329406501
 H    1.2511420396   -3.7571402867   -0.0429943197
 H    2.0213195477   -2.1406649056   -0.0486399818