14

 O    0.0052977976    1.3433855890    0.0081925700
 C   -0.0079200224   -0.0076906074    0.0009812867
 C   -1.2377744377   -0.6021631405    0.0050407073
 C   -1.6104302639   -2.0038991066   -0.0004168432
 O   -2.7892944501   -2.3466015216    0.0043960023
 C   -0.5756219797   -3.0608989971   -0.0118887344
 C    0.7714765306   -2.9611996947   -0.0192965376
 C    1.5825873484   -1.7727938879   -0.0179069023
 N    1.2630104772   -0.5218758706   -0.0093745091
 H    0.9379918526    1.5995007142    0.0040257842
 H   -2.0865723677    0.0742878326    0.0136819438
 H   -1.0182420618   -4.0541597803   -0.0144447136
 H    1.3424577868   -3.8864591339   -0.0274643449
 H    2.6585483601   -1.9581539552   -0.0253131893