20

 C   -0.0921490619    1.5288746972   -0.0325450872
 C    0.0052046453    0.0083122099    0.0014926743
 O   -1.2663752850   -0.5987507442   -0.1271034856
 C    1.1467037496   -0.5683500163   -0.8915681600
 O    1.5414740016    0.2704373882   -1.9512794506
 C    2.0524395943   -0.6938838193    0.3730294625
 C    0.7787294581   -0.5530553330    1.2082284761
 C    0.5223495169   -0.3269085270    2.6430464869
 N    0.2638378890   -1.6452805494    2.0263669326
 H    0.8814429177    1.9965744862    0.1309513408
 H   -0.4517038017    1.8691695778   -1.0101475194
 H   -0.7820045542    1.8750436710    0.7429861510
 H   -1.7841207237   -0.0977260038   -0.7653861454
 H    0.8403844491   -1.5613594504   -1.2460540592
 H    2.2550697190   -0.1609978216   -2.4312762061
 H    2.6113701080   -1.6224006764    0.5017570463
 H    2.7246456221    0.1642966661    0.4681729039
 H    1.3478104387   -0.3066291756    3.3499579213
 H   -0.3262766526    0.2951679879    2.9196564256
 H   -0.7320355002   -1.7444617973    1.8344990921