21

 O   -0.0706921715    1.3436671337    0.1747665168
 C   -0.1146822303   -0.0673478879    0.2013420061
 C   -1.5543608173   -0.5865704231    0.0528263374
 C   -2.4227267163   -0.1538354057    1.2174534602
 C   -3.5635038690   -0.9850245687    1.6718609101
 N   -2.3451568112   -0.8785613435    2.4957585754
 N   -2.0760824436   -0.0189440844   -1.1950213331
 C   -1.8326359190   -0.7699776495   -2.4244792562
 C   -3.1990011793   -0.6859114751   -1.8388480467
 H   -0.6514325445    1.6043627735   -0.5527680057
 H    0.5068876300   -0.5055526169   -0.5976767686
 H    0.3024095681   -0.3879721876    1.1616042158
 H   -1.5328889833   -1.6938030955    0.0201915689
 H   -2.4825736627    0.9239771119    1.3370178140
 H   -4.4469821441   -0.5171705998    2.0967389989
 H   -3.7561668828   -1.9216531621    1.1539039110
 H   -1.7850669175   -1.7217675078    2.3828877758
 H   -1.5667802849   -0.1812604520   -3.2974480590
 H   -1.3142873676   -1.7239584468   -2.3431501541
 H   -3.5930951928   -1.5849849478   -1.3702615291
 H   -3.9505496607   -0.0353089852   -2.2764067778