13

 C   -0.0237668206    1.4889910804   -0.0810652131
 C   -0.0256380147   -0.0179120555    0.0356952863
 O   -0.0438311371   -0.6084325473    1.0942520068
 C   -0.0029987634   -0.7967084959   -1.2269504752
 C    0.0014325127   -2.1418657684   -1.4538847391
 C    0.0264523340   -2.2353716407   -2.8660084563
 N    0.0362959416   -1.0530525173   -3.4404931182
 O    0.0176853259   -0.1372342001   -2.4038687346
 H    0.8631820865    1.8280306989   -0.6266516202
 H   -0.8925158703    1.8277431620   -0.6553928910
 H   -0.0402814278    1.9258145396    0.9174272064
 H   -0.0114150450   -2.9250859410   -0.7158008423
 H    0.0377384884   -3.1181172547   -3.4892287195