21

 C   -0.0281049050    1.4880216788   -0.2563118910
 C    1.5000309341    1.5651913692    0.0300942739
 C    1.4780157727    0.0987490278    0.5535830301
 C    1.5789792862   -0.1191757912    2.0625667675
 C    0.3926920887    0.5717895226    2.7983633893
 C   -0.4500867523   -0.6514143955    2.3443273687
 C    0.8704114753   -1.4727409968    2.3701610173
 O   -0.9533049960   -0.5090035056    1.0252189036
 C   -0.0078736994   -0.0323702909    0.0760909408
 H   -0.6454868038    2.0558923331    0.4425208857
 H   -0.3418059868    1.7400009235   -1.2722098122
 H    2.1075264401    1.6931355524   -0.8686465165
 H    1.8122540167    2.3178417490    0.7588652558
 H    2.1733273266   -0.5781111679    0.0466111830
 H    2.5919849334    0.0514983287    2.4368997197
 H    0.5398035337    0.5632203608    3.8817295266
 H    0.0698567856    1.5676497005    2.4894436929
 H   -1.2955170400   -0.9776000877    2.9523855279
 H    0.9670807858   -2.2843535309    1.6436476167
 H    1.0943369825   -1.8435326867    3.3737798453
 H   -0.1246523680   -0.6513076431   -0.8185674352