14

 N    0.0133141286    1.3165325755    0.1403764072
 C   -0.0169924609   -0.0617555723    0.0178640091
 N   -1.1202641794   -0.7885823174   -0.0565163385
 C   -0.6906445695   -2.0834846826   -0.0667708693
 O   -1.5588036135   -3.1060784269   -0.1395200244
 C    0.6845882756   -2.1796655783   -0.0142084192
 N    1.0959843476   -0.8265887158    0.0351201967
 C    1.5749409734   -3.2570064117   -0.0240000920
 C    2.3641204763   -4.1707740139   -0.0234932909
 H    0.7258865638    1.7746488052   -0.4125372829
 H   -0.8990326093    1.7131384973   -0.0408760867
 H   -2.4400222597   -2.7138078263   -0.1692068204
 H    2.0407725470   -0.5204660828    0.1927765670
 H    3.0426275400   -4.9866167102   -0.0334978055