15

 C   -0.0089991106    1.4233998925    0.0118786020
 O   -0.0224134959    0.0128660850   -0.0492821970
 C    0.6353258026   -0.5709166981    1.0529532744
 C    0.5984951369   -2.0205039444    0.9523639266
 C    0.5875496075   -3.2304482670    0.9020879091
 C    0.5718965593   -4.5825406333    0.8400475504
 C    0.5605647855   -5.7965084574    0.7889386847
 C    0.5271852480   -7.2302999968    0.6946591302
 O    1.0184616972   -7.9807781328    1.5076744111
 H    1.0173316810    1.8221084725    0.0069646645
 H   -0.5352138706    1.7857145763   -0.8731744389
 H   -0.5214105413    1.7974910126    0.9117864202
 H    1.6878411910   -0.2389291380    1.1062997563
 H    0.1636598612   -0.2624992448    2.0033549121
 H    0.0022465181   -7.6096997462   -0.2051556258