18

 C   -0.1327873274    1.4559393436    0.6568159607
 C    0.0911425032    0.0205098212    0.2376697210
 C    0.3893434535   -0.3600851435   -1.1924709483
 C    0.5274968575    0.6560073656   -2.1982607526
 C    0.6468624036    1.4877329405   -3.0599569017
 N    1.3931308263   -0.5305530544   -0.1209662547
 C    2.5752946693    0.3372234410   -0.1102327579
 C    3.6939891353   -0.3010598874   -0.7984943553
 C    4.6217913944   -0.8083927828   -1.3678109117
 H    0.2513716466    1.6297692486    1.6678519037
 H    0.3343226293    2.1699005111   -0.0235106013
 H   -1.2066118800    1.6679777928    0.6717752617
 H   -0.5113052646   -0.6953358735    0.7965124614
 H   -0.0000461600   -1.3047000480   -1.5661027938
 H    0.7516748743    2.2154456864   -3.8262985656
 H    2.4017454635    1.3243383934   -0.5624133246
 H    2.8416602943    0.5056289940    0.9404824828
 H    5.4398163910   -1.2602509986   -1.8716415037