16

 C   -0.0646417995    1.4011438457   -0.0720202560
 O    1.3904170314    1.4880782319   -0.1250802526
 C    1.4962497102    0.0794928937    0.0778087285
 C   -0.0142340124   -0.1171065905    0.0365369723
 C    0.8687530377   -0.6450165877   -1.0680591716
 C    0.9153060305   -0.2675136503   -2.5495454719
 N    1.1945195015   -1.5452940584   -3.2327647891
 C    1.2329163630   -2.4233895268   -2.3225383564
 O    1.0364597508   -2.0668572307   -1.0248097655
 H   -0.4416213363    1.8926157579    0.8310561398
 H   -0.5399775595    1.8378859204   -0.9579038315
 H    2.2828711615   -0.3090757064    0.7141698613
 H   -0.6631083861   -0.7589548263    0.6163055883
 H   -0.0311365315    0.1465736407   -2.9172829383
 H    1.6992094861    0.4652503890   -2.7630151405
 H    1.4096300824   -3.4827833022   -2.4684109366