17

 C   -0.0353644004    1.5490707318   -0.1296799704
 C    0.0144705247    0.0516089109    0.0010500040
 O    1.3232748736   -0.5703343828   -0.0693939191
 C    0.6258741616   -0.6246526525    1.1425672696
 C    1.1190243803   -0.1066965385    2.4944182579
 N    0.3693201367   -1.2187057766    3.1412780354
 C    0.2167629891   -1.9368529541    1.8512528193
 C   -1.1148929875   -2.4799106888    1.5868767620
 N   -2.1645340554   -2.8998195031    1.3463710540
 H    0.7511449997    2.0230788661    0.4631378822
 H    0.0962736946    1.8462890849   -1.1747277809
 H   -1.0067313674    1.9252617733    0.2078915210
 H   -0.7503357033   -0.5011821481   -0.5453925734
 H    2.2117441626   -0.1723826118    2.5776763698
 H    0.7920126435    0.8897813886    2.8062536941
 H    0.8805474465   -1.7361420831    3.8465912263
 H    0.9642304510   -2.7199440661    1.6624872784