16

 O   -0.1919081344    1.5561218709    0.3296615331
 C   -0.0116030096    0.1814352917    0.0723778522
 C   -1.3346772335   -0.5751586097   -0.0722952479
 N   -2.0311881452   -0.2288818329   -1.2975806197
 N   -2.2798961294    1.0861477874   -1.6363827295
 C   -2.8963717185    1.0244116969   -2.7750715601
 N   -3.0654319359   -0.2659873264   -3.1915598462
 C   -2.5016095072   -1.1264559136   -2.2368169903
 O   -2.4454446256   -2.3371408694   -2.2455267874
 H   -0.7884299778    1.8925874419   -0.3533490610
 H    0.6012280906    0.0048705496   -0.8270110000
 H    0.5325036660   -0.2322037206    0.9283913748
 H   -1.1708535746   -1.6548888127   -0.1246689785
 H   -1.9733728427   -0.3555290162    0.7912685409
 H   -3.2365721956    1.8862255954   -3.3268597930
 H   -3.5134699666   -0.5923651524   -4.0299602775