20

 C   -0.0589953194    1.5821734692    0.0413500733
 C   -0.0085747803    0.0454855118   -0.0020420517
 C   -1.4307502640   -0.5372508874   -0.0286309994
 O   -2.0843401589   -0.0772174629   -1.2018407023
 C    0.8003245242   -0.4735881770   -1.1866965326
 C    1.7943763651   -1.2868178832   -0.8253035703
 C    1.8606256960   -1.4041239177    0.6608439577
 N    2.1523680467   -0.0931208489    1.3156864770
 C    0.7564223102   -0.5580655614    1.1860086124
 H    0.9523580566    1.9864517755    0.1144870708
 H   -0.5439632135    1.9774916565   -0.8543271535
 H   -0.6319368376    1.9240554246    0.9112501269
 H   -1.3732512453   -1.6366327005   -0.0105418216
 H   -1.9696814489   -0.2132760134    0.8785235941
 H   -2.9547054538   -0.4830195645   -1.2413556263
 H    0.5646043001   -0.1706986488   -2.1998712428
 H    2.4953602141   -1.7710468591   -1.4948520131
 H    2.1959751175   -2.3129808060    1.1492037180
 H    2.4547177669   -0.2695546982    2.2728726434
 H    0.2096891142   -0.8165263886    2.0885256902