21

 C   -0.0325719976    1.5746138089   -0.0150293299
 C    0.0223432803    0.0531904865    0.1343169666
 O    0.6583135340   -0.3289635461    1.3527815016
 C   -1.3544973646   -0.5861923947    0.0222441922
 C   -2.1674804873   -0.4716791654   -1.2952497216
 C   -2.6717798488   -1.9193881699   -1.0717953522
 C   -1.4833772773   -2.1534863357   -0.0753397802
 C   -0.3497215349   -2.8271511503   -0.6809896278
 C    0.5732544347   -3.3903131365   -1.2087890859
 H    0.9696966099    1.9986299940    0.0898567248
 H   -0.4335722619    1.8668479856   -0.9907230695
 H   -0.6747914639    2.0203149306    0.7558655395
 H    0.6650829189   -0.3651044122   -0.6484001188
 H    0.1610552319    0.0678779854    2.0769604156
 H   -1.9709721921   -0.2499169095    0.8667478102
 H   -2.9118157540    0.3243508439   -1.3654743588
 H   -1.5045210459   -0.4104174209   -2.1638628474
 H   -3.6295959690   -1.9444735423   -0.5456528309
 H   -2.7201173384   -2.5826508225   -1.9362396759
 H   -1.7465741962   -2.6509130812    0.8620161179
 H    1.3954427924   -3.8917863377   -1.6556910997