19

 C   -1.2029640975    1.0199850129   -0.2040499871
 C   -0.1620863623    0.1383886178    0.4772117189
 O    0.1456498897   -1.0323681834   -0.2787627248
 C   -0.7340567255   -2.0558108588   -0.1931729164
 C   -1.8897991036   -2.2695760750    0.5282379832
 C   -2.3403291289   -3.5884133307    0.1893554026
 N   -3.4571404865   -4.2229276933    0.7736364577
 C   -1.4566083695   -4.1186231083   -0.7169894828
 N   -0.4682619567   -3.1599483378   -0.9397795851
 H   -1.3787664718    1.9198587894    0.3943889154
 H   -0.8549532394    1.3267948804   -1.1946248752
 H   -2.1520489832    0.4910974859   -0.3198279959
 H    0.7897263079    0.6691501944    0.5686984326
 H   -0.4832103360   -0.1516727953    1.4857828383
 H   -2.3593081998   -1.5925799412    1.2228333654
 H   -4.2453789084   -3.5921958558    0.8603100078
 H   -3.7554801908   -5.0290658815    0.2381421564
 H   -1.4306581804   -5.0729270166   -1.2151443492
 H    0.3314519629   -3.2523696630   -1.5393552817