17

 C    0.0460761035    1.5609369199    0.0881852803
 C   -0.0758219705    0.0376462973   -0.0379312554
 O    0.5011489473   -0.5111192790    1.1600918976
 C   -1.5669920437   -0.4048328005   -0.0819716315
 O   -2.2099690451   -0.0647913344    1.1201804779
 C    0.6126384268   -0.4619281395   -1.2263466883
 C    1.1596357587   -0.9339258447   -2.1957291243
 C    1.8052762078   -1.4638474056   -3.3704349805
 O    2.5766308249   -2.3950964484   -3.3618332606
 H    1.0910272512    1.8433921159    0.2279281619
 H   -0.3416876902    2.0497443806   -0.8085913095
 H   -0.5379652972    1.8881221017    0.9504837313
 H    0.7298999340   -1.4319507046    0.9880377835
 H   -2.0899333265    0.1036108812   -0.8972074417
 H   -1.6033479886   -1.4887426352   -0.2769678454
 H   -1.6239552133   -0.3723461267    1.8250552547
 H    1.5346611908   -0.9413833981   -4.3100270399