16

 N    0.0700519374    1.1809420146   -0.4681690241
 C   -0.0162882728   -0.0089918222    0.2150643450
 O    0.9157345295   -0.4608762486    0.8560111192
 C   -1.3087286430   -0.7231014638    0.0761087016
 C   -1.8015123785   -1.6388857666    1.1814251798
 C   -1.4424271131   -2.2457207389   -0.1290780015
 C   -2.5213776199   -1.9657192430   -1.2187217384
 O   -3.6004894537   -1.2117299370   -0.6442729267
 C   -2.4032995292   -0.5262515402   -1.0284166385
 H    0.8819646421    1.7438662101   -0.2646922829
 H   -0.7667902108    1.6748447601   -0.7313883924
 H   -1.0631114174   -1.7800269258    1.9624413917
 H   -2.8365252225   -1.5755201557    1.4905739704
 H   -0.6115230354   -2.9245600783   -0.2630197858
 H   -2.7337604560   -2.5609633771   -2.0976269662
 H   -2.4964740266    0.2973226423   -1.7269584313