21

 C   -0.0647327851    1.4960157061    0.0070359632
 C    0.0635207801   -0.0085922022   -0.0002325887
 C   -0.8097697162   -0.8327690138    0.9132745178
 C    0.6917008903   -0.7861163725    1.1475467478
 C    1.4630998282   -1.8930372224    0.5152382198
 C    1.3528799444   -1.8756028905   -0.8166157922
 C    1.9237500106   -2.8608291534   -1.7830951375
 O    2.6646435922   -3.8466902084   -1.0859050063
 C    0.5326961643   -0.6900776878   -1.2930582507
 H    0.8713410957    1.9765550376   -0.3012199828
 H   -0.8513539412    1.8337946433   -0.6789114151
 H   -0.3173877587    1.8688196907    1.0048408229
 H   -1.4438976828   -0.2844325480    1.6038523411
 H   -1.2329929746   -1.7657202007    0.5534315070
 H    1.0656516772   -0.2937166528    2.0395508066
 H    2.0085013542   -2.6418170237    1.0750022908
 H    1.1047551470   -3.3159197086   -2.3694705948
 H    2.5576027975   -2.3256757809   -2.5141427278
 H    3.0255445965   -4.4604114190   -1.7314745500
 H   -0.3083931803   -0.9941232372   -1.9312946531
 H    1.1423456909   -0.0042519957   -1.9008975780