18

 C    0.3020147599    1.4557971227    0.5975213718
 C    1.6062447804    1.4741579279   -0.2342228918
 O    2.7433956699    1.0013523457    0.5054355120
 C    2.4479681065   -0.3927792806    0.1455741805
 C    2.1179195345   -1.2781657879    1.3087614764
 C    0.8588765036   -1.5562098009    1.6473295580
 C   -0.3399743408   -0.9758202253    0.9338903860
 N   -0.0358303108    0.1188540677    0.0254811745
 C    1.2413052558    0.0523217058   -0.7095788485
 H    0.5019107188    1.4758967323    1.6753395170
 H   -0.4497601909    2.2136524745    0.3486841602
 H    1.8345155292    2.3357469097   -0.8629074137
 H    3.2872234270   -0.7979595937   -0.4333283099
 H    2.9478606097   -1.7014730701    1.8679094558
 H    0.6511937069   -2.2375449280    2.4699490744
 H   -0.8574806513   -1.7769949522    0.3831454705
 H   -1.0678595019   -0.6130653748    1.6708153853
 H    1.1812119334   -0.3067606428   -1.7389152087