17

 C   -0.0909171024    1.5137618731   -0.0732184247
 C    0.0900899870    0.0122315205    0.0198937968
 C    1.3848024741   -0.7325057812   -0.2064062963
 C    2.5583401455    0.0000333188    0.4002871859
 O    3.0911421828   -0.7691648468    1.4798699316
 C    1.9043085220    0.0130802109    1.7395605049
 C    1.9417528990    0.9756572928    2.7875760044
 C    1.9298261985    1.7794143350    3.6820474147
 C    0.7036525666   -0.7300450491    1.1830509566
 H    0.7406590153    2.0619418489    0.3736791376
 H   -0.1792999502    1.8247044420   -1.1198751576
 H   -1.0058392145    1.8210275748    0.4442828343
 H   -0.7553077258   -0.5390262864   -0.3913526612
 H    1.4652243745   -1.5709525206   -0.8871495425
 H    3.2120096452    0.7443677098   -0.0387414433
 H    1.9311301299    2.4888112885    4.4722975910
 H    0.2121635925   -1.5583758009    1.6779233979