21

 C   -0.0938804543    1.4567573089    0.0052754836
 N   -0.0155340061    0.0126565206   -0.0023398566
 C    0.0102974047   -0.7828508357   -1.1212237821
 C    0.0698833841   -2.1015480147   -0.7326546595
 C    0.1274193312   -3.2963128589   -1.6349826126
 C    0.0646122092   -2.1151510580    0.6974166738
 C    0.1133479717   -3.3243789356    1.5801236337
 C    0.0092907423   -0.7985875686    1.1159940723
 N    0.0192088081   -0.2075127066    2.4021252847
 H    0.5904461943    1.8739934080   -0.7392158510
 H   -1.1077600278    1.8121524828   -0.2172633857
 H    0.1909406253    1.8097613272    0.9971208627
 H   -0.0183471594   -0.3453606251   -2.1075441216
 H    1.0449969054   -3.8800762509   -1.4873989519
 H   -0.7115862474   -3.9825235111   -1.4624690027
 H    0.0949486127   -2.9973912373   -2.6871095240
 H    1.0643649315   -3.8666022551    1.4966579879
 H   -0.0139105648   -3.0496613180    2.6325279690
 H   -0.6791485022   -4.0419856290    1.3338734314
 H   -0.8942589257   -0.2202549258    2.8463044435
 H    0.6650793673   -0.6827839072    3.0211792051