15

 C    0.8088924370    0.8030752465    0.6189566757
 C    0.7246680827    0.2358300203   -0.7754367478
 C   -0.5310645631    0.3707596423    0.0606419201
 N   -1.2843962528   -0.7337196650    0.5554644782
 C   -0.8172537218   -1.8084974562    0.9644428095
 O   -1.6192251087   -2.8426737389    1.4336045245
 C   -0.7622047772   -3.8178162309    1.7784840026
 N    0.4777972930   -3.5701636396    1.6028221047
 O    0.4821564456   -2.2513446312    1.0660634964
 H    1.2619247140    0.1794188917    1.3797484634
 H    0.9748169785    1.8669184184    0.7470484900
 H    0.8315955442    0.9023949571   -1.6239405910
 H    1.1224836337   -0.7597479443   -0.9289157395
 H   -1.1929039333    1.1796492498   -0.2284429722
 H   -1.1603574518   -4.7380581199    2.1768965352