18

 C   -0.0681576024    1.5054927716   -0.0148411628
 C    0.0093181593   -0.0017366924    0.0215719144
 C   -0.5409700222   -0.7735070935    1.1843290690
 C    0.9580666543   -0.7717425938    0.9186773060
 C    1.4739939212   -1.9464884522    0.1208183435
 O    2.1756247485   -2.8357124630    0.5173733839
 N    1.0497854095   -1.8232511627   -1.2531051785
 C   -0.3738128880   -2.1143704818   -1.5404903389
 C    0.0874302890   -0.7173294901   -1.3259771978
 H    0.7389177938    1.9291744144   -0.6225835102
 H   -1.0205176641    1.8410143954   -0.4410238801
 H    0.0122578127    1.9277183157    0.9910810047
 H   -0.8575357974   -0.1943026222    2.0457329165
 H   -1.1174434980   -1.6793706509    1.0396073354
 H    1.6166728721   -0.3222987646    1.6523807422
 H   -0.5626825544   -2.4702259385   -2.5497004944
 H   -0.9588626333   -2.6151595891   -0.7764663752
 H    0.1917389991   -0.0684885225   -2.1923338978