13

 N   -0.5800983883    0.7677746880   -0.9956856927
 C   -0.2217577727   -0.3045538253   -0.2536920090
 C   -0.9508749364   -1.2338689551    0.4679381522
 N   -2.3279267018   -1.4155573740    0.6608933888
 C   -3.3249154757   -0.9691038104   -0.1404495704
 O   -3.1803302016   -0.3003611049   -1.1506702366
 N   -0.0610711267   -2.0492737531    1.0865534825
 N    1.1290594274   -1.7322115517    0.8282610117
 O    1.0633965426   -0.5817365327   -0.0743789948
 H    0.1233523964    1.1239553093   -1.6244457018
 H   -1.5336931937    0.7084028851   -1.3478182238
 H   -2.5749671926   -1.9901835866    1.4535478609
 H   -4.3173354567   -1.2748881986    0.2325582630