15

 C   -0.0630683614    1.5806847921   -0.0547998029
 C    1.4792985222    1.3455911512    0.0269478107
 O    1.1715964647    0.1639138346    0.8638221856
 C   -0.0007066249    0.0206296046   -0.0250889153
 C    0.7037719657   -0.2653418425   -1.3382672158
 N    0.6988094890   -1.0271751845   -2.4084139535
 N    1.7818416057   -0.5620743039   -3.0970378682
 C    2.4503647064    0.4591718334   -2.4627657748
 C    1.7593455255    0.6775166959   -1.3056405897
 H   -0.4640767913    1.9879636332    0.8754702189
 H   -0.4758845076    2.0780408802   -0.9353005924
 H    2.1754093512    2.0466731985    0.4813385570
 H   -0.7908218126   -0.6183453853    0.3608753345
 H    2.0276039187   -1.0050479860   -3.9656270961
 H    3.3258005487    0.9055869584   -2.9072465681