17

 C   -0.7936766529    0.4893987408    0.3914384654
 C    0.4393561598   -0.1950625349   -0.1452404135
 O    1.4220604888   -0.4151934011    0.5235543170
 C    0.3761547005   -0.6269754244   -1.6037254604
 C    1.6269481958   -1.2097857990   -2.1939282535
 N    0.4798418540   -2.0469906069   -1.9011657330
 C    0.4160520061   -3.0047427569   -0.8680965834
 N    1.3251481900   -4.0183868556   -1.0190070017
 O   -0.4020887597   -2.9490234461    0.0258512759
 H   -0.6164834246    0.8403192229    1.4083177333
 H   -1.0954002273    1.3242761617   -0.2504172095
 H   -1.6107000474   -0.2412167410    0.3898555464
 H   -0.3287612623   -0.0893823198   -2.2334140677
 H    1.8483057301   -1.0603805714   -3.2471329267
 H    2.4742222656   -1.2581060796   -1.5152897220
 H    1.7704506034   -4.1539841773   -1.9112442458
 H    1.1595078102   -4.8389825214   -0.4594992310