18

 O    0.0248892300   -0.0517224678    0.0557468360
 C    0.0093067242    1.1673202167    0.0152595952
 N   -1.1505235205    1.8876504815    0.0279453326
 C   -1.2426815153    3.3379834518   -0.0303685712
 C    0.0765211380    3.9327528204    0.4482998438
 O    1.1463856778    3.3544331532   -0.2784099150
 C    1.2737811012    1.9834257841   -0.0051660107
 C    2.3728207362    1.5454505055    0.9515102439
 C    2.5165024742    1.3326568251   -0.5313129172
 H   -1.9916664088    1.3305842775   -0.0012984889
 H   -1.4495246418    3.6812794552   -1.0536312427
 H   -2.0633167846    3.6802925972    0.6109735775
 H    0.1046233850    5.0082985445    0.2576033013
 H    0.2032958612    3.7604519482    1.5279108300
 H    2.9473500358    2.3456789567    1.4038769854
 H    2.1732420586    0.6818591640    1.5743504950
 H    2.4050159388    0.3258143943   -0.9141558194
 H    3.1917368401    1.9846995116   -1.0729998256