20

 C    0.4156502030    1.3707838447   -0.3805104485
 C   -0.2349147297    0.1124826040    0.2086667043
 C    0.5382294846   -0.4705446539    1.3581563632
 O    1.8145364628   -0.9987771836    0.9689196537
 C    2.0051148830   -2.1010809120    1.7378259356
 N    1.1018133583   -2.4395082089    2.5666604337
 C    0.0748910637   -1.4298031278    2.4520536510
 C    0.4612497280    0.0103392357    2.7838807003
 C    1.6546644595    0.3973765012    3.6255430728
 H    1.4219075854    1.1504462692   -0.7479557593
 H   -0.1733930676    1.7610462055   -1.2157137150
 H    0.4985919753    2.1601933742    0.3735814871
 H   -1.2450802751    0.3436582809    0.5661718270
 H   -0.3443498564   -0.6525731566   -0.5697133790
 H    2.9425060752   -2.6172392066    1.5682541179
 H   -0.9469387711   -1.7619786481    2.5959089775
 H   -0.4176883851    0.6302074573    2.9488598711
 H    2.4869983073   -0.2990141136    3.5060980232
 H    2.0134128666    1.3959615862    3.3552298948
 H    1.3859755420    0.4095585019    4.6866382590