18

 C    0.0797618121    1.5918263739   -0.0427165319
 C    0.1285725390    0.0805497849   -0.0686105740
 C    0.6996306225   -0.7727980072   -1.1778936866
 C   -0.0096172719   -1.8714134802   -1.9071227714
 N    1.9131183056   -0.1560181898   -1.7475384199
 C    2.5701191519   -0.1152124566   -0.5006202861
 O    3.6395631330    0.3141020734   -0.1727793521
 C    1.3791428349   -0.7862909225    0.1830635026
 O    1.4071538811   -1.8169666851    1.0919388804
 H    0.9510039024    2.0393116251   -0.5285340999
 H   -0.8161440664    1.9599683645   -0.5545547554
 H    0.0504421108    1.9646102422    0.9863632542
 H   -0.7305170235   -0.4003168057    0.4002490094
 H   -0.6055005276   -1.4802656187   -2.7394453314
 H    0.7102359937   -2.5893479949   -2.3107197169
 H   -0.6865089118   -2.3997725507   -1.2295327517
 H    1.8974733170    0.6419347230   -2.3741721486
 H    1.4770737474   -1.4448748155    1.9780170993