17

 N   -0.1051470088    1.2668284549   -0.1444580759
 C    0.0179410858   -0.0738224978    0.0928606169
 O    0.9938963315   -0.6159289179    0.5583762636
 O   -1.1082911544   -0.7156711897   -0.3072049373
 C   -1.0890035151   -2.1286206934   -0.1366957447
 C   -1.4315336723   -2.7240190870    1.2721028255
 C   -2.5752641870   -3.4881574246    0.5964766692
 N   -3.4843690972   -2.4458101344    0.0716283621
 C   -2.2948101901   -2.8442228794   -0.7224549255
 H    0.5710469415    1.8585881880    0.3066275256
 H   -1.0241502635    1.6414166081   -0.3098976124
 H   -0.1432606261   -2.5266075448   -0.5076913532
 H   -0.6244009968   -3.3421038263    1.6663871643
 H   -1.7553473995   -1.9989836956    2.0210707176
 H   -2.9269491305   -4.4901358550    0.8051521040
 H   -4.2804184164   -2.9227401655   -0.3520109991
 H   -2.4033824510   -3.2240218695   -1.7306919907