18

 C   -0.3073313550    1.3403731220   -0.6310232878
 C   -0.0301652111   -0.0341024290   -0.0516464879
 C    0.9998490422   -0.8943168101   -0.7152404099
 N    1.2616594765   -0.2972694739    0.6038061251
 C   -1.1688217094   -0.6787642091    0.6409855617
 C   -1.2722909655   -1.3967141984    1.7920335146
 C   -2.6509081729   -1.7720133237    1.9110027710
 C   -3.2789915772   -1.2519863749    0.8261301095
 O   -2.3917759110   -0.5825440445    0.0393146688
 H    0.5683718853    1.7160708253   -1.1696837096
 H   -1.1496139022    1.3062883165   -1.3275483721
 H   -0.5593551201    2.0529324173    0.1617872202
 H    0.8826482905   -1.9736502570   -0.7098227845
 H    1.5105990055   -0.4899012524   -1.5859474599
 H    1.8633319207    0.5170291780    0.5068874694
 H   -0.4602558148   -1.6199187900    2.4640559249
 H   -3.1073429965   -2.3466085650    2.7018085637
 H   -4.2987142150   -1.2577878610    0.4783590630