16

 C   -0.1107932007    1.5910062748   -0.0464048547
 C   -0.0135646740    0.0738566924   -0.0155207230
 C    0.7160740661   -0.6236779792   -1.1680628229
 O    2.0894041525   -0.2167379034   -1.1218546054
 C    1.6737242322   -1.2863631617   -0.2528392784
 C    2.3458099779   -2.5438784315   -0.3388799965
 N    2.8664133342   -3.5763607268   -0.3596141397
 C    1.0397211036   -0.5918869592    0.9753765072
 O    1.8796344626    0.2307657221    1.7188089520
 H    0.8480175204    2.0440777017   -0.3125542740
 H   -0.8525518793    1.9199637477   -0.7809035369
 H   -0.4073620394    1.9767167073    0.9330126366
 H   -0.9951362057   -0.3822150587    0.1461552647
 H    0.3436786068   -0.9778379606   -2.1221358752
 H    0.5700752646   -1.2944481726    1.6660113233
 H    2.4030598883    0.7458994777    1.0920061131