16

 O   -0.7442803134    0.8070972582    0.7583845874
 C    0.0315245959    0.9542544336   -0.1498820450
 C    1.2985558376    1.7865359665   -0.0520160821
 C    1.4379303233    2.7893579055   -1.1924528529
 C    2.7055012082    3.6685319467   -1.1323596190
 N    3.0005490988    3.7755628701   -2.5471770025
 C    2.4613731589    2.7213506475   -3.2546158978
 O    2.6973131490    2.3797916795   -4.3772338074
 O    1.5508787530    2.0898396429   -2.4436898336
 H   -0.1315034873    0.4739644989   -1.1377337540
 H    1.3024597053    2.3009717331    0.9137691647
 H    2.1578766563    1.1031576680   -0.0886770713
 H    0.5471888172    3.4283619155   -1.2486073889
 H    2.5048783105    4.6399764541   -0.6729171194
 H    3.5093991089    3.1739160482   -0.5678311071
 H    3.8663311878    4.1607940316   -2.8878482211