17

 C    0.1170534453    1.4882284209    0.0222032306
 C   -0.0278999602   -0.0581890833    0.0177396761
 C    0.5930987699   -0.6009559469    1.2403970740
 N    1.1154765955   -1.0071904660    2.1868377334
 C   -1.4629293492   -0.4106983282    0.0242544397
 N   -2.5897125858   -0.6604686195   -0.0138766135
 C    0.6216508116   -0.6569694265   -1.2425919505
 C    2.0958413554   -0.9588354999   -1.3027640933
 C    1.0894918210   -2.0837391217   -1.3089845452
 H    1.1771130856    1.7493448892    0.0175379942
 H   -0.3570553157    1.8972785481   -0.8728175859
 H   -0.3574958070    1.9226890042    0.9039316186
 H    0.1660753731   -0.2492945455   -2.1394797505
 H    2.6185101386   -0.7165141699   -2.2207510886
 H    2.6840284418   -0.8269003423   -0.4012307856
 H    1.0169510479   -2.6868138644   -0.4107059930
 H    0.9132898223   -2.6263978982   -2.2301194805