20

 C   -0.0902354703    1.5738077592    0.0390299391
 C   -0.0480139035    0.0566536615    0.0255178174
 C   -1.3198353247   -0.5694332276   -0.5140469455
 O   -1.4568335153   -0.1552490188   -1.8675247564
 C    1.2414172085   -0.6526665333   -0.2763453515
 C    0.6919073721   -0.6904566790    1.1472459021
 C    1.4109974458    0.0586172840    2.2627010397
 C    0.1327490280   -1.9444579995    1.5951639065
 N   -0.3055211818   -2.9422887669    1.9858299756
 H    0.8778390689    2.0214252617    0.2713946970
 H   -0.3952093326    1.9237366830   -0.9504658928
 H   -0.8210260107    1.9426616726    0.7676742271
 H   -1.2697902204   -1.6634879215   -0.4373039067
 H   -2.1772179468   -0.2351391519    0.0919674512
 H   -2.2961219371   -0.4888807545   -2.1977420193
 H    1.2039616776   -1.5650017627   -0.8602432261
 H    2.1361067818   -0.0570928460   -0.4238524205
 H    1.8981608390    0.9581165259    1.8838337323
 H    0.7151658407    0.3516863480    3.0545143993
 H    2.1805298410   -0.5781873143    2.7086616014