22

 C    0.1547962764    1.4634866024   -0.3497883562
 O    0.1041085197    0.1246187709   -0.7807145525
 C    1.0947138373   -0.6867000072   -0.1771161211
 C    0.8520219793   -2.1273980229   -0.6402630612
 C   -0.4136555349   -2.6120431833    0.0748105697
 C    1.1106824490   -2.5351542921   -2.1251006157
 C    2.6067970947   -2.3425468621   -1.8151619402
 N    2.1068912639   -3.0589356702   -0.5391449049
 C    1.3638199669   -3.9511222945   -1.5555903613
 H   -0.0024028479    1.5494162326    0.7371258414
 H    1.1202823582    1.9350979218   -0.5929489366
 H   -0.6418062313    2.0044063880   -0.8665251316
 H    2.0916268603   -0.3018758491   -0.4209673495
 H    1.0045211226   -0.6519809781    0.9220329856
 H   -1.1260118999   -1.7848311036    0.1194633115
 H   -0.9163355962   -3.4487831569   -0.4103376033
 H   -0.1684338332   -2.9096604628    1.1005383784
 H    0.5482433287   -2.2394843045   -3.0172840798
 H    3.3154020249   -2.9515228089   -2.3816718624
 H    3.0099298462   -1.3433017635   -1.6652897014
 H    0.5422317076   -4.5280005068   -1.1365491127
 H    2.0391949577   -4.6013510394   -2.1170004063