14

 C    0.1210599393    1.5679938554    0.0666663862
 C    1.3152902502    0.6318672170   -0.0930628931
 C   -0.0655652617    0.0878982676    0.0583361454
 C   -0.6530648418   -0.8419166526    1.1151342845
 C   -1.3410842785   -1.5135135457   -0.0931986255
 O   -0.7326982632   -0.5799766185   -1.0153408203
 H   -0.0002240776    2.1039887232    1.0028212515
 H   -0.2059873572    2.1099447413   -0.8143315187
 H    1.7650797933    0.5648763318   -1.0779636503
 H    2.0108022314    0.5275955375    0.7338450414
 H    0.0701512732   -1.4629559961    1.6474249358
 H   -1.3252295205   -0.3691985707    1.8340206551
 H   -1.0366380020   -2.5454542518   -0.3016038880
 H   -2.4349132048   -1.4494711884   -0.1145933040