19

 C   -0.1866393198    1.5358678010    0.0677352322
 C    0.0970987275    0.0563461652   -0.0133135187
 C   -0.6703163121   -0.9133875700    0.8539249669
 C    0.8153022960   -0.7287195945    1.0981108481
 N    1.6958544004   -1.7469928639    0.5377697949
 C    1.3134601363   -1.8626319140   -0.8864875757
 C    0.6656855462   -0.5185689708   -1.3054460327
 C    1.2636451188   -0.0997261409    2.3064139641
 N    1.6318389116    0.4310036896    3.2666418703
 H    0.6796865247    2.1208780519   -0.2600422633
 H   -1.0345184950    1.8069875302   -0.5714561707
 H   -0.4282938708    1.8411432587    1.0899567978
 H   -1.3369778835   -0.4866886151    1.5947972168
 H   -0.9941787297   -1.8712042179    0.4614294949
 H    2.6490507668   -1.4015238388    0.6034740166
 H    2.1879252474   -2.1230761823   -1.4863675099
 H    0.5965716673   -2.6824484477   -0.9980025260
 H   -0.0937972196   -0.6566283310   -2.0817992267
 H    1.4176036875    0.1758315404   -1.6995850090