13

 N    0.0828558953    1.3286830525    0.1119361919
 C   -0.0507346662   -0.0158646545    0.0398972722
 C   -1.2268392966   -0.7204319056    0.0211386401
 C   -1.0919555545   -2.1269012460   -0.0145808657
 N    0.0387639566   -2.7784756583   -0.0301614589
 C    1.2078488904   -2.0560124793   -0.0107352156
 N    2.3985834681   -2.4839846560   -0.0186262355
 O    1.1273560284   -0.6336253437    0.0180732828
 H    0.9952097010    1.7161410970   -0.0661267748
 H   -0.7171839238    1.9096020642   -0.0684688432
 H   -2.1868688204   -0.2262037234    0.0385257082
 H   -1.9954732915   -2.7365448321   -0.0323058502
 H    2.3624748531   -3.5016048047   -0.0422193814