17

 O   -0.2002193229    1.5070045576   -0.2442943043
 C    0.0749283262    0.1274670585   -0.0067341080
 C   -1.1991674866   -0.7638826080    0.1898771953
 C   -1.4363120701   -1.5882757424   -1.1211529337
 C   -0.1073577271   -1.4678889033   -1.8135987208
 C    0.7048122555   -0.5599886098   -1.1779307632
 N    1.8582418875   -0.4941366753   -1.8804364666
 N    1.8469033763   -1.3252566602   -2.9481677966
 C    0.6507153229   -1.9188901853   -2.9139277353
 H   -0.6433684654    1.5710663699   -1.0981357606
 H    0.6925557183    0.1329616130    0.8963975877
 H   -1.0228186248   -1.4517672720    1.0221199093
 H   -2.0490413040   -0.1339328810    0.4645736906
 H   -1.7181009219   -2.6206601167   -0.8912590085
 H   -2.2534773623   -1.1730527521   -1.7238056925
 H    2.6757737852    0.0667319487   -1.7110213905
 H    0.4017822032   -2.6398513616   -3.6789006324