17

 C    0.0179448641    1.3810171387    0.0319376748
 N    0.2828695805   -0.0402892417    0.0279916921
 C   -0.1858504251   -0.7668419217    1.1975343396
 C    0.1483401576   -0.6745132035   -1.2014713161
 C   -0.0258757264   -0.1093574475   -2.4487210175
 N   -0.0231539824   -1.1842597648   -3.3269542611
 C    0.1275302196   -2.3098590927   -2.5897449347
 N    0.2335775384   -2.0447152626   -1.3061615773
 H    0.6452031838    1.8805095566   -0.7140376442
 H   -1.0367714360    1.6296884818   -0.1860880200
 H    0.2692289283    1.7931639979    1.0130457132
 H   -1.2840472266   -0.7389043766    1.3068770245
 H    0.1232250986   -1.8085060670    1.1179891668
 H    0.2588682113   -0.3277161065    2.0961525154
 H   -0.1469580029    0.9024729072   -2.7905281930
 H   -0.1251870115   -1.1308003341   -4.3255720684
 H    0.1538555589   -3.2946848734   -3.0316078943