18

 C   -0.6209972711    0.8956616761    0.3047087160
 O   -0.6178011552    0.0299360205   -0.8386471112
 C    0.5839866460   -0.4684015897   -1.2255109510
 N    0.7194437274   -1.8450589926   -1.0079408205
 C    0.2152729033   -2.5652999183    0.0748673505
 N    0.5064434348   -3.9155869217   -0.0243131265
 O   -0.3683248542   -2.0840725461    1.0222658820
 N    1.5055156832    0.1267400958   -1.8571291727
 C    1.3172221474    1.5007052883   -2.2794123826
 H   -0.4358955512    0.3084139067    1.2066093559
 H    0.1214275393    1.6936324981    0.2033828345
 H   -1.6191915401    1.3347573292    0.3439230367
 H    1.5099522315   -2.2355414077   -1.4995842194
 H    0.5499444255   -4.3277628900   -0.9437355717
 H    0.0268448048   -4.4728518311    0.6658832038
 H    0.2703711960    1.8290583984   -2.2692400309
 H    1.8997992682    2.1779978739   -1.6417006476
 H    1.7086120245    1.6136366802   -3.2960168053