20

 C   -0.1316170210    1.4799483136    0.0045993128
 N    0.1026039722    0.0484094726    0.0042616944
 C    1.0651594809   -0.4534053678   -1.0076127804
 C    2.0319160907   -1.2900729544   -0.1257332165
 C    2.1697112309   -2.7306106798   -0.6927503520
 O    0.8257607485   -3.0284896316   -0.1442972210
 C    1.1022096793   -1.9588194467    0.8314837374
 C    0.6880578060   -0.4991689640    1.2125112033
 C    2.3014129991   -0.2705743767    1.0425620774
 H    0.7786305503    2.0921964579    0.1487493563
 H   -0.5823891881    1.7731371203   -0.9486598236
 H   -0.8399571091    1.7370981241    0.7990188361
 H    0.5582639337   -1.0512323076   -1.7693484250
 H    1.6057071224    0.3656847298   -1.5007456651
 H    2.1980258242   -2.8611922523   -1.7777443445
 H    2.9308250820   -3.3509715005   -0.2059254920
 H    1.6016266240   -2.4233912262    1.6894531508
 H    0.1568233804   -0.2352296419    2.1288669117
 H    2.8956780920   -0.6613532591    1.8675961234
 H    2.6139538115    0.7446580204    0.7858426462