19

 C    0.0803093930    1.5270042003    0.1696005766
 C   -0.0177840554    0.0248340491   -0.1247109163
 C   -1.4356563543   -0.4986613437   -0.1106230263
 C   -2.4860903705   -0.0156116947   -1.1004998424
 C   -3.5955390172   -0.6922953050   -0.7909642573
 C   -3.1887795164   -1.5673386509    0.3768262890
 C   -1.7172720346   -2.0356519204    0.1206431839
 O   -1.3823442283   -1.9333143190    1.5464396993
 C   -2.1911067374   -0.7430361143    1.2581604214
 H    1.1214762911    1.8626399646    0.1503095268
 H   -0.4739499201    2.1195808638   -0.5661110201
 H   -0.3274934029    1.7633058981    1.1580854099
 H    0.4340555111   -0.1887955107   -1.1022202948
 H    0.5551436268   -0.5393582798    0.6193236888
 H   -2.3301388750    0.7178003041   -1.8801465516
 H   -4.5728422834   -0.6521037071   -1.2512213087
 H   -3.8855856868   -2.2485958143    0.8613023621
 H   -1.3442542409   -2.9032237125   -0.4311650106
 H   -2.3934390287   -0.0517801476    2.0810461304