15

 O   -0.6669504292    0.8868435754   -0.5112632634
 C    0.3434747463    0.8731105600    0.1342818688
 C    1.4312743524    1.9735526561    0.0761360143
 O    2.6953855562    1.2993522596    0.1491839958
 C    3.5094443293    1.6642194499   -0.9692151945
 C    2.6315658674    2.5266526019   -1.8291939727
 C    1.4549668289    2.7073817855   -1.2460008490
 C    1.2282195975    2.8532878327    1.2318290519
 C    1.0140564550    3.5422906394    2.1934832255
 H    0.6087039592    0.0525722892    0.8337169530
 H    4.4070006883    2.1970157941   -0.6203892824
 H    3.8449394086    0.7519064175   -1.4817806653
 H    2.9493604140    2.9275560283   -2.7830910541
 H    0.6043084529    3.2689147324   -1.6021792320
 H    0.8401460032    4.1634447581    3.0377509339