18

 O   -0.0286546473    1.4323488439    0.0530587567
 C    0.0237503354    0.0108735576    0.0077287658
 C    0.9846266186   -0.5331559020    1.0959013227
 O    0.6677484220   -1.8296009687    1.5722812246
 C   -0.7033013391   -1.9762119548    1.8810142831
 C   -1.4642260758   -0.7619778512    2.4888532633
 N   -2.2966742664   -0.5881759234    1.2534954945
 C   -1.6536375156   -1.8429238109    0.6854321708
 C   -1.3931658232   -0.5248810354    0.0791251860
 H    0.8311914948    1.7750292900   -0.2118324599
 H    0.3938719864   -0.3207347637   -0.9758802347
 H    2.0007687960   -0.6040206016    0.6950511014
 H    1.0029091470    0.1952482745    1.9177899637
 H   -0.7921001704   -2.9026694911    2.4490859093
 H   -2.1175860577   -1.0663185104    3.3095145508
 H   -0.9040132741    0.1241081193    2.7926147715
 H   -2.2232518723   -2.6345488483    0.2109177998
 H   -1.9724831082   -0.2788938840   -0.8067062794