17

 O   -0.0635445364    1.3965039811   -0.0419902260
 C    0.0099982300    0.0062745131   -0.0648622742
 C    0.9356872846   -0.6839080970   -1.0245414024
 C    0.4208073808   -1.8461068538   -1.4268508651
 C   -0.8701312298   -2.1476352230   -0.6676767433
 O   -0.5541065685   -3.0054552289    0.4415672956
 C    0.1159276838   -2.1969263622    1.4143249607
 C   -0.3905340100   -0.7711241893    1.2042898849
 C   -1.2512496967   -0.7948734679   -0.0335335980
 H    0.6806075409    1.7301378791    0.4705355422
 H    1.9004813310   -0.2727619728   -1.3002539901
 H    0.9067402141   -2.5823641288   -2.0553359648
 H   -1.6509628980   -2.6452260437   -1.2448102570
 H   -0.1443214135   -2.5804230744    2.4055974749
 H    1.2050957345   -2.2716351342    1.2885805521
 H   -0.6893227419   -0.1752884963    2.0596805848
 H   -2.2390882848   -0.3593284710   -0.0967756145