21

 C   -0.0350375369    1.6046418117   -0.0407778772
 C    0.1004482532    0.0881727921   -0.0127713318
 C    0.6993463464   -0.6689338004   -1.1936303979
 C    2.2490415023   -0.7664735194   -1.1193726456
 C    2.9982437349    0.1552006275   -0.2182674213
 C    2.4217629551    0.1805865902    0.9912810480
 C    2.7913422155    1.0036617381    2.1829056357
 C    1.1586592413   -0.6559688254    0.9255604900
 C    1.3798155524   -1.6453438033   -0.2641938423
 H    0.9221123230    2.0935022783   -0.2394989065
 H   -0.7323096881    1.9051541891   -0.8313804203
 H   -0.4292862163    1.9892601250    0.9070914442
 H   -0.8731730681   -0.3636632729    0.2058102946
 H    0.2014607985   -0.8607402149   -2.1378557225
 H    2.7144002676   -1.1799016476   -2.0071771584
 H    3.8577080544    0.7377793095   -0.5292618679
 H    3.7205761404    1.5561063255    2.0165588543
 H    2.0078484480    1.7317304012    2.4307228064
 H    2.9232201070    0.3758484076    3.0738267484
 H    0.7710064666   -1.0243489990    1.8757899397
 H    1.3797087127   -2.7284863028   -0.2456432796