14

 C    0.0183784246   -1.2278262286   -0.0047891948
 C   -0.0220536973   -0.0267571463    0.0020979117
 C   -0.0289897110    1.4295863901    0.0099580129
 C    1.4091524744    2.0181657932   -0.0006419550
 C    1.4143622140    3.4713966062    0.0070788863
 C    1.3946375203    4.6815416097    0.0137976885
 C    1.3777095678    6.0421857758    0.0214411132
 C    1.3624677493    7.2496323581    0.0282089951
 H    0.0354252139   -2.2895409657   -0.0105483594
 H   -0.5762689974    1.8091906661   -0.8601875229
 H   -0.5594956477    1.7997984555    0.8944204980
 H    1.9567189403    1.6369552955    0.8694767376
 H    1.9399464790    1.6463422580   -0.8850979166
 H    1.3499544198    8.3111625423    0.0342581656