14

 O    0.3493406084    0.7212285758    0.6974156534
 C   -0.1528651851    0.2374030240   -0.5325954935
 C   -1.5087660201   -0.4254777824   -0.3905789277
 C   -1.8972986005   -1.5540763187   -1.2942307050
 C   -1.5991552008   -1.8429606220    0.1698058375
 C   -0.3889148708   -2.5190134054    0.5428433342
 N    0.6016752200   -3.0280001703    0.8599787201
 H    0.6305626340   -0.0402254017    1.2169157138
 H   -0.2471461978    1.1083524358   -1.1898747291
 H    0.5512079302   -0.4582920181   -1.0124856929
 H   -2.2996185935    0.2348980531   -0.0483404360
 H   -2.9296948947   -1.6530388302   -1.6081991115
 H   -1.1678702021   -1.8954440855   -2.0203688562
 H   -2.4436712571   -2.0669872445    0.8119407828