21

 C   -0.0521256100    1.6963168201    0.0196986695
 C    0.0544368419    0.1728525763   -0.0433472082
 C   -1.3512338673   -0.4877250528   -0.0732048326
 C   -2.1679087350   -0.2092320104    1.1006618893
 C   -2.8534922486    0.0261562952    2.0593895874
 C    0.9075884388   -0.3233344660   -1.2385174597
 C    1.7321184566   -1.4712829982   -0.6397001056
 C    1.9336246192   -0.9730795210    0.7925890964
 O    0.7312829830   -0.2964399524    1.1359802001
 H    0.9451052608    2.1377589218    0.1025408453
 H   -0.5306447729    2.0923863491   -0.8828079710
 H   -0.6415735417    2.0024243370    0.8871004042
 H   -1.8791647348   -0.1472142660   -0.9736053901
 H   -1.2209753951   -1.5717423241   -0.1767049523
 H   -3.4516606777    0.2287074360    2.9126815184
 H    0.2927748108   -0.6272962561   -2.0895963610
 H    1.5688111302    0.4797534969   -1.5803526915
 H    1.1615388691   -2.4059535173   -0.6405927686
 H    2.6717282005   -1.6500778564   -1.1683126329
 H    2.0951797473   -1.7737969181    1.5209880610
 H    2.7935818248   -0.2858172537    0.8482438720