19

 C   -0.0688255057    1.5317043284    0.0611158068
 C    0.0407408034    0.0130490285   -0.0362612351
 C    0.7391734379   -0.4667061402   -1.3001157931
 O    1.1592303503    0.3077250726   -2.1366843924
 C    0.8857851995   -1.9378076383   -1.4674575000
 C    1.4702150888   -2.5279588931   -2.5130113188
 C    1.4400469699   -4.0134425087   -2.3503063428
 O    0.7812566009   -4.2443179932   -1.1083778405
 C    0.4114568561   -3.0060387843   -0.5078857384
 H    0.9210290834    1.9945711923    0.0456858070
 H   -0.6278013817    1.9362352703   -0.7863454147
 H   -0.5759225707    1.8246713431    0.9844749472
 H    0.5823517609   -0.4036386670    0.8253106966
 H   -0.9508028517   -0.4611976464   -0.0005238488
 H    1.9043138359   -2.0098652775   -3.3580906345
 H    0.8935875044   -4.5109578127   -3.1678556113
 H    2.4514301989   -4.4507833698   -2.3304191098
 H    0.8803690860   -2.9217406616    0.4850615981
 H   -0.6784717865   -2.9815185123   -0.3518488856