12

 N   -0.0024463336    1.3288965269   -0.2252737035
 C    0.0312222116    0.0459758137    0.2265493033
 O    1.0213175730   -0.4993452085    0.6714975931
 C   -1.2473272980   -0.6500655016    0.1431229487
 C   -2.2659414700   -1.3079508785    0.1120734104
 C   -3.4093905533   -2.0294129729    0.0708820404
 C   -4.4383224187   -2.6740924626    0.0300972444
 C   -5.6629926698   -3.4318470214    0.0136828943
 O   -6.0943704372   -4.0004782858   -0.9626033491
 H    0.8539555938    1.8590338132   -0.2204234040
 H   -0.8329919532    1.7300907506   -0.6249948387
 H   -6.1922231245   -3.4542258030    0.9869172907