19

 C    0.0103937768    1.4768098553   -0.0606461186
 O    1.4604267369    1.4588008683    0.1327083011
 C    1.3613677867    0.1194585670    0.7084231555
 C    2.2053911422   -1.0913810483    0.2565204169
 C    1.0887731643   -1.9171358530   -0.4552545730
 C   -0.0921290444   -2.2007762702    0.5300545988
 O   -0.8431231532   -0.9525831336    0.6288951810
 C    0.0309174790   -0.0502715635   -0.0165130589
 C    0.4332214603   -0.8064759907   -1.2930730777
 H   -0.5002349544    1.9423837167    0.7918059734
 H   -0.2758996534    1.9713154622   -0.9929875735
 H    1.2708828750    0.1960700655    1.7986232936
 H    2.9947355542   -0.8165777859   -0.4493423821
 H    2.6654934450   -1.6119434677    1.1011550185
 H    1.4363127522   -2.8141239800   -0.9696774466
 H   -0.7654516488   -2.9729813300    0.1447977879
 H    0.2537634068   -2.5015350707    1.5268510678
 H    1.1360273432   -0.2669001775   -1.9297736459
 H   -0.4425600584   -1.1187979940   -1.8666571484