21

 O   -0.1520721354    1.5165782334   -0.0669047716
 C    0.0092099488    0.1090892625    0.0514638467
 C   -1.3626455347   -0.5289737430   -0.1096894905
 C   -2.0278092775   -0.3103993557   -1.4859642847
 C   -3.1628633438   -1.3508857202   -1.5090492864
 C   -2.5630831346   -2.5685531644   -0.8087279659
 O   -1.6280137415   -3.2872603367   -1.6512162587
 C   -0.5165264600   -2.9361966497   -0.8048174151
 C   -1.4080402041   -2.0549190058    0.0993579445
 H    0.7170194867    1.9248111459   -0.0170446674
 H    0.6973572471   -0.2726830114   -0.7192300243
 H    0.4333364576   -0.1599044456    1.0331652298
 H   -2.0112094273   -0.0776134116    0.6539754459
 H   -2.3705637275    0.7164311092   -1.6233862725
 H   -1.3101835077   -0.5260091355   -2.2867369127
 H   -4.0246452247   -0.9928086346   -0.9315159478
 H   -3.5144681772   -1.5986753701   -2.5145885340
 H   -3.3056515635   -3.2474752459   -0.3751607825
 H   -0.0917113739   -3.8164565637   -0.3046816982
 H    0.2814454409   -2.4339371193   -1.3655864506
 H   -1.4191629078   -2.3432029277    1.1515271359