18

 C   -0.0469897929    1.2970083124    0.0508580614
 C    1.2774664618    0.6395105157   -0.0093130402
 C    1.7225382640    0.1456482963    1.3356454004
 C    0.3568608539   -0.5854641630    1.4060028216
 N   -0.0286050223   -0.1767619016    0.0425147600
 C    1.6300488988   -1.3554632573    1.3614540078
 C    2.1265966088   -2.4556783891    0.4297238237
 C    2.5253077539   -3.1566063290    1.7471184457
 O    2.0564800836   -2.0346850693    2.5383675638
 H   -0.3522160578    1.8144525393    0.9573327432
 H   -0.4350960554    1.7132053993   -0.8740501468
 H    1.8818097273    0.6542092863   -0.9114217687
 H    2.2848066057    0.6892786853    2.0866702413
 H   -0.3657028027   -0.6744831800    2.2094543953
 H    1.3530112009   -2.9464105306   -0.1614760448
 H    2.9597355172   -2.1758099456   -0.2172928982
 H    1.9720240007   -4.0720790715    1.9836479132
 H    3.5961260045   -3.3311821376    1.8960706614