16

 O   -0.6478660391    0.8330541520    0.6409035302
 C    0.3296918990    0.7862185704   -0.0625037315
 C    1.4471010981    1.7754209387    0.0104850417
 C    1.8069753195    2.7902116626    1.1232697710
 C    2.8956267875    2.8856389199    0.0198589689
 N    2.9086269444    1.3713789487   -0.1295460830
 C    1.7572337654    2.9101211543   -1.0486871945
 C    2.0453398605    2.5561617081   -2.4184914280
 C    2.2446031874    2.3170431785   -3.5795610305
 H    0.4668991096    0.0004348143   -0.8363811493
 H    1.1428486994    3.6440626506    1.2813722003
 H    2.1296761836    2.3458509571    2.0674697212
 H    3.8160380835    3.4692442266    0.0089817448
 H    3.2149420920    0.9557434360    0.7565795807
 H    1.0832078104    3.7666991229   -0.9795097060
 H    2.4364097388    2.0882799294   -4.5986623761