18

 C   -0.0370844217    1.4730949316    0.0948648753
 N    0.0060084396    0.0220033475    0.0336766660
 C   -1.2524598000   -0.7212351718    0.0408962419
 C   -1.4341102342   -1.5591806576    1.2803275612
 C   -0.5985914542   -2.5720448935    1.5461681401
 C    0.5317681624   -2.9243030772    0.7006262286
 C    1.2428479918   -2.0988426710   -0.0921150920
 C    1.2117661800   -0.6084352677   -0.1423571944
 O    2.2619291697    0.0007377615   -0.3075287153
 H    0.9880938226    1.8377500734    0.0436647072
 H   -0.6084300984    1.8870093437   -0.7455512843
 H   -0.4997613088    1.8124593304    1.0291028901
 H   -2.0616653527    0.0041677725   -0.0618659402
 H   -1.2869717768   -1.3751209659   -0.8427030621
 H   -2.2636316862   -1.3400574914    1.9454561422
 H   -0.7728989937   -3.2009796610    2.4153415388
 H    0.8503957402   -3.9640967461    0.7452292040
 H    2.0943002403   -2.4962285974   -0.6352164072