15

 C   -0.2265978877    1.3192635760    0.2657062618
 C    0.2807191966   -0.0150781612   -0.2052772354
 N    1.4868418947   -0.3985339592   -0.3068372166
 O   -0.7801509557   -0.8042366684   -0.5269566384
 C   -0.7933220180   -2.1303839225   -1.0128661446
 O   -1.8559757636   -2.6178961495   -1.2277653764
 N    0.4535433393   -2.6874938839   -1.1737389000
 C    0.7049570087   -3.9784378636   -1.6354417184
 O   -0.1057504854   -4.7995244876   -1.9613478304
 H    0.5982280590    1.9804721130    0.5350661952
 H   -0.8262545234    1.7856545000   -0.5212217419
 H   -0.8811131033    1.1813786952    1.1311779138
 H    2.1363952249    0.3276686132   -0.0213375722
 H    1.2409293300   -2.0771984202   -0.9251257494
 H    1.7982962239   -4.1535372012   -1.6630152472