14

 C   -0.1160977298   -3.8574508029   -0.1622370190
 C   -0.0516836450   -2.6534013233   -0.1013705628
 C    0.0184812861   -1.2968685097   -0.0342160901
 C    0.0875559976   -0.0903931245    0.0281922762
 C    0.1167555140    1.3571559484    0.1096979060
 C   -0.4855317814    1.9513537794    1.4311669334
 N    0.6178548203    2.7005701798    2.0440827710
 C    1.6092805562    2.5640172759    1.2709297652
 O    1.4947852761    1.8400020940    0.1294734640
 H   -0.1701406297   -4.9167599026   -0.2144737766
 H   -0.3541275771    1.7885488360   -0.7797209999
 H   -1.3285148365    2.6170403036    1.2251606667
 H   -0.8325200033    1.1655296473    2.1072025131
 H    2.5954556623    2.9862770385    1.4286110328