19

 C   -0.0713515934    1.5690095234    0.0526396269
 C    0.1003243927    0.0636411766    0.0566868673
 C    1.3368335244   -0.6756045283   -0.2573197246
 O    1.3101466918   -1.6180830333   -1.2539079017
 C    2.6078237572   -0.0425268873    0.3079159527
 C    1.9825125677   -0.0305013508    1.7387253679
 C    0.7178086390   -0.7127708162    1.2219881069
 C    0.0411852139   -1.8277848297    1.8724655525
 O    0.3482818694   -2.2837004900    2.9540028584
 H    0.8122614238    2.0903398276    0.4287049182
 H   -0.2605286339    1.9271941666   -0.9646318084
 H   -0.9216114821    1.8616604667    0.6767510083
 H   -0.7615204208   -0.4734426631   -0.3398209470
 H    2.0247269574   -2.2483365821   -1.1045876188
 H    3.4597717596   -0.7263735510    0.2462171417
 H    2.9052967812    0.9148159630   -0.1322632157
 H    2.5166671886   -0.6647911922    2.4469757933
 H    1.8437269018    0.9556979700    2.1899243018
 H   -0.7909527984   -2.2715026799    1.2780892803