18

 C    0.0236081435    1.5069837098   -0.1540645020
 C    1.3375089956    0.8183950340    0.0296676053
 O    1.8781902917    0.7235582555    1.3450333465
 C    0.9116174219   -0.0010800789    2.0631492872
 C    0.7930714324   -1.1477182200    3.0989502267
 N   -0.6470580125   -1.0007112042    2.5469572442
 C   -0.4213634496    0.5006924253    2.6951102436
 C    0.1012076681   -0.8557244610    1.1390315647
 C    0.0264199070   -0.0173230169   -0.1129020156
 H   -0.3702779289    2.1138932647    0.6488098820
 H   -0.1671638092    1.9181553479   -1.1406123961
 H    2.1130288964    0.8492451247   -0.7256997130
 H    1.2664594378   -2.1028547797    2.8629011889
 H    0.8552198600   -0.9037840172    4.1611819713
 H   -0.3938606546    0.8330824982    3.7357255686
 H   -1.1224695953    1.0908077284    2.1109406814
 H    0.5032487092   -1.8373008583    0.8732383650
 H   -0.1831020834   -0.5201882822   -1.0497827785