14

 N   -0.0753785246    1.3227028880    0.0081471262
 C    0.0544300999   -0.0250923782    0.0019862915
 O    1.1166450284   -0.6223246983   -0.0086568116
 C   -1.2608714624   -0.7648506538    0.0096973214
 N   -2.3981005600   -0.0620122201    0.0207405047
 C   -3.5310075614   -0.7628667367    0.0271160597
 C   -3.5278433088   -2.1569254711    0.0225042878
 N   -2.3964634921   -2.8650071293    0.0114866199
 C   -1.2634778163   -2.1615589247    0.0051005073
 H    0.7519158765    1.8939183750    0.0025454798
 H   -0.9939991310    1.7344004399    0.0158076992
 H   -4.4629578318   -0.2041347911    0.0360925582
 H   -4.4610365253   -2.7139225979    0.0278377560
 H   -0.3220746410   -2.6996170118   -0.0039234802