13

 N    0.0397920297    1.3269707480    0.1392360580
 C   -0.0207063302   -0.0440631462    0.0305478293
 N   -1.1294391385   -0.7460775372    0.0159142592
 C   -0.6656723199   -2.0495185010    0.0037083274
 N   -1.1402947607   -3.2921577130   -0.0204428761
 N   -0.0040349935   -4.0097539733   -0.0435689627
 N    1.1760680672   -3.3455350879   -0.0341433146
 C    0.7366576401   -2.1015368297   -0.0038121586
 N    1.1633799506   -0.7873626796   -0.0155964407
 H    0.7411418647    1.7773826582   -0.4326632229
 H   -0.8728125197    1.7466764945    0.0253601223
 H   -0.0247330262   -5.0147197133   -0.0313612839
 H    2.0778639465   -0.4348273196    0.2095181634