23

 C   -0.0112463956    1.5561479081    0.3468698366
 C    0.0213599058    0.0365122007    0.1155310746
 C    0.6787102758   -0.6576919599    1.3224685128
 C   -1.4206847541   -0.4783656667   -0.0647934537
 C    0.8107261065   -0.3681030993   -1.1371224638
 O    0.3332011175    0.2070139425   -2.3924545231
 C    1.6827669190    0.4393121420   -2.8069311355
 C    2.3340036081    1.4843384066   -1.9688142431
 C    2.2488902664    0.0544062868   -1.4571143537
 H    0.9846874503    1.9546646592    0.5607105514
 H   -0.4147749407    2.0768076744   -0.5257793409
 H   -0.6505716027    1.7900055873    1.2049892530
 H    0.1199971353   -0.4439992190    2.2395693855
 H    0.7036378233   -1.7459140096    1.1953780077
 H    1.7071253778   -0.3104523166    1.4695028925
 H   -1.8862270783   -0.0289443283   -0.9466185484
 H   -1.4406520842   -1.5666764183   -0.1904414184
 H   -2.0316337966   -0.2309647063    0.8096991046
 H    0.7480234159   -1.4632614456   -1.2278895056
 H    1.9558479950    0.1659010683   -3.8195103963
 H    3.3359926019    1.7628327747   -2.2826491281
 H    1.7465061533    2.2911362145   -1.5487112529
 H    3.1299460903   -0.5246361955   -1.2162061051