15

 N    1.0965056328   -0.1151471707    0.2862912039
 C   -0.0214980510    0.4533814454    0.0711831096
 N   -1.1985493853   -0.2297969113    0.2994400147
 C   -2.4746890542    0.2471855493    0.1141972367
 N   -2.6220637037    1.5015038363   -0.3327163757
 C   -3.8776752503    1.9138751210   -0.4945486093
 C   -4.9784312746    1.1097525345   -0.2227632295
 C   -4.6946600958   -0.1734152107    0.2361267538
 N   -3.4548657806   -0.6212622582    0.4103375393
 H    1.8595746355    0.5226542655    0.0688633489
 H   -0.1908699786    1.4684437835   -0.2913429496
 H   -1.1238524248   -1.1793510786    0.6372254768
 H   -4.0025439039    2.9319458025   -0.8573942553
 H   -5.9930968277    1.4597465398   -0.3594962041
 H   -5.4933785979   -0.8726375983    0.4744100498