20

 C    0.1007488233    1.6090759453   -0.0007142253
 C    0.0051876919    0.0828645152    0.0046289627
 C    0.7127243824   -0.5281405176   -1.2187668205
 C    0.7412961290   -2.0581943374   -1.2340024502
 O   -0.5408234779   -2.6314021271   -0.9671108343
 C   -0.7223660320   -3.1546397947    0.3040951924
 O   -0.9606120699   -2.1829363320    1.3247250737
 C    0.1278922013   -1.4632301707    1.7675255544
 N    0.6056464565   -0.4234780913    1.2421839437
 H    1.1446284665    1.9310063936    0.0658551274
 H   -0.3357196618    2.0215925871   -0.9162131156
 H   -0.4363114004    2.0307992608    0.8535684778
 H   -1.0489212249   -0.2159881036   -0.0510185639
 H    0.1978786138   -0.1641583840   -2.1151231986
 H    1.7491170212   -0.1702830201   -1.2739634837
 H    1.0472737154   -2.4103897532   -2.2252926521
 H    1.4729600091   -2.4370668662   -0.5083251641
 H   -1.6339911293   -3.7534513557    0.2717577885
 H    0.1390773696   -3.7744723646    0.6000720852
 H    0.5479902462   -1.8500617337    2.6982879626