16

 N   -0.0280898740    1.4088924531   -0.1330129240
 C    0.0391703788    0.0303763669   -0.0227936987
 N   -1.0660602597   -0.6983465003   -0.0238100117
 O   -0.6401993220   -2.0536175937    0.0062544082
 C    0.6868245612   -2.0398826203    0.0413395195
 C    1.1991601740   -0.7945027735    0.0271095089
 C    2.6938595586   -0.8501795498    0.0346140756
 N    2.9442511098   -2.3020051300    0.2790351739
 C    1.7187697107   -3.1144073497    0.0657422709
 H    0.6650139138    1.9011697705    0.4124267317
 H   -0.9589873106    1.7682514952    0.0344508654
 H    3.1254078142   -0.5003374112   -0.9167126398
 H    3.1558238157   -0.2528398899    0.8326361005
 H    3.7122074636   -2.6414918139   -0.2832280287
 H    1.5748593136   -3.8341536573    0.8822507264
 H    1.7263850024   -3.6876359362   -0.8751358580