18

 N    0.0903860055    1.2602428163    0.5249815120
 C    0.0657179093    0.0133865308    0.3313430449
 O    1.1537424073   -0.7794048908    0.1245439218
 C    0.7463472169   -2.1556066207   -0.0313631126
 C   -0.6544811295   -2.2284627227    0.5867693927
 C   -1.1967735787   -0.8373746554    0.2808839384
 C   -2.4611114115   -0.2620862216    0.9376308867
 C   -2.9678761736   -0.0907349913   -0.5073698489
 O   -1.8002912454   -0.7607394828   -1.0407626915
 H    1.0456337517    1.6194538184    0.4811314962
 H    0.7314302460   -2.3996926451   -1.0990813670
 H    1.4907026653   -2.7791564476    0.4677546650
 H   -1.2777087659   -3.0158548285    0.1604473257
 H   -0.5873392588   -2.3694146896    1.6712377136
 H   -3.0189307836   -0.9820688441    1.5390683537
 H   -2.2957153893    0.6570723985    1.4981301170
 H   -3.8897852897   -0.6188748656   -0.7738600089
 H   -3.0282598759    0.9471671418   -0.8513447590