19

 C   -0.0530952156    1.4929931786   -0.2324136442
 C    1.3511287044    2.0064182578    0.0615356858
 C    2.1271500894    1.6720668066    1.3253060544
 C    1.5889149095    0.7855277046    2.4416429949
 C    1.0375235642   -0.4744006883    1.7556776445
 O   -0.3552571201   -0.3368529436    1.4037677924
 C   -0.0178600200   -0.0196853333    0.0369593726
 C    1.4801822538   -0.4001489389    0.2599653313
 C    2.3314746701    0.8492866847    0.0677869974
 H   -0.8415919494    1.9597253897    0.3670857104
 H   -0.2807021245    1.6863259324   -1.2878037212
 H    1.6398836939    2.9416541174   -0.4081154239
 H    2.8740051515    2.4099289637    1.6016836173
 H    2.4190323274    0.5231376529    3.1087912078
 H    0.8073407497    1.2492763343    3.0524169139
 H    1.2087982634   -1.3935006585    2.3241831917
 H   -0.6247008686   -0.6035313937   -0.6617152159
 H    1.8444994969   -1.3136995955   -0.2054391464
 H    3.2525368441    0.8352580893   -0.5015053229