18

 O   -0.0675001819    1.3342389965   -0.2577843232
 C   -0.0071367447   -0.0496374369   -0.0471747153
 C   -0.3717860681   -0.5770005135    1.3144306149
 C   -1.3329423014   -0.7182474334    0.1474689284
 C    1.0814451302   -0.7264517653   -0.8564713159
 C    0.9286130198   -0.5166961990   -2.3878977718
 O    2.1856376144    0.0869330475   -2.7921564492
 C    2.8713539246    0.2775062783   -1.6477267609
 N    2.3956950348   -0.1169087550   -0.5396585101
 H    0.7788716295    1.6902018003    0.0423631720
 H    0.1317312527   -1.4631378938    1.6851287275
 H   -0.6174353382    0.1608313150    2.0692168536
 H   -2.2032687489   -0.0726745032    0.1367250480
 H   -1.4902346546   -1.7031484339   -0.2794791505
 H    1.1135287120   -1.7894031881   -0.5920828792
 H    0.8025999456   -1.4426146415   -2.9519514335
 H    0.1252331067    0.1823458696   -2.6314970742
 H    3.8284664475    0.7718199963   -1.7777715006