15

 C   -0.0774444218    1.4146410976    0.1209052912
 N    0.0420056457   -0.0126312665   -0.0700924362
 C    0.6439810764   -0.5770992710   -1.1230090228
 C    1.2662100771   -0.0933205920   -2.2283842159
 C    1.7295408450   -1.2322086279   -3.0279294374
 O    2.3242017622   -1.2651835893   -4.0774980135
 N    1.3355867731   -2.4074722926   -2.3148940123
 C    0.6771792407   -2.0941446168   -1.1587245246
 O    0.2073180723   -2.8273948317   -0.3171285976
 H    0.9096086708    1.8902715451    0.1793414767
 H   -0.6320800658    1.8786657742   -0.7042281473
 H   -0.6122538549    1.6101701790    1.0513164692
 H   -0.3354998825   -0.6578033508    0.6084157657
 H    1.4288239095    0.9286638298   -2.5307087628
 H    1.5262682821   -3.3422881870   -2.6368912222