19

 C    0.0665015280    0.4042128977    0.7880995182
 C   -0.0739512776   -0.4756858721   -0.4574037136
 C    0.8135848871    0.0137382498   -1.5988503307
 O    0.6566687541   -0.7639132574   -2.7911031290
 C    1.3156804691   -1.9333983729   -2.8418860834
 C    2.2149776804   -2.5894126050   -2.0201503655
 C    2.5135370328   -3.7757554739   -2.7324140286
 N    1.8670086439   -3.8607506677   -3.8860954566
 N    1.1346072524   -2.7168860470   -3.9307975412
 H    1.0938655198    0.3992039123    1.1685626947
 H   -0.2028038929    1.4446660383    0.5750150473
 H   -0.5855998545    0.0509189348    1.5914931890
 H    0.1836333728   -1.5129747298   -0.2187610668
 H   -1.1134372421   -0.4800375244   -0.8047457154
 H    0.5354364112    1.0303723987   -1.8915465325
 H    1.8714649105    0.0258016858   -1.3062607208
 H    2.5932673407   -2.2721793214   -1.0639167772
 H    3.1813090598   -4.5720412983   -2.4360099984
 H    0.5441959445   -2.5209655078   -4.7207397394