14

 C   -0.0136257246    1.4324176749    0.0675609852
 N   -0.0225227555   -0.0143673572    0.1660807536
 C   -1.1127175280   -0.6704320486    0.0601050530
 C   -1.1294499597   -2.1210556343    0.1577526661
 C   -2.3016457376   -2.7634490058    0.0395366852
 N   -3.4422425938   -2.0240256017   -0.1695275767
 N   -3.4584289437   -0.6699150534   -0.2651830154
 N   -2.3825591197   -0.0275107347   -0.1603211935
 H    0.6605323324    1.7253578155   -0.7471468976
 H   -0.9932685139    1.8901096876   -0.0999135543
 H    0.4199219407    1.8449659483    0.9872795251
 H   -0.1987910319   -2.6465658423    0.3229684270
 H   -2.4316763035   -3.8373884644    0.0955197260
 H   -4.3532050613   -2.4393729142   -0.2672134336