16

 C   -0.0626379380    1.5351618317    0.0110727875
 C   -0.0015755490    0.0189193639    0.0028640069
 O   -1.3369709981   -0.4738786501    0.0106341586
 C   -1.4681716043   -1.8226630178    0.0047313297
 C   -2.6806016225   -2.4876902428    0.0106151035
 N   -2.3690656527   -3.8106570524    0.0014758064
 N   -1.0531390098   -4.0544489756   -0.0099014773
 C   -0.4885609830   -2.8444171198   -0.0079896494
 H    0.9484925402    1.9527416966    0.0053280795
 H   -0.5959134018    1.9036912075   -0.8695620850
 H   -0.5821151325    1.8946653467    0.9036045539
 H    0.5242024501   -0.3485075720   -0.8906487560
 H    0.5378731877   -0.3575676354    0.8843757449
 H   -3.6938589533   -2.1231133026    0.0202489952
 H   -3.0080890171   -4.5866430283    0.0024056391
 H    0.5861846643   -2.7554269198   -0.0157676176