20

 N   -0.0630235146    1.2500432609   -0.4268191264
 C   -0.0082589087    0.0422438693   -0.0919072878
 O    1.0552421267   -0.7316435857    0.3167840423
 C    0.1656169465   -1.8667869352    0.6348019605
 C    0.1457892716   -2.1481473586    2.1443567785
 C   -1.2662364356   -2.1410444360    2.7531709515
 C   -2.0338443090   -0.8729423217    2.3595293472
 C   -2.2972567821   -0.8504532922    0.8480494058
 C   -1.0275067347   -1.0723369451    0.0257137316
 H    0.8568243858    1.6919316573   -0.3800108495
 H    0.4770040466   -2.7382357925    0.0546514367
 H    0.6501668896   -3.0960998590    2.3566688925
 H    0.7414886876   -1.3630236274    2.6226604221
 H   -1.8285745943   -3.0230322953    2.4166520854
 H   -1.1853050724   -2.2232897121    3.8421327763
 H   -2.9868608459   -0.8196655609    2.8961799147
 H   -1.4562987784    0.0129046242    2.6551786655
 H   -3.0175563642   -1.6419352297    0.6061507782
 H   -2.7526003694    0.0961512977    0.5390690213
 H   -1.2810456451   -1.4412046779   -0.9725509563