20

 C    0.0093020218    1.2579142692    0.1737753904
 C   -0.0494753442   -0.2082801887   -0.2618691190
 C    0.5282279782   -0.4187967244   -1.6661804249
 N    0.4634586712   -1.8015351558   -2.1037304170
 C    1.5641050886   -2.5561898962   -2.3498236183
 O    2.7191742948   -2.1812743556   -2.2466024519
 C    1.2507553917   -3.9768508960   -2.7629815008
 C    0.5475694507   -4.8863058129   -1.8432142343
 O   -0.1234358981   -4.3218328749   -2.9710784647
 H    1.0413999500    1.6242569108    0.1894411545
 H   -0.5591959844    1.8989650352   -0.5091797733
 H   -0.4066925760    1.3897226810    1.1767396404
 H    0.5060776537   -0.8360358969    0.4446070337
 H   -1.0892126820   -0.5607385004   -0.2405361660
 H   -0.0021039402    0.2181630201   -2.3866182236
 H    1.5845699398   -0.1385480144   -1.6928336530
 H   -0.4278164038   -2.2304017284   -2.3061625967
 H    1.9581744915   -4.3930811211   -3.4761497639
 H    0.7369289974   -5.9562714281   -1.9006357084
 H    0.2242308193   -4.5135205325   -0.8732199233