19

 C   -0.0114373858    1.5281862728   -0.0881309243
 C    0.0032723862    0.0036209150   -0.0128445083
 C   -1.3957747699   -0.6047089164    0.0214168919
 C   -1.4014736431   -2.1255141270    0.1998655811
 O   -2.7162659937   -2.6519157174    0.2878311215
 O    0.6636389958   -0.5384491107   -1.1735561057
 C    2.0057698415   -0.6217588156   -1.1396869688
 N    2.6476523686   -0.9655756089   -2.1712443971
 H    1.0061067841    1.9288239758   -0.1260273869
 H   -0.5416542754    1.8589129490   -0.9861535494
 H   -0.5117321117    1.9503989642    0.7887156792
 H    0.5592402575   -0.3154441459    0.8821820495
 H   -1.9618790211   -0.1494618490    0.8413275807
 H   -1.9113070728   -0.3415173554   -0.9116975461
 H   -0.8275987848   -2.5989111304   -0.6079252252
 H   -0.9134860388   -2.3904456094    1.1453941776
 H   -3.1244836761   -2.5680796253   -0.5796181045
 H    2.4354966619   -0.3836209569   -0.1556854467
 H    3.6430309076   -1.0042895184   -1.9619964786