17

 C    0.2531067644    1.0907353005    0.2815923740
 O   -0.1840937649   -0.2124014338   -0.0873749321
 C    0.5774690636   -0.8431750118   -0.9976145312
 N    0.2864639469   -2.0148347378   -1.3620332979
 C    1.1796183443   -2.6505609809   -2.2959407543
 C    2.5350281396   -3.0501569431   -1.6830689207
 C    3.2424132482   -4.2079318333   -2.3591277628
 O    3.0070753751   -2.4554803284   -0.7450728445
 H    1.2325764276    1.0580422908    0.7727815815
 H    0.3046331885    1.7588021361   -0.5868695183
 H   -0.4875713164    1.4754079150    0.9834742334
 H    1.4202005940   -0.2478627934   -1.3758488583
 H    0.6981325475   -3.5403838886   -2.7151484129
 H    1.4392417518   -2.0128424298   -3.1614684426
 H    3.2005634665   -4.1119446642   -3.4495712822
 H    4.2788177410   -4.2640883897   -2.0244258769
 H    2.7293479322   -5.1424715676   -2.1023517242