13

 N   -0.0836945353    1.2917311266    0.0066666167
 C   -0.0049587948    0.0330207671   -0.0001598738
 N   -1.1056259521   -0.8477229123    0.0017373270
 C   -2.4530882125   -0.4996264221    0.0112639302
 O   -3.3399133220   -1.3156332274    0.0122258873
 C   -0.6293652301   -2.1618006729   -0.0077325733
 C    0.7188429454   -2.2345514912   -0.0159313234
 C    1.2423451118   -0.8683254254   -0.0117331175
 O    2.3706076439   -0.4329741263   -0.0162775973
 H    0.8681698096    1.6718324662    0.0031771072
 H   -2.5891345335    0.5913979122    0.0176216204
 H   -1.3684346216   -2.9502061526   -0.0075602409
 H    1.3116241211   -3.1353255519   -0.0240800589