12

 C    0.1221592978   -1.2064137485   -0.0055553088
 C    0.0366690489   -0.0054126606    0.0023894029
 C   -0.0602303092    1.3951668621    0.0116741343
 C   -1.1499866642    2.2589886243    0.0318157170
 N   -0.7354571449    3.5699425578    0.0333990505
 C    0.5740038209    3.5169510941    0.0148316263
 N    1.0332981723    2.2344172607    0.0012051975
 C   -2.5189146850    1.8855305237    0.0488241717
 N   -3.6302194110    1.5625224148    0.0625056704
 H    0.1800972683   -2.2672833762   -0.0123004367
 H    1.2386532482    4.3675507300    0.0103567654
 H    1.9935102680    1.9297554278   -0.0138903305