22

 C   -0.0907583222    1.5692412422    0.0488926276
 C   -0.0699943153    0.0424761039   -0.0684581984
 C    0.7531159466   -0.4860475346   -1.2589645825
 C    2.2437524580   -0.1994421102   -1.1859059726
 C    2.9866807181   -1.3030082784   -1.2938661155
 C    2.1154131259   -2.5071051155   -1.4115249788
 N    1.2576114252   -2.7071679102   -0.2008844655
 C    0.7094958590   -2.0202606273   -1.3947252442
 C   -0.4128580890   -2.6562546984   -2.1725218562
 H    0.9094180485    1.9760205705    0.2297699737
 H   -0.4780586480    2.0358554995   -0.8643548979
 H   -0.7284074370    1.8885333078    0.8793095144
 H    0.3247321936   -0.4070976475    0.8477472437
 H   -1.1005915039   -0.3213558395   -0.1749435758
 H    0.3394463971   -0.0374796752   -2.1765841711
 H    2.6348688750    0.8013522964   -1.0412770653
 H    4.0690331604   -1.3469767399   -1.2676615757
 H    2.4238288617   -3.3825003082   -1.9744916391
 H    0.9133610438   -3.6674069429   -0.2084755860
 H   -1.3778427459   -2.5044329369   -1.6737393284
 H   -0.4895287516   -2.2277441982   -3.1779235040
 H   -0.2594209100   -3.7355692672   -2.2791795823