15

 O    0.2544301745    1.0618484412   -0.7086610829
 C   -0.0254782545    0.0590381572    0.2483296071
 C   -1.3912933999   -0.5223880107    0.0599578506
 C   -2.2354557189   -0.5647066636   -1.0015818951
 C   -3.4187453396   -1.2628681126   -0.5553008745
 C   -3.1799807075   -1.5846777004    0.7518469498
 O   -1.9607432505   -1.1379525057    1.1380934051
 C   -4.5814893994   -1.5531914725   -1.3053832510
 C   -5.5638703117   -1.7915454546   -1.9594589873
 H   -0.4247644388    1.7400187447   -0.6246707873
 H    0.7476647092   -0.7063004401    0.1086268583
 H    0.0703709239    0.4208772788    1.2841560565
 H   -2.0531117051   -0.1678022989   -1.9864822787
 H   -3.7611653442   -2.1010388111    1.4970233708
 H   -6.4318942475   -2.0059216017   -2.5318274514