15

 O    0.0394419351    0.0286885803   -0.3958252735
 C   -0.0151385408    1.1727775192   -0.0564801315
 C   -1.2635189496    1.9803053006    0.3174831229
 N   -0.8411310094    3.2464850221    0.9143593688
 C   -0.0066836920    3.0765382739    2.1116275885
 C    0.6359434911    3.3477256190    0.8031331156
 C    1.2035522499    2.1530067815    0.0508951777
 C    2.3710722778    1.5362950978    0.6624960599
 N    3.2943349970    1.0569454152    1.1654695374
 H   -1.8355363879    2.1774317676   -0.5980813361
 H   -1.9056877545    1.4013769433    0.9874218698
 H   -0.0927558428    3.8712921038    2.8451903179
 H    0.1023562186    2.0786898426    2.5352420811
 H    1.0350620699    4.3294977362    0.5734553052
 H    1.4594906373    2.4387960069   -0.9783677137