18

 O   -0.5004312304    1.1098677557    0.0806315163
 C    0.0800947444   -0.1623313799   -0.1529642528
 C    1.0157428411   -0.1135963584   -1.2990769845
 N    1.7677673974   -0.0532313861   -2.1745645133
 C    0.7853875040   -0.7320865404    1.0673969898
 C    0.0672860278   -1.1965349582    2.3035234538
 C   -1.2475347222   -1.9097366472    1.9636860666
 C   -0.4489378854   -2.9315711408    1.0892945732
 C    0.8511324676   -2.1914766047    1.4326393817
 H    0.1919836067    1.7031631409    0.3939074915
 H   -0.7567311005   -0.8031494376   -0.4428978778
 H    1.7145465102   -0.2096436682    1.2892814142
 H    0.3234114391   -0.7891024781    3.2741828570
 H   -1.7014463453   -2.3858517073    2.8345138533
 H   -2.0118758226   -1.3038163622    1.4676077639
 H   -0.4726006022   -3.9353386287    1.5174290113
 H   -0.7095210584   -3.0107327480    0.0288460260
 H    1.8053153286   -2.6673057707    1.6237200396