14

 C    0.0651540078    1.4843176177    0.0095072575
 C   -0.0774186844    0.0059315625    0.0199444264
 C   -1.1232600424   -0.8442777732   -0.1373830757
 C   -0.5961638171   -2.1794706254   -0.0168850835
 C   -1.3144977621   -3.4504777679   -0.1088546519
 O   -0.8018651800   -4.5425192795    0.0035270409
 C    0.7444055436   -2.0253896274    0.2066519467
 O    1.0718234529   -0.7197219951    0.2315937490
 H    0.7514967957    1.8153331847   -0.7777483902
 H   -0.9078049877    1.9475413942   -0.1667377882
 H    0.4555527498    1.8562065112    0.9632951756
 H   -2.1505238687   -0.5668110169   -0.3178841797
 H   -2.4067444073   -3.3480033149   -0.2962891258
 H    1.5434519998   -2.7315009899    0.3585678190