25

 C    0.0536378214    1.5732552676   -0.0607230120
 C    0.0071029110    0.0435826073   -0.0354188422
 C   -1.4201252646   -0.5126192736    0.0083295749
 C   -1.4777093797   -2.0370945231   -0.0011297339
 C   -2.8893146153   -2.6372229471    0.0400938525
 C   -2.7223243642   -3.9564128122   -0.7298426936
 C   -4.0086401287   -4.5610058435   -1.2859508377
 C   -1.7057911934   -3.5323021636   -1.7997396340
 O   -0.8779248213   -2.5379736565   -1.2085877290
 H    1.0842509257    1.9408119698   -0.0912169935
 H   -0.4664126914    1.9707148120   -0.9396935136
 H   -0.4261583208    2.0023049512    0.8265850187
 H    0.5121268060   -0.3620305713   -0.9185465689
 H    0.5650140217   -0.3268412639    0.8351692800
 H   -1.9337369828   -0.1507097023    0.9101230008
 H   -1.9907052227   -0.1384953604   -0.8523815270
 H   -0.8893925070   -2.4195176671    0.8500533613
 H   -3.2577494600   -2.7728203573    1.0604524946
 H   -3.5947668387   -1.9816948039   -0.4874808975
 H   -2.2390075230   -4.6859569321   -0.0667307169
 H   -4.5227112040   -3.8508138981   -1.9437986273
 H   -3.8049232031   -5.4670526592   -1.8668429034
 H   -4.7002393648   -4.8329013042   -0.4821267324
 H   -1.0746914284   -4.3599126364   -2.1441872506
 H   -2.2259269619   -3.1187661221   -2.6797552092