18

 C   -0.1762522365    1.6318241415    0.4580215216
 C   -0.0506259925    0.1446338908    0.0432813678
 C    0.7571939505   -0.5964135864    1.0288190993
 N    1.4032326697   -1.1589906886    1.8036821411
 C   -1.3561418157   -0.4923146421   -0.1424212539
 C   -2.4405946956   -0.9878457843   -0.3035031530
 C   -3.7414825813   -1.6206415683   -0.4735088694
 C   -3.9104607151   -2.8595343399    0.4147493567
 O   -5.2051375542   -3.3714580295    0.1549102398
 H    0.8142700663    2.0811703361    0.5616608194
 H   -0.7380000742    2.1722261559   -0.3067165087
 H   -0.7057012033    1.7177254786    1.4089009023
 H    0.5023809917    0.1014857959   -0.9053979264
 H   -4.5446105459   -0.9122346929   -0.2375882633
 H   -3.8871080850   -1.9197980971   -1.5183870576
 H   -3.1244876880   -3.5906736329    0.1751641250
 H   -3.7869228140   -2.5724694590    1.4693376164
 H   -5.3362824570   -4.1531032277    0.6991842929