19

 O    0.7716338802    0.6773309973   -0.4242673375
 C    0.0867718792   -0.3441592148    0.2567838897
 C   -0.0990286329   -0.1918880758    1.7972816113
 C   -1.6048466863   -0.5106187335    1.6422277094
 C   -1.4639843534   -0.4373199494    0.0752081918
 C   -2.0201973398   -1.8781209778   -0.0598330504
 C   -1.9563698435   -1.9971912285    1.4696423228
 C   -1.6021544640   -3.1389125168    2.3169305541
 O   -2.9501890961   -2.6544294121    2.2329116558
 H    0.3733133581    1.5202663371   -0.1818341141
 H    0.5952441738   -1.2696765123   -0.0314382580
 H    0.4988091557   -0.8340847105    2.4502504072
 H    0.0622899947    0.8492989061    2.0979343026
 H   -2.3275209224    0.0671685632    2.2195570768
 H   -1.9087491236    0.3491249265   -0.5358963533
 H   -3.0581462399   -1.8976179787   -0.4050473545
 H   -1.4354758039   -2.5877978378   -0.6531116785
 H   -1.4285962023   -4.1150386235    1.8650644734
 H   -1.1071675335   -2.9749478985    3.2736103515