14

 O   -0.0400699650   -0.0755422570    0.0039077191
 C    0.0029707556    1.1300489802    0.0092706033
 C   -1.2215681711    2.0917431572    0.0314734666
 C   -0.6983273369    3.5642472677    0.0317301932
 C    0.7810314004    3.3566002975    0.0098907251
 C    1.1358331506    2.0489220758   -0.0018143250
 O    2.4982189455    1.9692079830   -0.0211912988
 C    2.8745195729    3.2730109594   -0.0199619551
 N    1.9106340662    4.1489894869   -0.0018349278
 H   -1.8471695489    1.8733415971   -0.8385916136
 H   -1.8225511193    1.8642626657    0.9164370002
 H   -1.0473134342    4.1286822643   -0.8391060684
 H   -1.0226242973    4.1195737199    0.9178342878
 H    3.9373731214    3.4621755722   -0.0338625966