12

 C    0.0069008518    1.3745933172    0.0916648760
 N    0.0087287346   -0.0695263614    0.0240696133
 N   -0.1644869975   -0.7286863560   -1.1092464920
 C   -0.0975848996   -2.0150526184   -0.7554325930
 C    0.1214141065   -2.0657634014    0.6295456443
 O    0.2517941878   -3.1633096359    1.3961127757
 N    0.1869881560   -0.8287273157    1.1125052170
 H    0.9653983816    1.7368945390    0.4729242574
 H   -0.1560931435    1.7450704305   -0.9192990248
 H   -0.7932799045    1.7216189024    0.7509125980
 H   -0.2039057074   -2.8111429482   -1.4725578102
 H    0.3928857142   -2.8684478520    2.3041660183