16

 C   -0.0837625764    1.4856950766   -0.0930540599
 C    0.0112864357   -0.0590021165    0.0444970683
 C    0.7310859798   -0.4007036628    1.2859730781
 N    1.3349787670   -0.6462075680    2.2390781438
 C   -1.3485140586   -0.6240046039    0.1014367877
 N   -2.4219570911   -1.0502526029    0.0874697217
 C    0.7897521137   -0.6514999874   -1.1507633103
 C    0.5993177910   -2.0483536236   -1.5998557544
 N    0.1352955458   -0.9171935080   -2.4278925837
 H    0.9237128529    1.9062439664   -0.1215146690
 H   -0.6014538391    1.7351053341   -1.0215461529
 H   -0.6258924247    1.9182918258    0.7494787820
 H    1.7732967593   -0.1952062934   -1.2352754875
 H    1.4432412049   -2.5996898189   -2.0018079754
 H   -0.1462768487   -2.6520330206   -1.0904847252
 H   -0.8764289516   -0.8273976168   -2.3490778331