19

 O    0.0180764126   -0.0919726686    0.3530794169
 C    0.0184972169    1.0702091629    0.0180852438
 C    1.2372543861    1.9054740944   -0.0337976399
 C    1.4989351580    2.9231694474   -1.1528080682
 C    0.4945686909    3.1835568683   -2.2800877341
 C   -0.2852584813    4.4980056916   -2.0745736585
 C   -0.7766747431    4.6516035077   -0.6550827058
 C   -0.1197258436    4.1400778986    0.3875076480
 C    1.1712286271    3.4231743706    0.2158419019
 H   -0.9266873995    1.5835319694   -0.2556757559
 H    2.1125082567    1.3920294295    0.3501104723
 H    2.5424992497    2.9678061659   -1.4463590320
 H    1.0282677998    3.2140116262   -3.2347470109
 H   -0.2208677870    2.3606471011   -2.3631538619
 H    0.3531348730    5.3564338276   -2.3301634154
 H   -1.1282189558    4.5386055458   -2.7727840658
 H   -1.6944726682    5.2112241285   -0.4958141367
 H   -0.4979566338    4.2665983879    1.3985265747
 H    1.9874555617    3.7923488652    0.8316708274