19

 C   -0.0589181739    1.4555877442    0.0410246376
 N    0.1422979292    0.0214549141    0.0560942309
 C    0.6586685923   -0.6499806722   -1.0418790709
 C    1.2600089686    0.0140025950   -2.1154819375
 C    1.7971590477   -0.7310710322   -3.1602375058
 C    1.7114861181   -2.1142233753   -3.1115614046
 N    1.1335045544   -2.7656838657   -2.0954888650
 C    0.6212087708   -2.0679876659   -1.0853624594
 C   -0.0078718021   -2.8485406648    0.0398141571
 H    0.9014194529    1.9803676608   -0.0142058512
 H   -0.6814182704    1.8014622495   -0.7992361374
 H   -0.5426969251    1.7526823653    0.9739647755
 H   -0.5463538029   -0.4945263492    0.5783690162
 H    1.3101132354    1.0959877358   -2.1364580364
 H    2.2707811061   -0.2369460442   -4.0017922414
 H    2.1172424052   -2.7297464540   -3.9097035296
 H    0.4562788044   -2.6109788602    1.0053103198
 H   -1.0825230405   -2.6373090636    0.1373270004
 H    0.1098971798   -3.9145414973   -0.1565814684