14

 O   -0.1182712633    0.0233619968   -0.2708021274
 C   -0.0737537258    1.2073145864   -0.0882577013
 N   -1.0439555220    2.1715689570   -0.2654218819
 C   -0.5331185396    3.4372273679    0.0307148196
 C   -1.3582598561    4.6840862063   -0.0549439248
 C   -2.0837306629    4.8011570642   -1.3194642577
 C   -2.6935748498    4.8587911159   -2.3527333736
 C    0.7311208556    3.2364146160    0.4231597831
 O    1.0379196876    1.8930160065    0.3735813954
 H   -1.9199832230    1.9794328976   -0.7204115565
 H   -2.0813274839    4.7119054310    0.7730668038
 H   -0.6984828154    5.5472127505    0.0866196262
 H   -3.2243834601    4.9292879021   -3.2702148016
 H    1.5034569587    3.9036989717    0.7629845067