16

 N   -0.0707617692    1.2543199133   -0.0123734419
 C   -0.0402091357   -0.0048816789   -0.0047198869
 O    1.1008416860   -0.7831525397    0.0050183682
 C    0.6444889571   -2.1717436913    0.0285365015
 C   -0.6201100549   -2.1060517826   -0.8369899902
 C   -1.2236142029   -0.9624811718    0.0125921855
 C   -1.1491944996   -1.5616255005    1.4337410884
 O   -1.2020465120   -2.9906222419    1.5065218809
 C    0.0822467175   -2.3587902621    1.4460020069
 H    0.8765438114    1.6382715970   -0.0108053856
 H    1.4709668461   -2.8046914723   -0.2872628091
 H   -0.3953507270   -1.8012798977   -1.8601649274
 H   -1.2097930919   -3.0195450670   -0.8229074933
 H   -2.1649541306   -0.5138072892   -0.2926227702
 H   -1.5287946152   -1.0175262212    2.2914026016
 H    0.7307262210   -2.4755577142    2.3072786916