20

 C   -0.2281051947    1.5380111917   -0.1693298983
 C    0.0096183437    0.0627641017    0.0750806012
 O    0.8174019276   -0.6165093299   -0.9306495320
 C    1.3760775055   -1.4869310976    0.0937294769
 C    2.9013011920   -1.5679824908    0.1561429727
 C    3.3074511206   -0.3884202656    1.0345895467
 C    2.8976098419    0.9506002002    0.5616433799
 N    2.1053445952    0.2698330614    1.6094214995
 C    0.9214841068   -0.4966448665    1.1898979178
 H    0.6807836747    2.1361972901   -0.1106368234
 H   -0.6725792160    1.6762468107   -1.1605143711
 H   -0.9373461691    1.9192027356    0.5728274492
 H   -0.9675027564   -0.4425931770    0.1382749115
 H    0.8880499711   -2.4684276623    0.0674224113
 H    3.1981758306   -2.5149524567    0.6193027389
 H    3.3468786511   -1.5318679046   -0.8426671819
 H    4.1572966936   -0.5064108260    1.7008347185
 H    3.4092726157    1.8418759400    0.9152958595
 H    2.5141113935    1.0067884883   -0.4508627392
 H    0.4242323327   -0.8809763126    2.0829742924