16

 O    0.0077273749    0.0307074858    0.1818449580
 C    0.0011832618    1.2270787360    0.0281791075
 C   -1.1868436152    2.1236610450   -0.0663700217
 C   -0.8615928648    3.3037120242   -0.9611928999
 C   -1.0193196948    3.5636937421    0.5013737156
 N    0.3824353617    3.9856294174    0.6935692607
 C    1.2608352600    2.9232985686    1.2777655634
 C    1.2193761238    2.1436971301   -0.0763661338
 C    0.6577066218    3.4565977510   -0.7037240192
 H   -2.1861329278    1.7084483946   -0.0448912589
 H   -1.4422301804    3.6179251538   -1.8172282114
 H   -1.8307669070    4.0037526583    1.0683540301
 H    2.2471370490    3.3368145878    1.5048681097
 H    0.8656680911    2.4186284971    2.1642479501
 H    2.1177970464    1.6559948955   -0.4506578749
 H    1.2765163795    4.0640245227   -1.3625977553