15

 O    0.4532501438    0.9060354825   -0.6590825876
 C    0.1491743581   -0.1947412117    0.1268140316
 C    0.0462089864   -0.0754435563    1.6750503905
 C   -1.1688184536   -1.0404870597    1.6263997945
 C   -1.3414868573   -0.6961570497    0.1171738408
 O   -2.1335613361    0.4586007047   -0.0988239119
 C   -1.7187958382   -1.7791147355   -0.7922178404
 N   -2.0212751202   -2.6494915207   -1.4908288093
 H   -0.2958597157    1.5126485476   -0.5980682521
 H    0.8220410742   -1.0063199571   -0.1609955655
 H    0.9165124115   -0.3811642654    2.2567310648
 H   -0.2488657315    0.9342023725    1.9686573255
 H   -0.8894762325   -2.0863607466    1.7705442675
 H   -2.0322994720   -0.8084106738    2.2526685270
 H   -3.0600730067    0.2400703595    0.0491455246