18

 C    0.1303792159    1.5504089152   -0.1218684421
 C    0.0333174172    0.0358318593   -0.0115766511
 O    0.5879259108   -0.5255321829   -1.1927469648
 C    0.5832186593   -1.9495817635   -1.1629407505
 C    1.6168847915   -2.3964827531   -0.1380221526
 O    2.5150732774   -3.1650822656   -0.3708790046
 N    1.4593074076   -1.7793977133    1.1201014666
 C    2.2033798053   -0.5476566170    1.3998680554
 C    0.7189791388   -0.5247609051    1.2287744182
 H    1.1755350295    1.8623630285   -0.1975901347
 H   -0.4024758200    1.8988653701   -1.0101859077
 H   -0.3118749922    2.0258359899    0.7586607165
 H   -1.0304406154   -0.2562713794    0.0484564608
 H   -0.4191721858   -2.3396416959   -0.9238630637
 H    0.8820959067   -2.3017935534   -2.1505048623
 H    2.6391832703   -0.4720811008    2.3917098849
 H    2.8164425903   -0.1561012143    0.5925944592
 H    0.1161430930   -0.4589181187    2.1332864324