20

 C    0.0667506611    1.5469576065   -0.1905737315
 C    0.0511615492    0.0976718938   -0.0555791242
 C    0.0416073363   -1.1035661917    0.0429135956
 C    0.0266993392   -2.5474990168    0.1760812019
 C    0.2631651077   -3.1753278875    1.5869925759
 C   -1.1262555340   -3.7980341871    1.4494268620
 C   -1.4662757216   -5.2140385047    1.8075332096
 C   -2.1302442964   -2.7470325095    1.1918922147
 N   -1.3283687882   -3.2322067829    0.0471781947
 H    0.8822217424    1.8764227591   -0.8438962086
 H   -0.8710681004    1.9126558535   -0.6232467778
 H    0.1983164200    2.0391900357    0.7794298580
 H    0.6850344811   -2.9968909826   -0.5722033493
 H    1.0719823638   -3.9090186277    1.5801536033
 H    0.4128996773   -2.4858071739    2.4215005136
 H   -1.5248556026   -5.3367301214    2.8957411215
 H   -2.4326134041   -5.5002549850    1.3823270164
 H   -0.7095469022   -5.9113505540    1.4314447040
 H   -3.1698759061   -3.0535912339    1.1250268335
 H   -1.9783569526   -1.7292897796    1.5435029766