17

 C   -0.0219154095    1.5254414591    0.0566673416
 C    0.1010538621    0.0254914959    0.0079714512
 N   -0.7713433266   -0.8366523826    0.8584761858
 C    0.7083715933   -0.8185605927    1.0725786895
 C    1.4166021005   -1.9368482506    0.3777541275
 C    1.1537331912   -1.7876940842   -1.0609745705
 C    0.4304206646   -0.6784437269   -1.2787845634
 N    2.1274730308   -2.7857909514    1.0180147773
 O    2.7052308080   -3.7281032011    0.1559478528
 H    0.8703934527    2.0080781767   -0.3556379014
 H   -0.8860813789    1.8676588625   -0.5244078261
 H   -0.1490713707    1.8756983602    1.0860138817
 H   -1.1854398630   -0.2513412555    1.5852149213
 H    1.1012988439   -0.4183239089    1.9992638185
 H    1.4862970344   -2.5024674267   -1.7994133365
 H    0.0853620819   -0.3275917487   -2.2445553883
 H    3.1949210252   -4.2887149549    0.7669490191