16

 N    0.0191821797   -3.7264179060   -0.0407126259
 C    0.0278623749   -2.5641426832   -0.0182014656
 C    0.0393056061   -1.2008478707    0.0092230240
 C    0.0465355186    0.0097929392    0.0316148882
 C    0.0572778605    1.4363600183    0.0594508401
 C    0.4902398652    2.2461155366    1.2748455403
 C    1.6077931863    1.5287689046    2.0402991866
 C    2.4787071531    1.5476859775    0.7383127509
 C    1.3349516590    2.2644094601    0.0119682830
 H   -0.7651574176    1.8948993679   -0.4839985686
 H   -0.1771128848    3.0021712777    1.6707783936
 H    2.0345452981    2.1497264684    2.8297750830
 H    1.3549949706    0.5503880585    2.4566005031
 H    3.3628902676    2.1785952010    0.8439181660
 H    2.7800497814    0.5813383943    0.3262395017
 H    1.4358657613    3.0371050160   -0.7406943002