19

 O   -0.5990068172    0.8560426107   -0.6557697100
 C    0.1803833355    1.0299033186    0.2473328918
 C    1.3884665715    1.9397473410    0.1803274335
 C    1.5215899100    2.6388264830   -1.1804043250
 O    2.5762181977    3.5792232405   -1.1541287915
 C    2.2593615359    4.7067053073   -0.3551874899
 C    1.8273514275    4.3512021253    1.0676944922
 C    0.3748612417    4.0703329907    1.3719469379
 C    1.3674402316    2.9354117257    1.3385502007
 H    0.0431931797    0.5168861557    1.2276942214
 H    2.2732102649    1.3007267423    0.3232475057
 H    1.7614044578    1.9100993591   -1.9577097813
 H    0.5710889964    3.1170325773   -1.4629140416
 H    3.1684806651    5.3129884741   -0.3285145964
 H    1.4754754918    5.3010527467   -0.8538777905
 H    2.4036100786    4.8277282646    1.8538436480
 H   -0.0223800680    4.3713379853    2.3348937924
 H   -0.3331058651    4.1605924037    0.5530918043
 H    1.6433791248    2.5110540885    2.2992402681