19

 C    0.1839506138    1.5899404433    0.0119251727
 C    0.1003775781    0.0590052186    0.0071449211
 C    0.7550862828   -0.5537580478   -1.2202691789
 C    2.2411590623   -0.7028143581   -1.3374213949
 C    1.3638569451   -1.9389359535   -1.1268353578
 C    1.3855648614   -2.5776353629    0.1998127140
 C    1.0665483239   -1.9298268775    1.3312212303
 C    0.5836589318   -0.5368881999    1.3416854384
 O    0.4994918217    0.0975105812    2.3767915202
 H    1.2275791148    1.9195768023   -0.0124950033
 H   -0.3238258920    2.0080274054   -0.8625734350
 H   -0.2745846714    1.9904207930    0.9171627655
 H   -0.9645873569   -0.2226997936   -0.0237787272
 H    0.2352849620   -0.3340310764   -2.1485997525
 H    2.6977863570   -0.5716986902   -2.3121728161
 H    2.8635459146   -0.4088799158   -0.4986672419
 H    1.2605235265   -2.6051335426   -1.9764790644
 H    1.7158372428   -3.6131110539    0.2468894323
 H    1.1638851717   -2.3972683416    2.3055599174