14

 N   -0.0044904714    1.3875632759    0.1320571791
 C    0.0067951701    0.0143039384    0.0392704085
 C   -1.1703445021   -0.7483987479    0.0217552632
 N   -1.1748929981   -2.0744503033   -0.0110389495
 C    0.0216031238   -2.6730458564   -0.0283091638
 N    1.2043602970   -2.0717595265   -0.0255446744
 C    1.2074121040   -0.7308522354    0.0050286704
 C    2.4589296250   -0.0443595676   -0.0035673614
 C    3.4791503126    0.5964654824   -0.0171490650
 H    0.8520606472    1.8541004936   -0.1281990582
 H   -0.8412749911    1.8563856831   -0.1785841409
 H   -2.1384545789   -0.2485103226    0.0362624287
 H    0.0250480677   -3.7588596335   -0.0507224672
 H    4.3994352243    1.1273412598   -0.0215350996