13

 C   -0.0123141053   -1.1150404053   -0.0525650077
 C   -0.0073620822    0.0862355476   -0.0105262441
 C    0.0139292008    1.5149029268    0.0709086947
 C   -0.6724628427    2.4558595820    1.1056981839
 C   -0.0801784452    3.3074576641   -0.0393058113
 C    1.2288114578    2.4891517672    0.0237827650
 O   -0.6172178271    2.3269772961   -1.0131726885
 H   -0.0183294307   -2.1762945040   -0.0963351160
 H   -1.7602704738    2.3910045259    1.1243252985
 H   -0.2232286823    2.5298135054    2.0988055901
 H   -0.2259721757    4.3624655706   -0.2630595090
 H    1.8511382045    2.5661259515    0.9183927783
 H    1.8017907418    2.4533566220   -0.9026561137