21

 C   -0.0858883241    1.4126243525   -0.0428523443
 O    0.0190188498    0.0103028171   -0.0387149389
 C    0.6249748915   -0.4938587524    1.1339229786
 C    0.6961579905   -2.0169079674    1.0211666676
 C    1.5603347430   -2.5164269510   -0.1230906251
 C    2.4369377377   -3.4416613455    0.2740399873
 C    2.3726984480   -3.6699460504    1.7478638375
 C    2.7543220377   -2.4688701314    2.5907042809
 C    1.3036527945   -2.7101414566    2.2443834341
 H    0.9012688018    1.8982860611    0.0189961703
 H   -0.5638346573    1.7043084328   -0.9814629193
 H   -0.6985999527    1.7796721719    0.7963327490
 H    1.6339497794   -0.0678113901    1.2580700224
 H    0.0372502261   -0.2063163027    2.0227710853
 H   -0.3378721359   -2.3624205074    0.8767370394
 H    1.4549003202   -2.1248423157   -1.1272074254
 H    3.1482346625   -3.9502449358   -0.3675149559
 H    2.4981592503   -4.6652780702    2.1596531648
 H    3.0384935036   -2.6475238817    3.6228831599
 H    3.3006595109   -1.6681173311    2.1041320202
 H    0.6423627824   -2.9943795661    3.0544668215