19

 C   -0.1525981281    1.6316121544    0.1086813083
 C    0.0469626650    0.1279531568    0.1017130754
 C    1.1393338118   -0.6057535865   -0.7197905957
 C    2.4643195605    0.0726135719   -0.3151727564
 C    2.2314877048    0.0697928612    1.2284695713
 C    0.8539690233   -0.6296243645    1.2131708845
 O    1.0586828600   -1.7031123847    0.2469743865
 C    0.1895619026   -1.0346058314    2.4896165588
 O    0.1656288274   -0.3397797425    3.4753114703
 H    0.7846423798    2.1838440026    0.2110875756
 H   -0.6321641572    1.9565776417   -0.8209271474
 H   -0.8046618941    1.9265814010    0.9373117907
 H   -0.9003184658   -0.3984946546   -0.0424535982
 H    0.9950342562   -0.9155114677   -1.7550636695
 H    3.3198415847   -0.5375150258   -0.6102682010
 H    2.5866475275    1.0712916529   -0.7421107913
 H    2.9647237752   -0.5330625038    1.7667159539
 H    2.1970838274    1.0611028061    1.6830208843
 H   -0.3189775309   -2.0230138072    2.4469518800