18

 C    0.1267065995    0.9157640892   -0.8543980790
 C    0.0179361226   -0.0119219025    0.3344630193
 O    0.8649820513   -0.0812622594    1.1950353649
 C   -1.2136865547   -0.9194097311    0.3945129279
 C   -0.8350047916   -2.3536151642   -0.0135892290
 C   -2.0010414346   -3.3747034980    0.0945284083
 O   -2.1138732464   -3.9290917395   -1.2396815175
 C   -1.1870410950   -3.2771721952   -1.9771696686
 N   -0.4373473885   -2.4109444424   -1.4368430922
 H    1.0541897020    1.4874889022   -0.8059867244
 H    0.0957626890    0.3151206210   -1.7703469126
 H   -0.7310258196    1.5978926932   -0.8854926416
 H   -1.5696590626   -0.9289514043    1.4300473056
 H   -2.0177605616   -0.5564869480   -0.2542176039
 H    0.0196243887   -2.6572396304    0.6000351420
 H   -1.8011037255   -4.1944829441    0.7882916867
 H   -2.9589277761   -2.9120103860    0.3518020250
 H   -1.1631619469   -3.5679884803   -3.0217146008