20

 C    0.0098526577    1.4922942765   -0.0060648235
 C    0.0184439221   -0.0124131301   -0.0208539452
 C   -1.3081925291   -0.7926517408   -0.1849488990
 C   -0.7753033635   -2.0735572045    0.4863318148
 C   -0.4101470657   -1.5094101180    1.8706592245
 N    0.6865086661   -0.7391227451    1.1879946378
 C    0.7611444149   -1.8877579085    0.1714502800
 C    0.9665010910   -0.8361068875   -0.9204010616
 O    0.5509047003   -1.0359419031   -2.2470059835
 H    1.0158914571    1.8873092595    0.1618665828
 H   -0.3621235412    1.8814318966   -0.9603194198
 H   -0.6410032111    1.8728245223    0.7887204950
 H   -2.1470154808   -0.3493849270    0.3596439663
 H   -1.5813554739   -0.9120158192   -1.2339607720
 H   -1.3128249823   -3.0109083894    0.3372948882
 H   -1.1556142262   -0.9160884097    2.4118070337
 H    0.0500841428   -2.2322608391    2.5508792486
 H    1.4477431127   -2.7100869715    0.3795191431
 H    1.9886681712   -0.4410402127   -0.8575064862
 H    1.2401646379   -1.5160226088   -2.7152515444