19

 O   -0.0836322252    1.4325621340    0.0326098150
 C    0.0238322659    0.0105068232    0.0392872250
 C    0.6724616169   -0.5265221097   -1.2521765924
 C   -0.0924021634   -0.1051048891   -2.5085987377
 C    0.5933025515   -0.5927920557   -3.8004780491
 C   -0.1277529009   -0.2075208744   -5.0075592505
 C   -0.7414908244    0.1211655523   -5.9874004482
 C    0.7356408713   -0.4689423181    1.2276830736
 C    1.3624825876   -0.8365113815    2.1855416778
 H    0.7939937933    1.7894642349    0.2099157867
 H   -1.0145463391   -0.3428001475    0.0797074576
 H    1.7083352443   -0.1637087725   -1.2950746724
 H    0.7293411028   -1.6198259590   -1.1832366136
 H   -1.1133002406   -0.5039714460   -2.4749439371
 H   -0.1850874173    0.9841779335   -2.5306969991
 H    1.6159746102   -0.1947345576   -3.8438588248
 H    0.6973311047   -1.6857525296   -3.7717219280
 H   -1.2757988861    0.4072954016   -6.8589801243
 H    1.8964046286   -1.1660234490    3.0426246315