18

 C   -0.0650069427    1.5584423043    0.0405322956
 C    0.1055201331    0.0632183358   -0.0070784412
 N   -0.7567607030   -0.8212551414    0.8381483582
 C    0.7007363554   -0.7810582949    1.0758256767
 C    1.4492200517   -1.9458755140    0.4393957367
 C    1.1748838681   -1.7503060308   -1.0403306118
 C    1.6343908005   -2.6762007511   -2.0751469611
 O    2.2600979002   -3.6903809133   -1.8534063887
 C    0.4643019982   -0.6345034061   -1.2775930764
 H    0.8032531876    2.0702228568   -0.3879341458
 H   -0.9506754612    1.8747387701   -0.5224815984
 H   -0.1821432188    1.9049608082    1.0722992900
 H   -1.2113085372   -0.2365515171    1.5392208268
 H    1.0641147696   -0.3380598726    1.9974552290
 H    2.5242893938   -1.9120584222    0.6503198066
 H    1.0836011119   -2.9153086373    0.7924956993
 H    1.3729496565   -2.3759279297   -3.1148443409
 H    0.1649560664   -0.2824806746   -2.2595341946