17

 O    0.0653047204    1.4843657159   -0.2235677042
 C    0.0265897548    0.0687959458   -0.2093618501
 C   -1.3758220730   -0.4713782018    0.1124601589
 C   -1.4180360462   -1.9721204405    0.0984250502
 C   -1.6195095455   -2.8429023296   -1.1603548190
 C   -2.5112262387   -3.0109985736    0.0114220996
 O   -1.8465301913   -3.8595123954    0.9908209601
 C   -0.8680335777   -2.8876391459    1.1667347856
 O    0.0072721761   -2.8759169241    1.9702509441
 H   -0.0244152034    1.7930677218    0.6835574957
 H    0.3225048974   -0.2514222365   -1.2140189294
 H    0.7549942570   -0.3550485432    0.4967834527
 H   -1.6831847543   -0.1048883413    1.1008777699
 H   -2.0881260431   -0.0651849473   -0.6141420968
 H   -2.0251086701   -2.2912956490   -2.0041834836
 H   -0.9187427673   -3.6319492767   -1.4137863186
 H   -3.5870134550   -2.9321990187    0.0740258948