19

 C   -1.0579444695    1.0225360604    0.2537619918
 C   -0.0247511850   -0.0623939804    0.0868289057
 N    0.9298720270   -0.3798346198    0.8608273606
 O   -0.2315150774   -0.7220534651   -1.0733478516
 C    0.6844277730   -1.7881667559   -1.3747256432
 C    0.1934885801   -2.4725073969   -2.6179477975
 C   -1.1850354170   -3.0697115617   -2.6374691222
 N    1.0357626402   -2.5198393103   -3.5783623259
 O    0.5392981216   -3.2324395278   -4.6769974343
 H   -0.9043189911    1.5683716946    1.1858307313
 H   -1.0064361269    1.7228506403   -0.5853404150
 H   -2.0632617492    0.5903348735    0.2524627674
 H    0.9363725747    0.2155299817    1.6855526487
 H    1.6918737750   -1.3940630083   -1.5238769446
 H    0.7122545716   -2.4792837929   -0.5237051855
 H   -1.1409071948   -4.1412828090   -2.4076378931
 H   -1.8203381951   -2.5834703255   -1.8953153475
 H   -1.6323082387   -2.9707240168   -3.6283130102
 H    1.2575634616   -3.1488988702   -5.3130444449