19

 C    0.0544423013    1.5179843642    0.0225678613
 O    1.1836827601    0.6219259275    0.0017859044
 C   -0.1196139559    0.0652325126    0.0218519978
 C   -0.5160890068   -0.9132888446    1.0969078840
 C   -1.8828896455   -1.5122687496    0.7702838036
 C   -2.8269051856   -0.7495275660   -0.1615612161
 C   -2.0328026888   -0.6397118303   -1.4933640366
 C   -0.5813520468   -0.9173990780   -1.0757107566
 C   -0.6711975808   -2.0061618411    0.0406452942
 H   -0.0725720091    2.0819893866    0.9461598682
 H   -0.0962686746    2.0909756060   -0.8920988209
 H   -0.0865111473   -0.9695308142    2.0901118818
 H   -2.3004768636   -2.1284079748    1.5595541207
 H   -3.7657834882   -1.2950911472   -0.2960915474
 H   -3.0839160550    0.2360887433    0.2403071368
 H   -2.3674443010   -1.4016791923   -2.2059935275
 H   -2.1492546062    0.3359291501   -1.9755118498
 H    0.1338712515   -1.0574941720   -1.8859810173
 H   -0.2886285176   -3.0170063903    0.0213765292