19

 C   -0.0265098322    1.4992846925    0.0787529515
 C   -0.0280516359    0.0074317164   -0.0003274226
 C    0.0043392817   -0.7639016664   -1.0947604114
 C   -0.0067881192   -2.2188880677   -0.7625848511
 C   -0.7297129300   -3.2115475645   -1.6070261078
 N    0.7379308690   -3.2263933214   -1.5394766536
 C    0.0354963429   -2.2707193267    0.7450688828
 N    1.2523533075   -1.6537945860    1.3225456109
 C   -0.0113972784   -0.8661923370    1.2223020239
 H    0.8630810757    1.8627524217    0.6086453869
 H   -0.0428730331    1.9559204549   -0.9144513453
 H   -0.8962657437    1.8697293316    0.6364280266
 H    0.0652316304   -0.4042351865   -2.1174238610
 H   -1.2153968511   -4.0652982114   -1.1393951904
 H   -1.2202598515   -2.8499168187   -2.5077932774
 H    1.1367580122   -2.7952827645   -2.3704714612
 H   -0.4414693098   -3.0891873244    1.2726549638
 H    1.3458310256   -1.9937350433    2.2791818112
 H   -0.5184965301   -0.5645362388    2.1333221942