17

 O    0.0392365553    1.3590485869   -0.0939112404
 C    0.0152894121   -0.0249560573   -0.0393222129
 C   -0.5189626778   -0.7533094828   -1.2703129029
 C   -1.3309892829   -0.7397658304   -0.0108754025
 O   -1.4688063658   -1.9566621265    0.6667562928
 C   -0.5600231662   -2.1725851560    1.7308119134
 C    0.8984747759   -2.0373781864    1.2480759818
 C    1.0992013796   -0.6092918417    0.7954555581
 O    2.0018695577    0.1089277619    1.1842121714
 H    0.8665196434    1.6020961922    0.3541488756
 H   -0.8111164714   -0.0925782588   -2.0786551018
 H   -0.0721967606   -1.6966576485   -1.5628786101
 H   -2.2054898763   -0.0965436985    0.0425903234
 H   -0.7454609561   -1.4692432688    2.5568759915
 H   -0.7562559534   -3.1842871554    2.0948364343
 H    1.6135308565   -2.2580404935    2.0442745881
 H    1.0622455501   -2.7405669064    0.4235223203