13

 N    0.0682927824   -1.1032321061   -0.0524257595
 C   -0.0024462384    0.0536036140   -0.0192499960
 C   -0.0377716351    1.4603203645    0.0163857369
 C   -1.0601150958    2.3292863182    0.0222128189
 C   -0.3127728563    3.6732831688    0.0454845156
 C    0.7647686598    3.4506923147   -1.0621179121
 C    1.1774419223    2.4323062534    0.0406151222
 O    0.7368784586    3.4046047054    1.0313126835
 H   -2.1251651290    2.1552455512    0.0018891341
 H   -0.8622466302    4.5996868172    0.1973437836
 H    0.4537906682    3.0780891842   -2.0395109228
 H    1.4611251930    4.2879780057   -1.1368318372
 H    2.1788948707    2.0336298488    0.1858223626