19

 C    0.0426355044    1.5076550913   -0.2411254903
 C   -0.0125824868    0.0286333954    0.1673275973
 O    0.5754442914   -0.1478660566    1.4272952221
 C   -1.4409387079   -0.5248227268    0.1802821032
 O   -1.8668209584   -1.0291155932    1.1997264977
 C   -2.2691054345   -0.4411808029   -1.0854999499
 C   -3.5457272025   -1.2977335244   -1.0167736308
 C   -4.3526776905   -1.1812665810   -2.2241667684
 C   -4.9996644926   -1.0685132954   -3.2307195640
 H    1.0758133371    1.8542379732   -0.1636082850
 H   -0.2951997198    1.6596282784   -1.2704331938
 H   -0.5708978777    2.1149866968    0.4312634030
 H    0.5354662059   -0.5597451195   -0.5915417931
 H   -0.0909820623   -0.6123073058    1.9591391641
 H   -2.5320241478    0.6111727821   -1.2522337449
 H   -1.6512119121   -0.7261904157   -1.9448901553
 H   -3.2706774860   -2.3452961870   -0.8480486249
 H   -4.1282734920   -1.0011873398   -0.1383455858
 H   -5.5846525581   -0.9800786691   -4.1123737212