21

 C   -0.1572368137    1.5438155563    0.0097423071
 C    0.0217433746    0.0211226034   -0.0275232120
 C    0.8636477295   -0.4813170021   -1.2430572225
 C    2.1815940184   -0.9020015199   -0.6072438098
 O    2.7581465938    0.2821425540    0.0479524673
 C    2.2470312665   -0.1916477160    1.2942492519
 C    1.8328039314   -1.5277417483    0.7610090987
 C    0.7683929248   -0.5352811094    1.1987296067
 C    0.0178548876   -0.7580368007    2.4888349686
 H    0.8158323653    2.0412357038   -0.0094501086
 H   -0.7383040475    1.8928910970   -0.8505761107
 H   -0.6889124910    1.8594275808    0.9143031568
 H   -0.9714377913   -0.4441087514   -0.0552328211
 H    0.3905315638   -1.3419117876   -1.7303035019
 H    1.0137905170    0.2951093978   -1.9992676393
 H    2.9125975537   -1.3922380429   -1.2527611792
 H    2.7547061695    0.1141205156    2.2027602355
 H    1.9791156159   -2.5406442722    1.1108894343
 H    0.6764924833   -1.1475574084    3.2726280236
 H   -0.4199076332    0.1750428026    2.8609356050
 H   -0.7976200183   -1.4783079120    2.3537945796