15

 O    0.1380311008    1.5189440701   -0.0996548691
 C    0.0485251801    0.1141694042   -0.0028913509
 C    0.5984810597   -0.5585920397   -1.1983670693
 N    1.0769059047   -1.0822441391   -2.1107988181
 C    0.7344501622   -0.4242629596    1.2649241783
 C    0.0182284321   -0.0883594590    2.6031330788
 C   -0.1383055598   -1.6221594974    2.7673511146
 O   -0.5775807350   -2.3663902646    3.5962248574
 N    0.4717460503   -1.8340193404    1.5451341724
 H    1.0583742052    1.7613036427   -0.2557631552
 H   -1.0199505973   -0.1199020524    0.0565172622
 H    1.8001092367   -0.1644545413    1.2417705014
 H    0.6438082800    0.3783815893    3.3647623716
 H   -0.9162681784    0.4666305611    2.5053801331
 H    0.7963393685   -2.6765916141    1.0924149829