17

 O    0.0319793975    1.3125319639    0.2565584281
 C    0.0662118895   -0.0274622095    0.0210204303
 C    0.0873237779   -0.7838562335   -1.1288431683
 C    0.0968731607   -2.1501614743   -0.6895030422
 C    0.0859902324   -2.1455519263    0.6691340956
 N    0.0632553628   -3.3949444388    1.3291918410
 C   -0.1632704574   -4.3295978349    0.1768018084
 C    0.1732787429   -3.5775675582   -1.1602855584
 N    0.0669353416   -0.8501679762    1.1290804643
 H    0.0588733702    1.7643952462   -0.5918903787
 H    0.0885825230   -0.3983457981   -2.1370837614
 H    0.9609414243   -3.5986046244    1.7663462108
 H    0.4178925247   -5.2440790510    0.3182991781
 H   -1.2238824883   -4.6010192898    0.1769462146
 H   -0.5518497092   -3.8445754668   -1.9360579530
 H    1.1675038763   -3.8417905823   -1.5507925647
 H   -0.0210754291   -0.5297283460    2.0774465153