17

 O   -0.7418113610    0.4836786828    0.1968038099
 C   -0.1018887301    1.5025535489    0.1953166984
 C    1.3378815562    1.6144599454   -0.2735980749
 C    1.4768463043    2.6872618444   -1.3374921915
 N    1.4830374153    4.0869552322   -0.8793658344
 C    2.6776180960    3.5476108926   -1.5306344000
 C    3.9360730474    3.4436236469   -0.6815746779
 C    4.7041174420    4.6890619624   -0.7054166623
 N    5.3035163020    5.6758095555   -0.7459369351
 H   -0.5386814773    2.4641034954    0.5450930553
 H    1.9422043976    1.8798533465    0.6018446359
 H    1.6633202328    0.6383542317   -0.6450610446
 H    0.9248605231    2.4679727683   -2.2507492039
 H    0.9602096766    4.6927352024   -1.5044880530
 H    2.8750224484    3.8556150614   -2.5554654465
 H    3.6774153158    3.2164556221    0.3559996275
 H    4.5754072810    2.6325661212   -1.0497965927