20

 C   -0.0265339684    1.5942065233    0.2568739487
 C   -0.0412144859    0.0747631833    0.0144072412
 C    0.8841650543   -0.6559985293    1.0030450727
 C   -1.4524113795   -0.4869951696    0.0430925027
 N   -1.8957405561   -1.0440578440   -1.0922925833
 C   -3.1321999525   -1.5503705923   -1.1092103404
 C   -3.9907229028   -1.5344790094   -0.0159661264
 C   -3.5313255986   -0.9561136114    1.1640298059
 C   -2.2483144750   -0.4266954200    1.1938145131
 H    0.9916969935    1.9863443428    0.1647727466
 H   -0.6588282875    2.1172645435   -0.4668222567
 H   -0.3872141052    1.8444196863    1.2608380724
 H    0.3226855376   -0.1144773876   -1.0003704370
 H    1.9091074898   -0.2804127969    0.9165648827
 H    0.5635620786   -0.5052376254    2.0399297027
 H    0.8994454331   -1.7328155661    0.8097774511
 H   -3.4507629951   -1.9925175127   -2.0509842330
 H   -4.9847097787   -1.9611721413   -0.0888148110
 H   -4.1630359899   -0.9186995108    2.0458600730
 H   -1.8638385116    0.0300429674    2.0993635949