19

 C    0.0182684187   -1.2338041272   -0.2812644789
 C   -0.0277765241   -0.0381128631   -0.1337392375
 C   -0.0198844458    1.3754791704    0.0485949807
 C   -1.1780788098    2.0592737444    0.0244332228
 C   -1.3390627425    3.5506221111    0.1634241974
 C   -0.5934585236    4.2004866717    1.3369815530
 O    0.8097896707    4.2403975798    1.1794893728
 C    1.4726004483    3.0088807734    1.3886705011
 C    1.3503491061    2.0183773197    0.2258629229
 H    0.0398417386   -2.2867486492   -0.4151597299
 H   -2.0880319101    1.4883018084   -0.1372610651
 H   -1.0090700832    4.0509136012   -0.7591400988
 H   -2.4039708208    3.7844795005    0.2730632839
 H   -0.9079695875    5.2461659558    1.4208395318
 H   -0.8596130922    3.6891404963    2.2763053356
 H    2.5288593422    3.2667473740    1.5194638901
 H    1.1207332845    2.5376484210    2.3205892653
 H    2.0927931047    1.2286479903    0.3744549842
 H    1.6303930659    2.5411123014   -0.6987973813