15

 C   -0.3327031388    1.6233899716   -0.1853019356
 C    0.0520916725    0.1427675437   -0.0382265026
 C   -1.1808324113   -0.7288210807    0.2457236849
 C    0.7126103690   -0.3316870936   -1.3373863678
 N    2.0068850088   -0.7488151388   -1.2233861910
 O    0.1207350573   -0.3338696943   -2.4005273290
 H    0.5487156564    2.2546363447   -0.3371233227
 H   -0.9921229967    1.7501384004   -1.0480899719
 H   -0.8539361624    1.9758879366    0.7100121076
 H    0.7615625892    0.0399120179    0.7930531793
 H   -1.8660435600   -0.6874785422   -0.6051502737
 H   -0.9044021387   -1.7756827265    0.4070397369
 H   -1.7055644984   -0.3737129243    1.1379810712
 H    2.4996397362   -0.7487716032   -0.3487018557
 H    2.4830369469   -1.0658908411   -2.0523227898