17

 C    0.1196420494    1.4907198968   -0.0315827475
 C   -0.0516230141    0.0132190441   -0.0409273995
 C   -1.1416363495   -0.8034646789    0.0435813286
 C   -2.5833996765   -0.4332733360    0.1961935583
 C   -0.6306983887   -2.1519129114   -0.0299308961
 N   -1.4194387575   -3.3062654856    0.1052233246
 C    0.7194098507   -2.0437328091   -0.1541265090
 O    1.0861124479   -0.7226649927   -0.1549252711
 H    0.7894416479    1.8091269102    0.7753719003
 H    0.5491495522    1.8532029544   -0.9730966921
 H   -0.8434671786    1.9851349556    0.1120090539
 H   -3.1801762983   -0.7330814233   -0.6758209974
 H   -3.0285465844   -0.9224664376    1.0706993369
 H   -2.7121779306    0.6454418307    0.3171719607
 H   -2.2878735596   -3.2431542077   -0.4122902613
 H   -0.9321842738   -4.1474239696   -0.1765208648
 H    1.5202282135   -2.7594218300   -0.2323719343