21

 O    0.2192354476    1.1923885558   -0.5742765686
 C   -0.0846192981    0.0151005537    0.1468048748
 C   -1.5767065282   -0.2776953880    0.1399347972
 O   -1.9603368482   -0.4199067804   -1.2191518939
 C   -3.3082270971   -0.7524986867   -1.4010598931
 C   -4.4165520649    0.3487836830   -1.3064499790
 C   -3.8385543138    0.9371752217   -2.6284257948
 C   -3.8571059457   -0.6087264057   -2.8390146468
 C   -5.2721511320   -0.6014073511   -2.1909658204
 H   -0.1978626523    1.0863012555   -1.4369349095
 H    0.4515969965   -0.8568802785   -0.2606184446
 H    0.2561877861    0.1692656348    1.1759024647
 H   -1.7925356969   -1.1995299478    0.7043364771
 H   -2.1279464096    0.5513185709    0.6082461985
 H   -3.5393110602   -1.6959760315   -0.8845201263
 H   -4.7446316024    0.8949862108   -0.4214194767
 H   -4.5337997302    1.5157082606   -3.2421280363
 H   -2.8599391887    1.4122512525   -2.5682661886
 H   -3.5337579153   -1.1660856258   -3.7187247320
 H   -5.6165823950   -1.5346671179   -1.7355052720
 H   -6.0619607214   -0.1257465159   -2.7756094497