19

 C   -0.1779299571    1.5417628809   -0.0120683189
 C    0.0106239352    0.0333910992   -0.0176652125
 C    1.1663592769   -0.5984165218   -0.8414011262
 C    2.1338009156   -0.2377642246    0.3070790319
 C    0.8631650553   -0.6037315782    1.1585171205
 C    0.7307619777   -2.0916121779    0.7671288332
 O    0.9545990016   -2.0081016825   -0.6564474985
 C    0.6933406592   -0.2386930810    2.5371589663
 C    0.5386769548    0.0768324752    3.6879811040
 H    0.7584678521    2.0960807869    0.0887296584
 H   -0.6570107084    1.8666956897   -0.9417017630
 H   -0.8261056131    1.8388173817    0.8188232604
 H   -0.9510958017   -0.4640002470   -0.1802134978
 H    1.3543708249   -0.3864167623   -1.8925786000
 H    3.0164497037   -0.8690703086    0.4279423973
 H    2.3993889686    0.8153972038    0.3715708944
 H    1.4891565065   -2.7261218929    1.2387825851
 H   -0.2642885452   -2.4983738976    0.9774591366
 H    0.4070881133    0.3533619670    4.7046756887