15

 C   -0.0187239880    1.5304075296    0.0054446211
 C   -0.0067399275    0.0342290373    0.0304173037
 C   -0.0305637563   -0.8003326892   -1.0600206993
 N   -0.0088797189   -2.1456221088   -0.6537677511
 C    0.0282147480   -2.1270737769    0.6976192175
 C    0.0316632292   -0.8362076449    1.1776232815
 C    0.0721706206   -1.0636918405    2.5797980263
 N    0.0907810667   -2.3423574105    2.8879310711
 O    0.0614161039   -3.0588390433    1.6428476109
 H    0.8734061035    1.9493658574    0.4854841574
 H   -0.0511252295    1.9054371974   -1.0212977125
 H   -0.8879539702    1.9360626965    0.5362224816
 H   -0.0615181511   -0.5599819800   -2.1110717271
 H   -0.0201708926   -2.9493977603   -1.2556216541
 H    0.0895297020   -0.3589544738    3.4002090629