14

 O   -0.0047359091    0.0814164440    0.0238804334
 C   -0.0928219055    1.2658154659    0.0437816597
 C   -1.2073287279    2.2991164820   -0.0173440867
 C   -0.9309367061    3.1126950203    1.2803127532
 C    0.4113079561    3.4711440255    0.6346454207
 N    0.9771959392    2.2632964723   -0.0662422525
 C   -0.0835134283    3.1765683766   -0.7257848844
 C    0.0390551904    3.7469441560   -2.0076781008
 C    0.1023123508    4.2429528450   -3.1015618505
 H   -2.2074610369    2.0701966885   -0.3715269372
 H   -1.5716441674    3.9935956333    1.3572607351
 H   -0.9289274150    2.5599365749    2.2244859809
 H    1.1435080528    4.2054955582    0.9434047863
 H    0.1703013069    4.6768958876   -4.0686956371