14

 N   -0.0057233973    1.3043770413    0.2560604049
 C    0.0397953213   -0.0242271897   -0.0560920338
 O    1.0700112660   -0.6181371991   -0.3119417556
 C   -1.2620972995   -0.6724615846   -0.0711338165
 C   -2.3068351273   -1.2772168616   -0.1057513096
 C   -3.5343767546   -2.0139218983   -0.1263232446
 C   -3.7450346881   -3.0529207735   -1.1849021342
 N   -3.5290757480   -3.4623975378    0.2007105309
 H    0.8664686146    1.7989111035    0.3486883070
 H   -0.8590858048    1.7464041069    0.5497471106
 H   -4.4057090801   -1.4907598329    0.2580064174
 H   -4.7514361469   -3.2118496785   -1.5611399216
 H   -2.9492652350   -3.1927729261   -1.9100585165
 H   -2.5665226604   -3.7684327196    0.3250366917