21

 C   -0.0502882126    1.5144794696   -0.0993683781
 C    1.2968693135    0.8403778602    0.0329688344
 C    0.0280472789    0.0163593059    0.0121463693
 C   -0.1614383143   -0.6484872390    1.3748387778
 C    1.0045774654   -1.6321831877    1.6000942574
 C    2.3427827129   -0.8376557454    1.5213068086
 C    2.0082622733    0.6676662966    1.3750284841
 C    1.0736961893    1.0374626610    2.5291155306
 O   -0.1659215876    0.3248910390    2.4214199617
 H   -0.4699431347    2.0711351773    0.7289246190
 H   -0.2865431834    1.9210961574   -1.0767543504
 H    1.9413118336    0.8407510743   -0.8411204165
 H   -0.2170948193   -0.5930030868   -0.8525908042
 H   -1.1280088647   -1.1539162619    1.4513050936
 H    0.8826981858   -2.1046975232    2.5792910723
 H    0.9666866048   -2.4287746473    0.8497666021
 H    2.9455597711   -1.0026949059    2.4204489843
 H    2.9463212692   -1.1653058910    0.6690537827
 H    2.9152266413    1.2776446983    1.4355132819
 H    1.5479424015    0.7927538917    3.4912323784
 H    0.8500785162    2.1116458771    2.5348819311