18

 O   -0.0134943897   -0.0138339088    0.0192925638
 C    0.0026569823    1.1945782408    0.0420118718
 C   -1.2642098727    2.0161274743   -0.0004619009
 C   -1.6947034146    2.9015016504    1.1304665370
 N   -1.1173391469    3.4808474989   -0.0721582118
 C    0.2905300431    3.9210056751   -0.0323180663
 C    1.2009396984    3.1898545268    1.0012471577
 C    1.2730053990    2.0262876229   -0.0268354489
 C    1.0527099999    3.1263091257   -1.1243391648
 H   -2.0410018706    1.5806920829   -0.6240132997
 H   -2.7588540484    3.0769796925    1.2607634661
 H   -1.1271088591    2.8892667355    2.0544228019
 H    0.3084644891    5.0120029271   -0.0509123072
 H    2.1652077251    3.6995082515    1.0688334180
 H    0.8474745771    2.9853776582    2.0131530295
 H    2.1507746043    1.3816575834   -0.0665348324
 H    0.4952695789    2.8628366545   -2.0261037961
 H    1.9999324647    3.5974064483   -1.3953114578