15

 O    0.0026999403   -0.0072323266    0.0272028972
 C   -0.0266364397    1.1902816867    0.0150035297
 C   -1.2273938398    2.1385413052    0.0388142704
 C   -1.1694724946    2.8488192966    1.4075774033
 O    0.0192111503    3.6610961637    1.3326700005
 C    0.5361323900    3.5427751881   -0.0070534895
 C   -0.7091436089    3.2884679660   -0.8668086822
 C    1.2101881287    2.1622288466   -0.0416459901
 O    2.3668089402    1.8578313313   -0.0828916046
 H   -2.1797706716    1.6711151539   -0.2039325727
 H   -2.0472285871    3.4882982907    1.5616997950
 H   -1.0836823314    2.1576001367    2.2517433614
 H    1.1763030908    4.3939204010   -0.2292611444
 H   -0.4726523367    2.9704111570   -1.8865951560
 H   -1.3842148305    4.1470266131   -0.8987608879