16

 C   -0.0549507708    1.5561989102    0.0156469357
 C   -0.0130938134    0.0627655828   -0.0202756826
 C   -0.0123629473   -0.7783005112   -1.0926956845
 N    0.0138951054   -2.0694440533   -0.6143903983
 C    0.0218344754   -3.2188556449   -1.3974778516
 O    0.0455913989   -4.3451305487   -0.9855522362
 N    0.0404546477   -2.1027661394    0.7551765618
 C    0.0170040793   -0.8320163535    1.1089353471
 N   -0.0465983075   -0.4524896149    2.4359187469
 H    0.8501923994    1.9797800530    0.4695407865
 H   -0.1403962871    1.9744720361   -0.9903654701
 H   -0.9076640944    1.9159333543    0.6029763727
 H   -0.0341247077   -0.5772908138   -2.1528751479
 H    0.0040104456   -2.9459313932   -2.4700970319
 H    0.1759570775   -1.2040232065    3.0745505025
 H    0.4473902989    0.3990022830    2.6599209000