16

 N   -0.0451779136    1.4889523008   -0.0176615654
 C    1.2794489268    0.8153943327   -0.0049766870
 C    2.1434219984    0.8047496161    1.1943417571
 C    1.8308698980    0.1676207348    2.3306425859
 C    0.5736371254   -0.5906153673    2.4860809251
 N   -0.7062953826    0.1703638352    2.4539292730
 C   -0.3529272941   -0.6818414180    1.3116116066
 C    0.0005335868    0.0308239387    0.0336576597
 H   -0.2622419120    1.8168370621    0.9250937149
 H    1.8021714761    0.9166797828   -0.9527998799
 H    3.0927273430    1.3277699632    1.1162851541
 H    2.5208497669    0.1772742875    3.1692192839
 H    0.6081643811   -1.4358907552    3.1690372925
 H   -1.3979758324   -0.2923348781    3.0379639988
 H   -0.8980504674   -1.6127348393    1.1830713837
 H   -0.3297568703   -0.4681358859   -0.8736172130