16

 O    0.1299740180    1.3161781823    0.1257410645
 C    0.1049128634   -0.0510031229    0.0846716155
 C    0.7829199985   -0.9815772687    1.0896848450
 C    0.1071203143   -1.9547097962    0.0826308022
 C    0.0978921448   -3.3808752204    0.0649350800
 C    0.0829949430   -4.5844165107    0.0393555039
 C   -1.1347935208   -0.9954291270   -0.1131395609
 N   -1.0286028598   -0.8992552029   -1.6022691123
 C    0.3910870819   -0.9925582409   -1.1398762263
 H   -0.3788822441    1.6380309696   -0.6296291387
 H    1.8759246967   -0.9827835465    1.0994291048
 H    0.3802416749   -0.9855975026    2.1058490128
 H    0.0724305165   -5.6459863334    0.0204227480
 H   -2.0796356644   -1.0193495657    0.4311568339
 H   -1.3220953365   -1.7758273194   -2.0408928456
 H    1.2512542637   -1.0130835146   -1.8101363569