20

 C    0.0385091959    1.3943080966    0.0679533749
 N   -0.1392761792   -0.0404835515   -0.0537168017
 C    0.5609257323   -0.6824861940   -1.0842470642
 C    1.2123368132   -0.1240390439   -2.1615382822
 N    1.6911221369   -1.1681042964   -2.9367485070
 C    1.3597456747   -2.3739342155   -2.3784413626
 C    1.7290165246   -3.6858812924   -2.9813961037
 C    0.6573533762   -2.1074750256   -1.2200249936
 N    0.1154040265   -3.0991332381   -0.3498910810
 H    1.0938327043    1.7052048790    0.1546298324
 H   -0.3806021561    1.8900156374   -0.8151112637
 H   -0.5062179513    1.7566793288    0.9436498522
 H   -0.0129566432   -0.5190689279    0.8292023339
 H    1.3683273350    0.9013295285   -2.4498293071
 H    2.2012099101   -1.0555806769   -3.7937991138
 H    2.8094791933   -3.8785901400   -2.9482382826
 H    1.2290198275   -4.4787511277   -2.4204227144
 H    1.4169569410   -3.7593654408   -4.0306412268
 H    0.6644247186   -3.2087982225    0.4984748183
 H   -0.8256485804   -2.8482622972   -0.0611811674