20

 C   -0.2549906432    1.5902000065    0.1065252005
 C   -0.0351710381    0.0885265226    0.0976283972
 O    0.4682930417   -0.2642549361   -1.1968327788
 C    0.7444328965   -1.5769782485   -1.4130698640
 N    0.5449402037   -2.4362004908   -0.5111635721
 C    0.8066564575   -3.8559736315   -0.6617539556
 C    1.2937154343   -1.6586127451   -2.8141035344
 C    2.6036459518   -2.2614044526   -3.1186706276
 O    1.3896900982   -2.9126443088   -3.4837189669
 H    0.6815644398    2.1238106218   -0.0795482905
 H   -0.9757542300    1.8844603616   -0.6618307493
 H   -0.6425513317    1.9037569564    1.0804931018
 H    0.6829492096   -0.2268439894    0.8622707847
 H   -0.9622011019   -0.4638677499    0.2846786419
 H   -0.0827044616   -4.4077335182   -0.3363627767
 H    1.0645705919   -4.1781987810   -1.6725077856
 H    1.6128227962   -4.1434747605    0.0250737364
 H    0.9586650156   -0.8353990936   -3.4422517432
 H    3.1919679985   -1.8672880963   -3.9452353888
 H    3.1682337313   -2.7393781967   -2.3203025290