15

 C    0.0055117165    1.4969597737    0.0926115970
 C    1.3147823717    0.7534202753   -0.0027515526
 N    2.0306714751    0.3754565803    1.2072256408
 C    1.1825633534   -0.4175212076    1.9616529091
 N    1.2606213630   -0.9412949902    3.1549857236
 O    0.0716120843   -1.7128593361    3.2411926004
 C   -0.6443183228   -1.5787515485    2.1007153434
 C   -0.0007002665   -0.7580003779    1.2437022303
 C   -0.0043862306   -0.0222575673   -0.0395562665
 H   -0.2870855941    1.9275446011    1.0440984295
 H   -0.2991044554    2.0639440115   -0.7804912263
 H    1.9319727843    0.8688952860   -0.8862470527
 H    2.5901370728    1.0740718128    1.6743560527
 H   -1.5727228246   -2.1277858650    2.0741528638
 H   -0.3704410070   -0.4707013881   -0.9543910726