20

 C    0.2338846791    1.5585376311    0.1047503565
 C   -0.0562763441    0.0629590697   -0.0135315634
 N    0.4970901532   -0.4906337100   -1.2436211458
 C   -0.2083070211   -0.0871985117   -2.5004389918
 C   -0.4173386787   -1.4659621063   -3.1671838990
 C   -0.9431585814   -2.3005265074   -1.9474849485
 C    0.4678557801   -1.9620584926   -1.3494351191
 C    0.9304995365   -2.1297207601   -2.8152032872
 O    1.8136592893   -2.6753354326   -3.4016023774
 H    1.3109029817    1.7424673391    0.0594556137
 H   -0.2397113330    2.1244941876   -0.7041087712
 H   -0.1515941780    1.9492652381    1.0514027084
 H    0.4144199717   -0.4648615217    0.8239672991
 H   -1.1464327069   -0.1077702011    0.0778901548
 H   -1.1692235413    0.4019764521   -2.2905218400
 H    0.3998370488    0.5917784520   -3.1066193064
 H   -0.8611332338   -1.4981872768   -4.1596853634
 H   -1.8092090916   -1.8936559232   -1.4221632325
 H   -1.0839442566   -3.3593627745   -2.1723136179
 H    0.9191771562   -2.4851985916   -0.5096906790