19

 C   -0.0188337085    1.5655847133   -0.1823586787
 C    1.5371904422    1.6002614082    0.0549169770
 C    2.0504274245    2.3671438871    1.2965400378
 C    1.5501673794    1.4840525315    2.4298347199
 C    1.1963501620    0.2779505538    1.9847195164
 C    0.0689342343   -0.6441162374    2.3334054263
 O   -0.7942979476   -0.4923514492    1.1803428796
 C   -0.0363141294    0.0132102299    0.0700620786
 C    1.4318331122    0.1202657682    0.4961599642
 H   -0.6084569351    2.1274663293    0.5444408201
 H   -0.3276813457    1.8581181024   -1.1885473792
 H    2.1049809900    1.8040248388   -0.8545182054
 H    3.1426683685    2.4912788988    1.2821132629
 H    1.6249139753    3.3761190835    1.3718663468
 H    1.3650991699    1.8614991313    3.4300629605
 H    0.3656673748   -1.6978960151    2.4364271367
 H   -0.4875238391   -0.3457599389    3.2262792859
 H   -0.2919113403   -0.5802027416   -0.8111874589
 H    2.1651754025   -0.6378645839    0.2077425895