17

 C   -0.1278872751    1.6239776252    0.0476509831
 C   -0.2463461489    0.1525260741   -0.3178966500
 C   -0.0145203597   -0.9026768525    0.7318238015
 C   -1.4061195869   -0.6575694288    0.2008881827
 C    1.2903935138    2.1070941338    0.0514767827
 N    1.9201407209    2.4307994067    1.1506130498
 O    3.1826715630    2.7999838710    0.7732944578
 N    3.3433979606    2.7064040154   -0.5788313337
 C    2.1981574829    2.2846492934   -1.0352796255
 H   -0.7139441145    2.2305128891   -0.6541059528
 H   -0.5464448526    1.7935791707    1.0441949731
 H    0.0937556090   -0.0883427624   -1.3217819568
 H    0.4950358637   -1.8147266942    0.4425637037
 H    0.2119613425   -0.5682837887    1.7388416561
 H   -2.1184460632   -0.1625464993    0.8528890157
 H   -1.8481736672   -1.4000955171   -0.4539167502
 H    2.0484364617    2.1248672734   -2.0920276472