19

 O   -0.1615277454    1.3893471399   -0.1384389351
 C   -0.0436062484    0.0096653442    0.0494440783
 C   -0.3054842125   -0.9028699090   -1.1120400447
 C   -1.2972603577   -0.8383457595    0.0367701553
 C   -1.1590445235   -1.9126103197    1.0974379138
 O   -0.7502831449   -3.2211156318    0.6151849710
 C    0.5402143287   -3.1084044762    1.2505826664
 C    0.2130988763   -1.7060063382    1.8019252937
 C    0.8775782777   -0.4634263928    1.1788766667
 H    0.5537562474    1.6745327132   -0.7168265007
 H   -0.6187856736   -0.4232073445   -2.0331299657
 H    0.2654941883   -1.8154897996   -1.2419336686
 H   -2.2622087819   -0.3814877037   -0.1465569695
 H   -2.0518338775   -1.9919517375    1.7257608028
 H    0.6870265225   -3.8871247516    2.0092792414
 H    1.3657258519   -3.1610748064    0.5273118010
 H    0.1895800452   -1.6561497997    2.8910447711
 H    1.8989920298   -0.6692328491    0.8358340867
 H    0.9382398077    0.3489683719    1.9094650464