20

 C    0.0300272903    1.6331652132    0.0290294975
 C    0.0438483027    0.1110151950    0.0062553918
 C    1.0902893266   -0.6087919485   -0.9257915850
 C    1.6503732446   -1.3210594991    0.3066489652
 N    2.1073984462   -0.2563803874    1.2337966630
 C    0.6719887044   -0.6363226650    1.2015476666
 C   -0.0138599746   -1.1438850033    2.4100978745
 C   -1.1454109264   -0.4477058239    3.0404959539
 O   -1.3570764830   -1.6117862226    2.2392502678
 H    1.0207677398    2.0195234488    0.2826529795
 H   -0.2550423726    2.0327007973   -0.9503011398
 H   -0.6866761022    2.0203116760    0.7620940810
 H   -0.9563448384   -0.2900026298   -0.1782980662
 H    0.6215848077   -1.2832743564   -1.6450305648
 H    1.8003490840    0.0439052869   -1.4407396934
 H    2.0608499671   -2.3217218360    0.3735704390
 H    2.5271491938   -0.7175079569    2.0421498515
 H    0.6018279773   -1.7862913740    3.0451282490
 H   -1.3291695234   -0.5720484930    4.1069415939
 H   -1.5072332839    0.4851837587    2.6120819851