16

 O   -0.0760312798    1.5030419378   -0.2293647953
 C    0.0319300595    0.1154456198   -0.0382479335
 C   -1.3533112367   -0.5849677853    0.0390721654
 C   -1.2684497341   -2.1196185553   -0.0117738924
 N   -1.0163310570   -2.7571439898    1.2735944536
 C   -1.3778999069   -2.1445780853    2.3065350264
 O   -1.9874550307   -0.9023565724    2.3952223798
 C   -2.0268650763   -0.0817869842    1.2951638606
 O   -2.5013618744    1.0144473712    1.4171452619
 H   -0.7380285214    1.8436854866    0.3868036015
 H    0.5647890401   -0.2851460404   -0.9072570827
 H    0.6268878675   -0.1370425393    0.8552946926
 H   -1.9346805995   -0.2045455977   -0.8054771177
 H   -2.2036682973   -2.5371552098   -0.4065539524
 H   -0.4818654256   -2.4271357729   -0.7088511775
 H   -1.2578044773   -2.5557195132    3.3044927998