21

 C    1.0829714538    2.2080915925    2.9521315506
 C    0.5292076133    0.8225856007    2.6344200005
 C   -0.1525818176    0.5012825756    1.2581278752
 C    0.7154299014   -0.7602802663    1.1382151580
 C    2.1794901718   -0.4282339229    1.1010777993
 C    2.7972622475    0.7316998542    0.3265452516
 C    4.0980822407    1.1810830815    0.9514743621
 O    4.3113013510    2.2872739640    1.3793008853
 C    1.4622907016   -0.3842072883    2.4298136079
 H    1.8505129020    2.5405411841    2.2500417743
 H    0.2774031967    2.9514475602    2.9529144060
 H    1.5363640025    2.2165911674    3.9499140749
 H   -0.1846365302    0.5524974583    3.4202477931
 H   -1.2181761426    0.2851962358    1.3574367133
 H   -0.0317334112    1.2434158153    0.4622107070
 H    0.3495332716   -1.7312567587    0.8251486580
 H    2.7877922471   -1.3297440842    1.0326089190
 H    3.0174281953    0.3829433205   -0.6931145151
 H    2.1328829552    1.5925094482    0.2479083518
 H    4.8814572816    0.3890845878    1.0103633577
 H    1.7833939084   -1.0388871659    3.2330859395