19

 C   -0.0631180927    1.4831468789   -0.0200232796
 C    0.0181578637   -0.0302962330   -0.0123791796
 O   -1.2056299283   -0.6308440537   -0.4465939698
 C   -1.7931459301   -1.1819690024    0.7139253200
 O   -0.7472338005   -1.6414775841    1.5496718235
 C    0.3301029077   -0.7443735509    1.3314250313
 C    1.6153549894   -1.3243490571    0.7270543812
 C    1.3036174147   -2.1236924718   -0.5029068917
 C    1.3046163303   -0.6304117238   -0.6128287137
 H    0.8614618749    1.9226765531    0.3678612770
 H   -0.2148815464    1.8502696130   -1.0399801018
 H   -0.8973805316    1.8313562044    0.5970983130
 H   -2.3986079278   -0.4224182450    1.2408515182
 H   -2.4228391385   -2.0301031522    0.4294886321
 H    0.4875736207   -0.0876650631    2.1939327399
 H    2.5600701046   -1.4003437064    1.2495660001
 H    2.1581199883   -2.6164319955   -0.9545062843
 H    0.3715553200   -2.6734403657   -0.5731554586
 H    1.9770020217   -0.0903533946   -1.2680578474