17

 O    0.0383294448    1.3911575731    0.0176054566
 C    0.0669714567   -0.0218681776    0.0198968365
 C   -1.3327367849   -0.5890968269    0.0235612444
 C   -2.2692965749   -0.3784613928    1.2689372418
 C   -2.7804535211   -1.7999869481    1.0427311071
 C   -1.6528501548   -2.1178753201    0.1352007754
 N   -3.0139498897   -2.1264325390   -0.4255498911
 C   -3.0586337501   -0.9632832071   -1.2597011523
 N   -2.1247912847   -0.1103486504   -1.1310530576
 H   -0.5701829215    1.6399639373   -0.6899051388
 H    0.6123942831   -0.4196320355   -0.8523146733
 H    0.6096105687   -0.3313714039    0.9198105550
 H   -1.6842542701   -0.3420659137    2.1912231326
 H   -2.9656814789    0.4622971639    1.2281472648
 H   -3.3253675928   -2.4266535125    1.7369785625
 H   -1.0139251165   -2.9878225602    0.0315012576
 H   -3.8807456733   -0.8664001766   -1.9615319114