15

 O   -0.1209307995    1.4049275424   -0.3419399553
 C    0.0163986435    0.0569884837    0.0932004013
 C   -1.3418215912   -0.5674749710    0.0411712635
 C   -1.8090697666   -1.8721205783   -0.0178861675
 C   -0.9857476222   -3.0749325528   -0.1070492732
 O   -1.3878944931   -4.2142812941   -0.1369050630
 N   -3.1929615892   -1.8826037574    0.0123425896
 C   -3.5472842010   -0.6294761476    0.0839733961
 N   -2.4609805762    0.2084097119    0.1146194282
 H    0.7061192826    1.8645961762   -0.1707549997
 H    0.7126347364   -0.5083927672   -0.5413982380
 H    0.4091771393    0.0183543324    1.1217987526
 H    0.1084584790   -2.8560548594   -0.1505810123
 H   -4.5595021255   -0.2538161901    0.1128501769
 H   -2.4422874664    1.2161718413    0.1153811809