17

 C   -0.1058189365    1.4966074591    0.0276196208
 C    0.0505900085    0.0076104460   -0.0264366053
 C    1.0672796421   -0.8120361761   -0.8219440106
 C    0.2156370871   -2.0449185441   -0.4099773809
 O    0.4049800825   -2.1417934149    1.0278945189
 C   -0.3634401406   -0.9419647631    1.1219026954
 C   -1.0201978028   -1.0682919076   -0.2094446882
 C    0.2419207204   -3.3495349466   -1.1350259041
 O    0.1735550387   -3.4384159170   -2.3350927981
 H    0.7723087446    1.9674097071    0.4839570025
 H   -0.2324888948    1.9220704955   -0.9739603302
 H   -0.9809820471    1.7822286650    0.6215675860
 H    0.9863695227   -0.6285116973   -1.8955056144
 H    2.1137279614   -0.8284616925   -0.5007121587
 H   -0.7295440846   -0.6255412353    2.0899099293
 H   -2.0411436300   -1.0667023106   -0.5657348374
 H    0.3178945485   -4.2382911977   -0.4718245050