17

 C    0.2238688117    1.4475936716    0.3634845010
 C   -0.2399940131    0.0767092467   -0.1624966483
 C    0.4900745607   -0.3548666822   -1.3495794612
 C    1.1050368806   -0.6702631323   -2.3358068170
 C    1.8579793004   -1.1377893905   -3.5006040488
 C    2.1768332857   -2.6431475664   -3.2941474149
 O    3.2887621678   -3.0770914786   -3.2033194795
 C    1.1249799290   -0.9878330068   -4.7584635032
 C    0.5340056290   -0.9291504154   -5.8024960243
 H    1.2832543110    1.4226909809    0.6319890429
 H    0.0853738718    2.2219324515   -0.3955898489
 H   -0.3511003516    1.7267580560    1.2510703462
 H   -0.1248722459   -0.6783004840    0.6255094191
 H   -1.3122984436    0.1128265467   -0.3924673233
 H    2.8261767242   -0.6261861610   -3.5650531119
 H    1.2695317672   -3.2777974042   -3.2300800302
 H    0.0106118849   -0.8531261920   -6.7236272375