17

 N   -0.0598241319    1.3052464747   -0.0666389617
 C    0.0498832424   -0.0422270369    0.0197957329
 O    1.0917989642   -0.6623756575    0.0517050465
 C   -1.3141562248   -0.7309457181    0.0706596724
 N   -2.3792768451   -0.0367292384    0.0635897687
 C   -3.6687315041   -0.7201584374    0.0496623948
 C   -3.5597453804   -2.1781742678   -0.4056908811
 C   -2.3829889701   -2.8212206940    0.3158624143
 O   -1.1777393404   -2.0673587969    0.1153547960
 H    0.7757080485    1.8635980631   -0.0757519557
 H   -0.9767530320    1.7213593804   -0.0608560627
 H   -4.1032039906   -0.6613001857    1.0570786523
 H   -4.3424385740   -0.1558843473   -0.6041608260
 H   -4.4789799747   -2.7331635893   -0.1941717443
 H   -3.3878475970   -2.2209071848   -1.4868999243
 H   -2.5732005390   -2.8818217155    1.3954257236
 H   -2.1628155209   -3.8258625586   -0.0507365858