27

 C   -0.1117158717    1.5603986072    0.1541178168
 C   -0.0235554067    0.0356967765    0.0526585944
 C    0.6920448812   -0.4404740466   -1.2180206734
 C    0.7264540340   -1.9701251872   -1.3477435333
 O   -0.6031945838   -2.4965195649   -1.3648327520
 C    1.5745837089   -2.5348254207   -2.5291263553
 C    3.0326471422   -2.0515836104   -2.4179451761
 C    1.5554987032   -4.0728363469   -2.4325669558
 C    0.9938983167   -2.1083403471   -3.8906607558
 H    0.8838079610    2.0189613954    0.1543299381
 H   -0.6671324126    1.9835604588   -0.6907976394
 H   -0.6199555240    1.8701064082    1.0727229611
 H    0.5050687032   -0.3608043108    0.9296846898
 H   -1.0263284553   -0.4030799849    0.0816775076
 H    0.1911092309   -0.0112458870   -2.0984621265
 H    1.7131561331   -0.0433206956   -1.2266544854
 H    1.1596267104   -2.3797570360   -0.4247717659
 H   -1.0762868989   -2.0669266080   -2.0855282801
 H    3.4411648527   -2.2479704858   -1.4198696663
 H    3.6631517369   -2.5807660933   -3.1404724941
 H    3.1340763960   -0.9811043281   -2.6192057984
 H    0.5311785417   -4.4513504977   -2.4423987434
 H    2.1030692126   -4.5205385137   -3.2688854889
 H    2.0285676020   -4.4126411286   -1.5041392210
 H    1.0061948989   -1.0216514004   -4.0225633212
 H    1.5806004383   -2.5426027492   -4.7069915264
 H   -0.0366505208   -2.4586352233   -4.0184903491