18

 O    0.1336933882    1.3692590770    0.6560217609
 C    0.1231689207    0.0329173442    0.2714089970
 C   -0.6519745157   -0.9797881351    1.0692622525
 C   -1.1567297883   -0.5388561411   -0.3019164757
 N   -2.2370716172    0.3938840770   -0.3138803226
 C   -3.2046982878    0.2422827826   -1.0938515775
 C   -4.4684378994    1.0121301310   -1.4056499163
 C   -4.7083613683   -0.1290701821   -2.4162960956
 O   -3.4582504481   -0.7655281380   -2.0065352610
 H   -0.7689934349    1.6889466101    0.5079357353
 H    1.0638072802   -0.2714162711   -0.1780945556
 H   -0.2718488363   -1.9915948995    1.1611663642
 H   -1.1995880962   -0.6076135966    1.9276911450
 H   -1.1011196638   -1.2542821662   -1.1176195804
 H   -5.1805266610    1.0784378841   -0.5813194227
 H   -4.3105926662    2.0047425895   -1.8307055381
 H   -5.5605853061   -0.7828403280   -2.2178789823
 H   -4.6774091199    0.1454409523   -3.4731142568