22

 C   -1.3636796428    2.5285789490   -0.4237871287
 C   -1.2490198428    1.3211796859   -1.3526387783
 N   -1.8647917813    0.1494895459   -0.7335220796
 C   -1.5689906150   -1.2030816971   -1.2050330846
 C   -0.6373194192   -1.5073975828   -2.3595891904
 C   -1.0942352225   -0.7415837677    0.1405214326
 C    0.3539134358   -0.5375752796    0.4564555645
 C    0.7790305180   -0.1488301795    1.8101105003
 O    0.9127137509   -1.4971574241    1.3631965828
 H   -0.9710142998    3.4278205967   -0.9086055826
 H   -2.4083461673    2.7034058453   -0.1523526170
 H   -0.7976159906    2.3674006577    0.4993016407
 H   -1.8011629547    1.5158907786   -2.2799331840
 H   -0.1965734619    1.1815254174   -1.6417277389
 H   -2.4538442794   -1.8404905588   -1.2056719467
 H    0.2826010034   -0.9203269318   -2.3478603202
 H   -0.3546409500   -2.5649690604   -2.3372540922
 H   -1.1385466681   -1.3197173174   -3.3154804717
 H   -1.6456332168   -1.0787596285    1.0186259915
 H    1.0188577960   -0.2799191075   -0.3648398688
 H    1.7125828023    0.3946233413    1.9504837262
 H    0.0246691058    0.0154267177    2.5788615549