17

 C    0.0487094762    1.4668996805    0.0562106002
 C    0.0251148695   -0.0202188000   -0.0448131377
 C   -0.0804694823   -0.7687732188   -1.1513692844
 C   -0.0784240866   -2.2102996889   -0.8377003792
 O   -0.2051319776   -3.1315746984   -1.6102222401
 C    0.1179006297   -2.3401345004    0.6809040020
 C    0.0948702753   -0.8866839164    1.2198960275
 C    1.2265613598   -0.5451855324    2.0770386926
 C    2.1660006121   -0.2644587635    2.7726056265
 H    0.9576292926    1.7993223347    0.5700252519
 H    0.0011351602    1.9410773269   -0.9262633824
 H   -0.7961309247    1.8263652429    0.6576136653
 H   -0.1729033850   -0.3978798190   -2.1647791328
 H   -0.6625638955   -2.9700931976    1.1138144336
 H    1.0763817521   -2.8271672845    0.8780267545
 H   -0.8262334405   -0.7143078292    1.7958137235
 H    2.9932855748   -0.0238318459    3.3937196290