17

 C   -0.0887065415    1.5656993187    0.0174607124
 C    0.0880107652    0.0373914148    0.0304846709
 C    0.7571888767   -0.4848650015   -1.2124588827
 C    2.0189721231   -0.9528792560   -1.1993102597
 O    2.6806209005   -1.4280615934   -2.2853249468
 C    2.0263532980   -1.4380571647   -3.4657725476
 C    0.7631146876   -1.0089614067   -3.6161499881
 C    0.0011107489   -0.4869606999   -2.4812951134
 O   -1.1557729898   -0.0922663430   -2.5659251249
 H    0.8795081100    2.0737868791   -0.0383250911
 H   -0.6906234459    1.8686312719   -0.8416881526
 H   -0.5952221012    1.8992559315    0.9281988705
 H    0.6609432156   -0.2671911254    0.9136655436
 H   -0.9001653339   -0.4299985705    0.1029592331
 H    2.6463088004   -1.0033628059   -0.3171956577
 H    2.6515430605   -1.8346367704   -4.2561925781
 H    0.2882409759   -1.0449327986   -4.5888404077