17

 C   -0.0231488944    1.4640917985    0.0024558128
 C    0.0067304475   -0.0510083080   -0.0031021262
 O   -1.3633822621   -0.5056517695    0.0168473290
 C   -1.5751752835   -1.8146277291    0.0202918950
 C   -2.7495015253   -2.5053641594    0.0517346787
 C   -2.3115625201   -3.8596914679    0.0433928791
 N   -3.1106692156   -4.9862587375    0.1395184532
 N   -0.9987156086   -3.9782999320   -0.0022954106
 O   -0.5227979412   -2.6365505511   -0.0059697372
 H    0.9990509192    1.8529940501   -0.0123866634
 H   -0.5520142661    1.8456234065   -0.8751645841
 H   -0.5239840979    1.8395344661    0.8989096142
 H    0.5007786837   -0.4446884235   -0.8975191069
 H    0.5283077429   -0.4506933056    0.8727944992
 H   -3.7495459904   -2.1121609359    0.0978062491
 H   -3.9831103931   -4.9169841031   -0.3643685826
 H   -2.6131319048   -5.8365977087   -0.0902868291