15

 N    0.0620802281    1.1584332907    0.1773728981
 C    0.0802503404   -0.0769459117   -0.0633141657
 C   -0.9073120773   -1.1042029986    0.4472785664
 C   -0.6988201585   -2.2963844764   -0.4968446962
 C    0.7836913691   -2.1035862512   -0.9027458849
 O    1.0135755576   -0.7019593270   -0.8572952396
 C    1.6989258829   -2.8486540292    0.0606542820
 O    2.3231543609   -2.3307764412    0.9456017411
 H    0.8529313097    1.6259955722   -0.2687932636
 H   -0.6446386624   -1.3612933150    1.4788209255
 H   -1.9213483629   -0.7053193588    0.4497208095
 H   -0.8891885803   -3.2670347402   -0.0326899864
 H   -1.3331963142   -2.2148655341   -1.3831758255
 H    0.9876613048   -2.4559648919   -1.9201454309
 H    1.7143259119   -3.9513159377   -0.1072774796