16

 C   -0.0208860856    1.4467109613    0.0354429631
 C   -0.0005990347   -0.0459864843   -0.0252956410
 C   -0.0410502927   -0.8193306154   -1.1396239965
 C    0.0022186090   -2.1939324091   -0.6891395956
 C    0.0676340914   -2.2922881546    0.6602006049
 C    0.0730430639   -0.9125562961    1.2407897929
 N    0.1059740023   -3.6210694344    1.0310793295
 C    0.0621194672   -4.2451713960   -0.1082467183
 O   -0.0034664882   -3.4408945954   -1.2219458518
 H    0.8788132778    1.8433225385    0.5232887220
 H   -0.0795168188    1.8825883207   -0.9655855245
 H   -0.8772223704    1.8157802322    0.6143467306
 H   -0.0950510632   -0.4691603403   -2.1611172827
 H    0.9768900718   -0.6862357458    1.8205350236
 H   -0.7791095083   -0.7143192447    1.9032188892
 H    0.0702357485   -5.3071885166   -0.2923785653