20

 C    0.2222476908    1.5137261021    0.1046220701
 C   -0.0293789718    0.0421842294   -0.0358347093
 C   -0.9750789438   -0.7246332632    0.7938085795
 N    0.4734914723   -0.9796489169    0.9769022094
 C    0.9301335952   -1.8581345488   -0.1886317421
 C    0.3454864971   -3.2711826133   -0.2248287895
 C    0.4135480031   -0.8051869478   -1.2298378406
 C    2.3869368254   -1.9275599600   -0.1638574818
 C    3.5866186969   -2.0010567303   -0.1693339305
 H    1.2565065014    1.7628900341   -0.1553394585
 H   -0.4397127073    2.0863128936   -0.5560661191
 H    0.0418828666    1.8408217122    1.1326449013
 H   -1.4049999670   -0.2281421570    1.6587360919
 H   -1.6181059854   -1.4804132882    0.3513699930
 H   -0.7448117126   -3.2605835486   -0.2947828591
 H    0.7346174877   -3.8130172641   -1.0916673020
 H    0.6326222353   -3.8172273422    0.6781663268
 H   -0.3781048990   -1.1372226552   -1.9083456339
 H    1.2221604045   -0.3634190409   -1.8124786028
 H    4.6467333006   -2.0615640351   -0.1621391028