19

 C    0.0422079158    1.5660559788    0.1041137692
 C   -0.0108620416    0.0366428426    0.0165239015
 C   -1.4069001426   -0.5176053844   -0.0550889681
 C   -1.6517693186   -2.0422971073   -0.0917356096
 C   -3.2090853912   -2.0492002442    0.0729134634
 C   -3.4266420853   -0.5280319925    0.1556949285
 O   -2.3300347337   -0.0948881859    1.0237204891
 C   -2.5339465392    0.0119552019   -0.9807978997
 O   -2.6349532103    0.6986761680   -1.9497287528
 H    1.0771514269    1.9119703790    0.1754666979
 H   -0.4107104337    2.0239106470   -0.7796098732
 H   -0.5005216895    1.9203394605    0.9841206039
 H    0.5258406238   -0.3137677694   -0.8740425966
 H    0.4983861140   -0.4144627202    0.8779938924
 H   -1.3123925041   -2.4956187460   -1.0272587295
 H   -1.1406168326   -2.5348775364    0.7390588178
 H   -3.7355889161   -2.5048397107   -0.7700934623
 H   -3.5293615892   -2.5419456755    0.9931132235
 H   -4.4001516528   -0.1198494252    0.4190574347