17

 C   -0.1166511889    1.5820984748   -0.0151799456
 C    0.0991078448    0.0705903525   -0.0493031963
 N    0.8550342768   -0.3080414070   -1.2505389625
 C    1.4559998153   -1.4126223957   -1.2305762013
 O    1.5011297714   -2.3366970882   -0.2065775204
 C    1.0335521677   -1.9713130896    1.0483143626
 O    0.9519944640   -2.8077591333    1.8970669221
 C    0.7739255575   -0.4787985423    1.2195197769
 N    2.0195445883    0.2361621526    1.5192195667
 H    0.8342643985    2.1087288516    0.0829363170
 H   -0.6033475424    1.9029536591   -0.9391958587
 H   -0.7495537842    1.8605209721    0.8328658175
 H   -0.8836270534   -0.4181607267   -0.1312038513
 H    2.0188491770   -1.7849708889   -2.0824387369
 H    0.1078905444   -0.3711295898    2.0795814785
 H    2.4781389731   -0.1812195311    2.3230568285
 H    2.6659198301    0.1815173500    0.7373069632