22

 C   -0.0847937091    1.5208016461   -0.0586591510
 N   -0.0265585331    0.0886048845    0.1169948597
 C   -1.2646512972   -0.6460410878    0.4284632773
 C   -0.4448399253   -1.5379290070    1.3561202391
 C   -0.8299856468   -2.4724126627    2.4078582776
 O   -0.2930755533   -2.9299165179    1.1550329484
 C    0.7274396586   -0.5392250327    1.2515363075
 C    2.0661014611   -1.1264479788    0.8201789915
 C    0.8655018321    0.3317295970    2.5067521701
 H    0.9248251044    1.9243773493   -0.1884041398
 H   -0.6478035464    1.7501088151   -0.9703411621
 H   -0.5668506867    2.0634028919    0.7755913600
 H   -2.0256431617   -0.0510168215    0.9620340171
 H   -1.7371819094   -1.1404211570   -0.4278848786
 H   -0.1832655041   -2.6200759476    3.2721762367
 H   -1.8825427129   -2.6994455232    2.5748736050
 H    1.9379729727   -1.7650987264   -0.0556464910
 H    2.7696000417   -0.3254739869    0.5670426085
 H    2.5099629181   -1.7233662575    1.6239871369
 H    1.2933211601   -0.2526494840    3.3276140065
 H    1.5311912363    1.1822921411    2.3256542623
 H   -0.1006131194    0.7218291658    2.8419416484