18

 C   -0.0334740929    1.4817704856   -0.1696452516
 C    0.0859295126   -0.0197748630   -0.0492336500
 C    1.4149542655   -0.6987776185   -0.1306192428
 C    0.6942144500   -0.6361629993    1.2008252458
 C    1.1059928124    0.0206657567    2.5311986587
 C    0.4999087588   -1.2013112929    3.2986649288
 C    0.1259799094   -1.8153536704    1.9322576521
 O   -0.4074728524   -2.8324805039    1.5838015433
 H    0.8373665479    1.9868412590    0.2602585391
 H   -0.1058886576    1.7813323308   -1.2207705154
 H   -0.9253639816    1.8551666067    0.3450255177
 H   -0.7545479802   -0.5850518445   -0.4450703460
 H    1.4790185170   -1.6739438824   -0.6022624817
 H    2.3004033874   -0.0781025759   -0.2315867762
 H    2.1829013723    0.1434128543    2.6669270195
 H    0.6149295345    0.9729385974    2.7449393146
 H    1.2099284933   -1.8022274796    3.8735392278
 H   -0.3618435663   -0.9817281001    3.9351262262