15

 C   -0.0204420960    1.3945302441   -0.0539094144
 N   -0.0015381290   -0.0510336118   -0.0221809822
 N    0.0059662585   -0.7756254162   -1.1523018407
 C    0.0032936232   -2.0321608766   -0.7121322375
 N   -0.0502362246   -3.1253341425   -1.5497074597
 C    0.0001366203   -2.0171336509    0.7074404523
 N   -0.0047409143   -0.7301816220    1.1038523616
 C    0.0111451941   -3.1237330621    1.5806457167
 C    0.0297099978   -4.1113204746    2.2706410196
 H    0.8398101520    1.7659030563   -0.6165174807
 H   -0.9380116314    1.7496581589   -0.5310494305
 H    0.0245152746    1.7441187285    0.9762152769
 H    0.2947423484   -2.9473129215   -2.4817973311
 H    0.3270921302   -3.9707106249   -1.1465649137
 H    0.0355289261   -4.9694648848    2.8957447833