17

 O   -0.6988608783    0.6242602190    0.6420400265
 C    0.1387300137    0.8846757218   -0.1831279585
 C    1.2794554552    1.8612375800    0.0452970922
 C    1.3802779885    2.8949606313   -1.0812508954
 C    2.5656568199    3.8779370668   -1.1468744621
 C    3.8358206294    3.1569489778   -1.4196182753
 C    2.9011023714    3.4357866254   -2.5939222421
 C    1.7600265464    2.4665275909   -2.5325854708
 O    1.2330006182    1.7375809023   -3.3253679094
 H    0.1275622206    0.4143944001   -1.1896818515
 H    1.1342659344    2.3413223917    1.0180017907
 H    2.2059636901    1.2726640347    0.0956013809
 H    0.4341477165    3.4453881227   -1.1633934947
 H    2.5375239087    4.8946327321   -0.7783157418
 H    4.7378923369    3.7598184227   -1.4303316942
 H    3.9944370211    2.1393650074   -1.0757101539
 H    3.2285757872    4.0073942233   -3.4526915405