18

 O    0.0410583167    0.2096565421   -0.7566847349
 C   -0.0146463806    1.2632896711   -0.1691946468
 C   -1.2751814504    1.9207674068    0.4065110490
 C   -0.8217907887    3.2524605243    0.9829710140
 C    0.1420983635    3.2265619320    2.1397063792
 C    0.6739884880    3.4201354600    0.7401110465
 C    1.1629349478    2.1853392925    0.0474566750
 C    2.5106751888    1.5605118920    0.1997520195
 N    2.1641476846    2.2654521152   -1.0319802236
 H   -1.9919618756    2.0500726926   -0.4123992137
 H   -1.7474663538    1.2510971087    1.1337648135
 H   -1.4857275961    4.1032377854    0.8893747800
 H    0.1525643387    4.0847462958    2.8023994683
 H    0.3352549242    2.2790214719    2.6361897806
 H    1.1032052835    4.3711511990    0.4508836383
 H    3.2416929061    2.0608809070    0.8286824292
 H    2.5580725624    0.4750059865    0.1797885267
 H    1.9105220608    1.5763384870   -1.7408440708