19

 O   -0.0408494477    1.4237248449   -0.1178497820
 C   -0.0412212655    0.0375240465    0.0086106546
 C   -1.3676563128   -0.7170245959    0.0898849939
 C   -2.6749937392    0.0496342222    0.0783092326
 O   -3.5891086435   -0.3836527470   -0.9250067617
 C   -3.3403235396    0.1572653732   -2.2033237790
 C   -2.0972113782   -0.3955848010   -2.8966936184
 O   -0.8821338531    0.0116978941   -2.2651382403
 C   -0.5141428467   -0.7677680359   -1.1640434884
 H   -0.2221405263    1.6089050246   -1.0495899006
 H    0.7919673310   -0.3283218033    0.6016236925
 H   -1.3627241303   -1.6281659926    0.6811250313
 H   -3.1905034232   -0.0977805572    1.0315057721
 H   -2.4742367887    1.1238707242   -0.0300462724
 H   -4.2168209138   -0.0833038770   -2.8170867254
 H   -3.2555321493    1.2557415032   -2.1488324060
 H   -2.1465867462   -1.4914632269   -2.9429373976
 H   -2.0536728943   -0.0057297548   -3.9201698013
 H   -0.0206223426   -1.7031481112   -1.4253573539