24

 C    0.0295793634    1.5377847996    0.0687551447
 C   -0.0089024642    0.0117786092   -0.0457212598
 C   -1.4263159469   -0.5628635393    0.0549982467
 C   -1.4646736539   -2.0900595481   -0.0595858574
 C   -2.8760896925   -2.6463451041    0.0419433487
 O   -2.8017275053   -4.0694335186   -0.0760981486
 C   -3.9737873045   -4.7287336647   -0.0071660546
 N   -4.0155580481   -5.9824024778   -0.1001572891
 C   -5.3160417929   -6.6115512538   -0.0157401218
 H    1.0529648209    1.9179966759   -0.0066512096
 H   -0.5601309947    2.0096488970   -0.7251310744
 H   -0.3804296900    1.8736172704    1.0278060141
 H    0.4382481770   -0.2973314073   -0.9994752336
 H    0.6165403921   -0.4322892602    0.7396221027
 H   -1.8744917797   -0.2537327841    1.0097400153
 H   -2.0529630493   -0.1186382380   -0.7310888805
 H   -1.0309918583   -2.4092584751   -1.0147416434
 H   -0.8522958956   -2.5445254565    0.7282877784
 H   -3.3311516559   -2.3748966791    1.0052491150
 H   -3.5117947036   -2.2381736154   -0.7568050948
 H   -4.8549768441   -4.0812629932    0.1333476895
 H   -5.3279986304   -7.3240033473    0.8173107929
 H   -6.1502809827   -5.9037773373    0.1246690229
 H   -5.5068199506   -7.1885368323   -0.9280951034