17

 C   -0.0233098820    1.5761879176    0.0721440522
 C   -0.0020003410    0.0475951722    0.0011568581
 C    0.7176699634   -0.4780814496   -1.2420079102
 O    2.0802256449   -0.0963856291   -1.2953168986
 C    0.5910461632   -2.0213487623   -1.3513102981
 O   -0.7529618480   -2.4629482602   -1.3958903308
 C    1.3555598777   -2.5280437333   -2.5077557051
 N    1.8968531200   -2.9371696093   -3.4428558819
 H    0.9900138459    1.9843173239    0.0276649309
 H   -0.5883465497    2.0003530724   -0.7648332176
 H   -0.4921356801    1.9185454639    0.9989195843
 H    0.5001085674   -0.3648545772    0.8899559076
 H   -1.0188163695   -0.3571088245    0.0114860113
 H    0.2653676616   -0.0424952960   -2.1430184993
 H    2.4945817377   -0.3318603018   -0.4569287371
 H    1.0160541276   -2.4675920398   -0.4430702508
 H   -1.1204313593   -2.2280661368   -2.2560388149