19

 C   -0.0291341657    1.6659369102    0.0409467956
 C    0.0609376775    0.1517695245    0.0116320903
 C    1.1962695352   -0.6034714594   -0.7543515541
 C    2.4339890080   -0.0434045555    0.0207012085
 C    2.0969027251   -0.0898996364    1.3210936697
 C    0.7067808457   -0.7029766481    1.1963782529
 O   -0.1945694205   -1.4405551074    2.0174168387
 C   -0.3804400128   -2.3671465018    0.8812702758
 C    0.9216439891   -1.8315685587    0.1957942836
 H    0.9236092104    2.1316456372    0.3038708966
 H   -0.3355773789    2.0517288544   -0.9382004816
 H   -0.7815079537    1.9897831839    0.7683392252
 H   -0.9199505561   -0.2575669074   -0.2446905732
 H    1.2616059029   -0.6430067979   -1.8422845699
 H    3.3318563961    0.3492445967   -0.4347454284
 H    2.6371457532    0.2287261182    2.1996946357
 H   -0.3077246824   -3.4034151651    1.2204271151
 H   -1.3431288652   -2.2068781755    0.3881846251
 H    1.7682757122   -2.4979944517    0.3580562343