18

 N   -0.1630976537    1.2338081937    0.0562203578
 C   -0.1466056169   -0.0131562238    0.2384412814
 O   -1.0778162908   -0.7914862018   -0.3658530365
 C   -0.9375312673   -2.1628164200   -0.2018842554
 C   -0.1274082604   -3.1114389752   -1.0742101567
 C   -0.9814542141   -4.2310250572   -0.4058726567
 C   -0.5333984405   -4.2258429852    1.0845989925
 C   -1.1844117713   -2.8478030513    1.1592618926
 C   -2.0665599721   -3.1336864578   -0.0426153695
 H    0.5882916483    1.6708741180    0.5860649042
 H    0.5529525959   -0.5842018125    0.8614508538
 H   -0.3840867698   -2.9829387340   -2.1289756335
 H    0.9610870568   -3.1603212502   -0.9540344437
 H   -1.1727600076   -5.1610253482   -0.9349120128
 H   -1.0862519098   -4.9595952826    1.6777096015
 H    0.5396993575   -4.3210235333    1.2882279621
 H   -1.4370304753   -2.2528094369    2.0278709623
 H   -3.1291165288   -3.0373856416   -0.2061087535