17

 C   -0.0195372913    1.5490152564    0.0646537113
 C    0.0240979485    0.0266009867   -0.0403720740
 C    0.8321807119   -0.5126400032   -1.2412235500
 C    1.4324667848   -1.8089890228   -0.6946601754
 O    1.9433922863   -2.6985051348   -1.3182575568
 C    1.2473745838   -1.7510450093    0.8248320362
 O    0.7601674116   -0.4530904784    1.1077609798
 C   -1.3346621901   -0.5420014755   -0.0391266151
 C   -2.4386094515   -1.0173613851   -0.0391033869
 H    0.9999996238    1.9430775933    0.0834169663
 H   -0.5569729591    1.9759360015   -0.7857321740
 H   -0.5290808120    1.8441162274    0.9847085939
 H    0.2492261362   -0.6890762948   -2.1451515185
 H    1.6519704119    0.1752368980   -1.4795743505
 H    0.5407670500   -2.5381563200    1.1302292480
 H    2.1917371715   -1.9066890645    1.3537617199
 H   -3.4160560664   -1.4337169348   -0.0345236542