19

 C   -0.5605167040    1.3300381485    0.5906243126
 N   -0.9324451825   -0.0665789593    0.4980308478
 C   -0.9152134076   -0.7480379290   -0.6790981704
 O   -0.5780124926   -0.2568817906   -1.7439529844
 C   -1.3273320726   -2.2233331484   -0.5879036907
 C   -2.4597508625   -2.5776539898    0.3880371316
 C   -2.9400230417   -4.0163542090    0.2124900859
 O   -2.0837658566   -2.3357556065    1.7547029813
 H    0.3040592064    1.4712403127    1.2498368454
 H   -0.3007256099    1.6692118840   -0.4128129888
 H   -1.3883186257    1.9387992648    0.9720941646
 H   -1.2399560620   -0.5692552305    1.3198677706
 H   -1.6050460605   -2.5159439707   -1.6035820378
 H   -0.4362056781   -2.8132832522   -0.3278257968
 H   -3.3009674744   -1.8948383204    0.2233446278
 H   -2.1130099170   -4.7234956978    0.3543572464
 H   -3.7197178709   -4.2471175283    0.9433046192
 H   -3.3438466484   -4.1762618157   -0.7916319268
 H   -1.4055005793   -2.9806977917    1.9881459326