21

 C   -0.0335383906    1.6113191110    0.0115819292
 C    0.0961441333    0.0937529157    0.0178041665
 C    1.1399973465   -0.6699958215   -0.9169099145
 C    2.4044088555    0.1522476599   -1.0027017193
 C    2.9926060787    0.1647154639    0.1986421833
 C    2.2480044600   -0.7355920959    1.1240778672
 C    1.3696161487   -1.6352822209    0.2926661624
 C    0.6929584807   -0.6481500041    1.2150613191
 C   -0.0084121843   -0.8714354133    2.5248600116
 H    0.9267790605    2.0996940892    0.1933950055
 H   -0.4230252694    1.9718081575   -0.9476392159
 H   -0.7311103210    1.9372791882    0.7916200049
 H   -0.8828268890   -0.3584398825   -0.1799501531
 H    0.7403641150   -1.0598572274   -1.8522959234
 H    2.6741412350    0.7589823136   -1.8584309682
 H    3.8533783468    0.7523722818    0.4939770888
 H    2.7197931099   -1.1294169946    2.0178009362
 H    1.3821458666   -2.7194864057    0.2958422746
 H    0.5368674028   -1.5844201263    3.1527304912
 H   -0.1022878296    0.0614203292    3.0934862363
 H   -1.0190508061   -1.2690489078    2.3722591375