20

 C   -0.0061714052    1.5743813442    0.1693936200
 C   -0.0142184030    0.0553608830   -0.0215166510
 C    0.6704012165   -0.4325561197   -1.3127206793
 C    0.0660477215    0.1763818533   -2.5782357675
 O    2.0496803206   -0.0772443185   -1.3312575244
 C    0.5770516896   -1.9930667060   -1.3528035721
 O   -0.7497345691   -2.4855881312   -1.3782895290
 C    1.3692805917   -2.5467281623   -2.4691907961
 N    1.9338074084   -3.0016124439   -3.3689614492
 H    1.0042754727    1.9770618536    0.0544649337
 H   -0.6533650294    2.0789443177   -0.5536767535
 H   -0.3662918437    1.8349778827    1.1687443819
 H    0.5043964808   -0.4183638059    0.8257269164
 H   -1.0370022802   -0.3337810553    0.0004475006
 H    0.2169979400    1.2570822501   -2.5820021008
 H    0.5515234308   -0.2322386063   -3.4686616745
 H   -1.0092388224   -0.0181804112   -2.6329534206
 H    2.4463364464   -0.3369735761   -0.4917605308
 H    1.0091808751   -2.3751557104   -0.4193779523
 H   -1.1080789512   -2.3461709976   -2.2620119913