21

 C    0.0528998085    1.5688960620    0.1217296418
 C   -0.0050885833    0.0443223181    0.0131121431
 O   -1.3495381462   -0.4283023478    0.0876640248
 C    0.5836631565   -0.4902908002   -1.2965157322
 C    0.6311495577   -2.0382186855   -1.3586925392
 C    0.7945981007   -2.3624884015   -2.8492119049
 C    0.1083380221   -1.2044749816   -3.5839070038
 O   -0.1425826796   -1.1668385963   -4.7607426827
 C   -0.1941556560   -0.1009492961   -2.5671407605
 H    1.0853563383    1.9280623389    0.0592301938
 H   -0.5292523151    2.0395122523   -0.6759571112
 H   -0.3544301473    1.9045872553    1.0825665477
 H    0.5828861026   -0.3880925318    0.8409597468
 H   -1.7520083321   -0.0653291010    0.8821387614
 H    1.6096539664   -0.1063659057   -1.3721340592
 H    1.4297500590   -2.4517033269   -0.7365262333
 H   -0.3184620350   -2.4321219792   -0.9838049601
 H    1.8514877361   -2.3519285990   -3.1485288801
 H    0.3851763116   -3.3246377101   -3.1661795361
 H   -1.2716829157   -0.1246451633   -2.3609998753
 H    0.0401434506    0.8813463198   -2.9833544307