16

 C   -0.0274733540    1.5147172647   -0.2227040618
 C   -0.0344105430    0.0603831861    0.2615924671
 C   -1.4064483280   -0.5721204881    0.1638102636
 C   -1.8801427405   -1.2024321291   -1.1108562391
 C   -1.5823517384   -2.0861102344    0.0941527979
 C   -0.4348100470   -2.9484909223    0.0742444776
 N    0.4904298721   -3.6438011485    0.0628858218
 H    0.9721893993    1.9503011946   -0.1364310431
 H   -0.3364601225    1.5845208786   -1.2708087153
 H   -0.7125963367    2.1333614412    0.3672330028
 H    0.6815331947   -0.5305972187   -0.3206651013
 H    0.3097022094    0.0142694723    1.3021136201
 H   -2.1726348999   -0.0795725823    0.7576464368
 H   -2.9196240063   -1.1083425981   -1.4028129559
 H   -1.1796931881   -1.2571546665   -1.9369534531
 H   -2.4338100612   -2.5060505895    0.6187727019