20

 C   -0.6280036529    1.4508703715   -0.4225105560
 N   -0.4176544805    0.0331036660   -0.1506877448
 C   -1.2379998030   -0.5799375545    0.9335474190
 C   -0.1365841782   -1.6514949152    1.2058956190
 C    0.0409487128   -3.0173914853    0.6343371524
 O   -0.1224110136   -1.4463929203    2.6467050824
 C   -0.3309362474   -0.0921333697    2.1347245074
 C   -0.4548318578    0.9931022636    3.1585371826
 C    0.6037353636   -0.3173339751    0.8780634459
 H    0.1934917517    1.8209873475   -1.0449870580
 H   -1.5553378668    1.5715937121   -0.9924191293
 H   -0.6925984109    2.0921466701    0.4710726192
 H   -2.3220351120   -0.7011179661    0.8824069546
 H   -0.0009345388   -2.9591582776   -0.4571183931
 H    1.0071067646   -3.4384401953    0.9288852420
 H   -0.7493484023   -3.6892688334    0.9829252556
 H    0.4527495922    1.0357996102    3.7694658081
 H   -0.6074680711    1.9697315040    2.6939678884
 H   -1.3012381606    0.7864639067    3.8216025134
 H    1.6735045910   -0.1314308689    0.7620173711