17

 O    0.6763381787    0.0150115574    0.1281887888
 C    0.7240529753    1.1787100388    0.3847044197
 O    0.6178254262    2.1269666904   -0.5873408647
 C    0.7998512466    3.4699766812   -0.1909633484
 C   -0.1655619032    4.4468210162   -0.7929024783
 C   -0.2604970804    4.1071328443    0.6760654155
 C    2.2367820362    3.8582784090   -0.0292805029
 O    3.0627572294    2.9403316125    0.6856788945
 C    3.3199339322    3.1439012558   -0.7125883832
 H    0.8345416555    1.6077049252    1.3926234133
 H    0.2091288334    5.4223399175   -1.0821740219
 H   -0.9144033253    4.0290712846   -1.4549735286
 H   -1.0858468927    3.4790433397    0.9904460171
 H    0.0536791880    4.8444009853    1.4065919594
 H    2.3855279666    4.9061712481    0.2350250688
 H    3.0776976807    2.3003367753   -1.3535969763
 H    4.2470593429    3.6664607888   -0.9394795127