21

 C    0.0783178881    1.6533331981   -0.2195377342
 C    0.0411369219    0.1258118486   -0.0861235230
 C   -1.4039410806   -0.3224197456   -0.4489516909
 C   -2.3346232992   -0.1135111687    0.7228405345
 O   -3.0963331289    0.8127802497    0.8461375708
 C    1.2267190260   -0.7348245850   -0.6652165399
 C    2.1254769973   -0.1834213467    0.4804388960
 C    0.7648969630   -0.5449967557    1.1490688795
 C    0.8408042962   -1.8685509265    0.3326855385
 H    0.0143197361    1.9415846689   -1.2751909510
 H   -0.7874311337    2.0949107308    0.2838904737
 H    0.9723400224    2.1161456627    0.1980147939
 H   -1.7639460611    0.2778911930   -1.2892915326
 H   -1.4457045952   -1.3754170373   -0.7381007930
 H   -2.2496769579   -0.8867222052    1.5216733465
 H    1.4942143526   -0.8454957704   -1.7183797668
 H    2.9683040268   -0.8183799042    0.7637456913
 H    2.4296748835    0.8606390633    0.4427441230
 H    0.5064512554   -0.4355035520    2.2042125931
 H   -0.0791754028   -2.4271162655    0.1638609503
 H    1.6511755600   -2.5473200023    0.6083603204