23

 C    0.2817925772    1.6287171878   -0.0445347283
 C   -0.0110980878    0.1225519750    0.0069863001
 C    0.5327039044   -0.5510095219   -1.2638602673
 O    0.0476741679   -1.8558460985   -1.5342565835
 C    0.2156972254   -2.8603781295   -0.5512372062
 C   -0.6769104686   -2.6924488547    0.7143082458
 C    0.5332217129   -2.0116155683    1.4214597753
 C    1.4507608559   -2.7165401846    0.3792108667
 C    0.5407934804   -0.4800513300    1.3175645716
 H    1.3596181845    1.8183678985   -0.1157181949
 H   -0.1984858418    2.1013038608   -0.9074469240
 H   -0.0806157898    2.1307732698    0.8581496115
 H   -1.1005349738   -0.0095986585   -0.0080253125
 H    0.2270527868    0.0334376871   -2.1381205858
 H    1.6346314233   -0.5362267921   -1.2424807407
 H    0.1129512373   -3.8024706531   -1.0957093914
 H   -1.6042291827   -2.1277656727    0.5956620221
 H   -0.9095137571   -3.6647589517    1.1585356694
 H    0.7040658524   -2.3005221826    2.4625487778
 H    1.7719572298   -3.7010118699    0.7303012012
 H    2.3277763971   -2.1826002257    0.0052291117
 H    1.5730509893   -0.1290519539    1.4623857264
 H   -0.0392853428   -0.0617574314    2.1502097349