23

 C    1.1999921764    0.5887753900    1.0574877818
 C    0.1488528263    0.5204452686   -0.0513071940
 O   -0.2021321273    1.8277270451   -0.5128045157
 C    0.6596652529   -0.2304870003   -1.2741746917
 C    1.0437581341   -1.7084961170   -1.1280834713
 C   -0.1614850189   -2.5731249594   -0.8690252568
 C    0.0979949930   -2.0922350193   -2.2680009549
 C   -0.3260721395   -0.6238990586   -2.4457158128
 C   -1.8073229183   -0.2690208293   -2.3688520290
 H    1.4668925082   -0.4135221709    1.4071760268
 H    2.1049942922    1.0870357565    0.6946621365
 H    0.8233187476    1.1523369360    1.9191963904
 H   -0.7468513651    0.0161339251    0.3435486440
 H   -0.5500684794    2.3224938371    0.2357554651
 H    1.4925931727    0.3507692698   -1.6828754698
 H    2.0468281061   -2.0703692221   -0.9348461968
 H    0.0605780493   -3.6216598508   -0.6965554374
 H   -1.0085780356   -2.2091229442   -0.2944224681
 H    0.2722495465   -2.7899513216   -3.0788054939
 H    0.0804024118   -0.2301437556   -3.3819328527
 H   -2.2919561988   -0.7041173548   -1.4889428962
 H   -1.9399272282    0.8151138018   -2.3187580525
 H   -2.3372706759   -0.6448095662   -3.2512202510