19

 C    0.3568177782    1.3530462175   -0.2447490473
 C   -0.0156965956   -0.1030282992    0.0594464939
 C    0.6050228460   -0.5702483337    1.3816856106
 C   -1.5499659464   -0.3055916192    0.0955425514
 C   -2.2253713010   -0.0583605403   -1.2155853106
 N   -3.0150841572    0.9628616822   -1.4280369364
 O   -3.4345371563    0.8593640534   -2.7260541976
 N   -2.9017362975   -0.2405468626   -3.3336945455
 C   -2.1609496527   -0.8118427481   -2.4269069891
 H    1.4430752611    1.4701541987   -0.3091291981
 H   -0.0759810717    1.6961628717   -1.1886578438
 H   -0.0050079744    2.0198294491    0.5466563577
 H    0.3852062581   -0.7350452050   -0.7457836522
 H    0.2231091317    0.0208374740    2.2223035377
 H    0.3791714768   -1.6227016512    1.5832379414
 H    1.6933727607   -0.4568540692    1.3643851555
 H   -1.7670770622   -1.3326320002    0.4134457498
 H   -1.9917975405    0.3618126333    0.8427018577
 H   -1.6186370970   -1.7188684913   -2.6456206250