23

 C   -0.1936493144    1.4389599572    0.2629487399
 C    0.0519617866   -0.0283530381    0.0563815857
 C   -0.7153265749   -1.0984664624    0.7919795294
 C    0.7852037230   -1.0635059473    0.9357870159
 C    1.4036667790   -1.6980643505   -0.3221206979
 C    0.6635439291   -0.6454805038   -1.2082360369
 C    1.5201152428   -0.9317214149    2.2219592402
 C    0.8442871615   -0.6511316442    3.5427309769
 C    1.4308084436   -2.0128977308    3.2802608138
 H    0.6866387314    2.0338180810   -0.0082295698
 H   -1.0309747418    1.7925652436   -0.3520858530
 H   -0.4361064710    1.6596911573    1.3074645553
 H   -1.2818965407   -0.7437883707    1.6470629690
 H   -1.1977491254   -1.9119083243    0.2513932265
 H    2.4900831228   -1.5822886545   -0.3622817398
 H    1.1627671874   -2.7527403734   -0.4957266681
 H   -0.0472151383   -1.0311650675   -1.9476549119
 H    1.3582934465    0.0284132544   -1.7172939046
 H    2.5068840070   -0.4856448301    2.1122759322
 H    1.3550456130    0.0047415538    4.2392382838
 H   -0.2358187790   -0.5638338523    3.5683149190
 H    0.7388222780   -2.8279588251    3.0978497959
 H    2.3354106839   -2.3002507472    3.8046442685