16

 C    0.0799679758    1.5211042605   -0.1491419758
 N    0.0399300656    0.0648772171   -0.0368778104
 C   -1.1168606780   -0.4925456584    0.7164907963
 C   -0.2921353928   -1.7182993413    1.1966428595
 O   -0.6615655473   -1.5839769711    2.5921484253
 C   -0.5434524554   -0.2076002263    2.1527342864
 C    0.6958556745   -0.4962551366    1.1908872755
 C    2.0950534233   -0.4320482484    1.4634845000
 C    3.2716376928   -0.3645787333    1.7043667228
 H    1.0889616686    1.8280043286   -0.4393375504
 H   -0.6098153161    1.8363212992   -0.9380988041
 H   -0.1887030167    2.0542669941    0.7784670349
 H   -2.1471563746   -0.4546194293    0.3650531166
 H   -0.1664528354   -2.7073961214    0.7610824691
 H   -0.7202948032    0.5809175574    2.8831043004
 H    4.3113237289   -0.3121941109    1.9154297637