18

 O    0.1054474824    1.3565671568    0.5512271994
 C    0.0692103930    0.1495566912   -0.1856358265
 C   -1.2318599171   -0.5755105382    0.0698060354
 C   -1.4814940144   -2.0588490720   -0.0482682151
 C   -0.4480811588   -3.0833330851   -0.4610617739
 O   -0.6796810684   -4.3275768824    0.1758400419
 N   -1.3018864796   -1.4217855574    1.2484334344
 C   -2.2355915994   -1.2715044880    2.2580010347
 O   -2.5115334116   -0.2120702890    2.7661400046
 H   -0.1660404537    1.1547749520    1.4551587370
 H    0.1461484141    0.4289554288   -1.2419799418
 H    0.9219534111   -0.5010345508    0.0558782521
 H   -2.1046984068    0.0579006556   -0.0871325777
 H   -2.5032914323   -2.3422189449   -0.3017971053
 H   -0.5288962773   -3.2710633088   -1.5366907662
 H    0.5636764985   -2.7080447273   -0.2589580206
 H   -0.5373406484   -4.1958409314    1.1196664332
 H   -2.6477265613   -2.2389441689    2.6038205643