19

 C   -0.1165440907    1.4509961525   -0.0196724295
 C   -0.0459729598   -0.0038094298   -0.0118868754
 C    0.0637330936   -1.2048490598    0.0070969191
 C    0.1059806478   -2.6541291778   -0.0076743045
 C    0.2810385167   -3.3188662272    1.3949794577
 O    0.9967212430   -2.5458187163    2.3221787203
 C   -1.2601151289   -3.4315907546    1.5207317095
 C   -1.3488569852   -3.2733312548   -0.0217509664
 O   -2.3858377821   -2.5354385603   -0.5898381325
 H    0.8766785070    1.8920367803    0.1187076504
 H   -0.5178370322    1.8277068379   -0.9669335505
 H   -0.7587458692    1.8241669219    0.7856172192
 H    0.7860456070   -3.0111995994   -0.7860893813
 H    0.7378564595   -4.3104706461    1.2649666994
 H    0.9983264802   -3.0134965702    3.1635242067
 H   -1.6884439660   -4.3271602184    1.9765510105
 H   -1.6554547206   -2.5391689565    2.0149084612
 H   -1.3391340392   -4.2444487213   -0.5240460734
 H   -2.2093400310   -1.6049568999   -0.3926640805