18

 O    0.0886927778    1.3853916821   -0.0337749643
 C    0.0276955464   -0.0001394394   -0.0594446906
 C    0.6512880204   -0.6951740050   -1.3075273244
 C    0.0185530760   -2.1163469594   -1.2228911693
 N   -0.8186234614   -2.1173607642    0.0132549544
 C    0.0971268973   -2.0782869300    1.1796368567
 C    0.6810293002   -0.6594450904    1.1485414587
 O    1.4371332706   -0.1074586172    1.9084895145
 C   -1.3454000848   -0.7285748672    0.0015183137
 H    0.7030701350    1.6144378521    0.6809397976
 H    0.3440482267   -0.1428031674   -2.1998771871
 H    1.7439256608   -0.7001115519   -1.2776520419
 H   -0.6318494096   -2.3198034031   -2.0776153080
 H    0.7568275033   -2.9194260094   -1.1705447145
 H   -0.4692586590   -2.2222656946    2.1072319207
 H    0.8638848126   -2.8556246675    1.1335724008
 H   -1.9192960746   -0.5113600817    0.9064004343
 H   -1.9704766677   -0.5484736560   -0.8764560314