13

 N   -0.0789088641    1.2788703325    0.1608579837
 C   -0.0005609343    0.0199101065    0.0480916814
 N   -1.1491202001   -0.7461856166   -0.0910326498
 C   -1.2010107770   -2.1109240044   -0.2090955588
 O   -2.2326274505   -2.7292138456   -0.3268283733
 C    0.1355616558   -2.8340924137   -0.1775670682
 O    1.3306736707   -2.0520724922   -0.0725418710
 C    1.3307147828   -0.7168521483    0.0516499470
 O    2.3609310599   -0.1123490844    0.1581828066
 H    0.8668481199    1.6566198116    0.2484041975
 H   -2.0318510840   -0.2475340195   -0.1026225022
 H    0.1178578218   -3.5274019703    0.6687954891
 H    0.2130907591   -3.4291615356   -1.0917406720