18

 O    0.0476583899    1.2859365674   -0.5224716239
 C    0.0239501940    0.1388465772    0.3092287348
 C   -1.3463385823   -0.4955881607    0.3324285175
 N   -1.7203808294   -1.1574148946   -0.9470799208
 C   -1.5491784740   -1.9553138376    0.2657450347
 C   -0.5783758356   -3.1652179369    0.3275828668
 C   -1.7237339367   -3.9530243649    0.9907765736
 O   -2.0914416233   -3.2443022711    2.1797159423
 C   -2.6310065487   -2.7943356588    0.9288142401
 H   -0.2540934860    0.9887990663   -1.3891398294
 H    0.7656586092   -0.6066329818   -0.0148506697
 H    0.3037115887    0.4754010295    1.3128323469
 H   -2.1178192070    0.0912528895    0.8282911204
 H   -2.7093370055   -1.0174423703   -1.1433207238
 H   -0.3239474036   -3.5169422207   -0.6748789783
 H    0.3236345900   -3.0639701030    0.9349538040
 H   -1.9352454958   -5.0148712825    0.9558455818
 H   -3.7100737339   -2.7244547768    0.8387198529