17

 O   -0.0850327274    1.4212642210   -0.0462239979
 C    0.0491676528    0.0128492670   -0.0163492753
 C    0.1341815827   -0.6278479179    1.4073539489
 C   -1.3817283493   -0.2604274716    1.5572167226
 C   -1.3716152016   -0.6080830795    0.0099419909
 O   -2.3542480060   -0.2228197164   -0.8841184745
 C   -1.0742237342   -2.1163872146    0.0895473709
 O    0.2582186816   -2.5100617907   -0.2855015869
 C    0.0012980533   -2.1324017283    1.0798844487
 H    0.7941343804    1.8088868915   -0.0730157655
 H    0.7477178659   -0.3430266507   -0.7741210848
 H    0.8838488685   -0.3145613267    2.1321783890
 H   -1.9923447040   -0.8890647704    2.2105149868
 H   -1.5531514274    0.7972626694    1.7554645880
 H   -2.2911140411    0.7362738815   -0.9712576690
 H   -1.8584237592   -2.8555289450   -0.0302702039
 H    0.1559240049   -2.9034788287    1.8270868820