20

 C    0.1389204694    1.7388805153   -0.2823923334
 C   -0.0246695778    0.2237042537   -0.2946304493
 C    0.9933979933   -0.8187143305   -0.8907415253
 C    1.9319146743   -0.6561482829    0.3556536611
 C    2.9234003180    0.4926510915    0.5301101958
 C    0.4428464936   -0.7031813338    0.8733755094
 N    0.2164511349   -1.8360018863   -0.0982251508
 C    0.5602636615   -3.1528393474    0.0647853504
 O    1.0887770670   -3.8457680603   -0.7774077647
 H    0.3637020630    2.1197066380   -1.2847045276
 H   -0.8061997989    2.1951925182    0.0288656141
 H    0.9068527153    2.1035551927    0.3979493325
 H   -1.0376301519   -0.0340273769   -0.6130016302
 H    1.2604042343   -0.9993770797   -1.9311317445
 H    2.4407132398   -1.5954226594    0.5890960516
 H    2.9789337762    0.8136133515    1.5762454015
 H    3.9219301364    0.1441466895    0.2476602730
 H    2.7076402036    1.3674983093   -0.0816405609
 H    0.0731421172   -0.7501662154    1.8995487241
 H    0.2034131008   -3.5497047571    1.0382005033