19

 C    0.0013182021    1.5302355028   -0.0629144304
 C   -0.0488503740    0.0234189975    0.0531398628
 O    0.2714522629   -0.6069959665   -1.2497899341
 C   -0.9561672803   -1.3635354213   -1.2450690841
 C   -0.8432368089   -2.7448978649   -0.5531349295
 C   -1.0780004149   -2.0476673330    0.8459918985
 C    0.1875295220   -1.7280577176    1.6021769735
 C    0.7550294900   -0.5994467458    1.1731190705
 C   -1.4066440025   -0.7247426515    0.0863786248
 H    1.0159247370    1.8558370864   -0.3163001932
 H   -0.6730729679    1.8822856954   -0.8485193306
 H   -0.2838271379    2.0006130479    0.8842836022
 H   -1.4824713598   -1.2981117589   -2.2004651874
 H   -1.6776133399   -3.3982078214   -0.8262714820
 H    0.0991803322   -3.2787702166   -0.6889153505
 H   -1.8632722416   -2.5025973966    1.4524855111
 H    0.6050422179   -2.3927396371    2.3513885704
 H    1.6999340907   -0.1917276771    1.5145844445
 H   -2.3337636871   -0.1839591016    0.2677276235