19

 O    0.0603177526    1.3613123809   -0.1535461629
 C    0.0485250049   -0.0427572026   -0.0265675362
 C   -1.3816167878   -0.5831062561    0.0462807677
 O   -2.0142808910   -0.1330969497   -1.1491930336
 C   -3.2920574030   -0.7255614250   -1.3471490452
 C   -3.1300516101   -2.2196405062   -1.6278239216
 O   -2.6366353892   -2.4565258784   -2.9447016985
 C   -2.2232460009   -2.8327379124   -0.5860033573
 C   -1.4363279440   -2.0796292139    0.1807714448
 H   -0.5494118613    1.5669066412   -0.8723422822
 H    0.5668850126   -0.5361232978   -0.8648243312
 H    0.5843401597   -0.2907516502    0.8955036871
 H   -1.8769559480   -0.1084192897    0.9138062622
 H   -3.9344249387   -0.5614130103   -0.4675003534
 H   -3.7385334235   -0.2279217694   -2.2115685380
 H   -4.1152913082   -2.6997307868   -1.6030054617
 H   -1.7734144721   -2.0278311491   -2.9876437761
 H   -2.2161088900   -3.9157596432   -0.5053810830
 H   -0.7947591519   -2.5232251012    0.9387244591