17

 C   -0.0013675286    1.5388132178    0.0871654349
 C    0.0538329620    0.0258900994    0.0525301802
 C   -1.1755833814   -0.6431904902   -0.5383808610
 C    1.3270154386   -0.7190322015   -0.1751175399
 O    2.4628144862    0.0043037703    0.3648121799
 C    1.9408283234   -0.1410202877    1.6550954272
 N    2.4413106205    0.1560934365    2.7644651842
 C    0.6857161342   -0.8020059908    1.1961421852
 H    0.9324198016    1.9716397476    0.4488609018
 H   -0.1891604958    1.9332760909   -0.9178139809
 H   -0.8141407256    1.8786607477    0.7374145805
 H   -1.3511864774   -0.2876573024   -1.5592648972
 H   -1.0701252920   -1.7322993189   -0.5727733226
 H   -2.0665698970   -0.4120210902    0.0549679018
 H    1.5351334369   -1.4722441014   -0.9239952625
 H    3.3654703503    0.5761341971    2.6513486745
 H    0.1597854242   -1.6002909341    1.6995029038