22

 C   -0.2529883063    1.2846017215   -0.1695827528
 N    0.0712687577   -0.1112359737    0.0772698548
 C    1.4535366092   -0.5598950571   -0.0867824856
 C    0.8286542091   -0.5260282352    1.2724017920
 C    1.3044205274    0.5055099038    2.2752363283
 C    0.2856180361   -1.8338492012    1.8239524159
 O   -0.3084296894   -2.6230739769    0.8353143434
 C    1.0000903226   -2.6106517502    2.8851188815
 C   -0.3138575864   -1.9212297957    3.2116010903
 H    0.5639947985    1.9872372978    0.0500535259
 H   -0.5176018539    1.4000591834   -1.2256151153
 H   -1.1232256891    1.5698437873    0.4299082111
 H    1.5822353380   -1.5034580855   -0.6084202227
 H    2.2044014748    0.1986743798   -0.3049834577
 H    1.7959987910    1.3478673776    1.7852361437
 H    0.4741506688    0.8976369929    2.8713256058
 H    2.0315939534    0.0659138428    2.9642737987
 H   -0.7471944473   -1.9809592885    0.2519982110
 H    0.9863648472   -3.6885183439    2.7700304488
 H    1.9138945800   -2.2138675717    3.3136572612
 H   -0.2933819191   -1.0617611980    3.8720968562
 H   -1.1931190324   -2.5480013390    3.3041394855