15

 O   -0.0237327193    1.3826977709    0.3435375458
 C    0.0573693784    0.0102160936    0.0353202277
 C   -1.3081836615   -0.6108366347   -0.0927513168
 O   -2.0114580969   -1.0528972605    1.0879734988
 C   -1.7323303596   -2.0056969804    0.0656465432
 C   -2.9223715317   -2.2173596033   -0.8466908133
 O   -3.2372616397   -0.9169691057   -1.3871385371
 C   -2.2897660386   -0.0035463050   -1.0699556094
 O   -2.2611792919    1.1045980098   -1.5343149558
 H   -0.5914252033    1.7868406544   -0.3279200436
 H    0.6143785291   -0.1724924999   -0.8989318771
 H    0.5986134331   -0.4789073758    0.8506893071
 H   -1.0622977240   -2.8215840586    0.3193390854
 H   -2.6864710150   -2.8914967824   -1.6764910860
 H   -3.8025763990   -2.5858373423   -0.3137450589