15

 O    0.2901149381    0.0064758314    0.3628214922
 C    0.1580624857    1.1548718572    0.0447478172
 C    1.3483467358    2.1141466918   -0.1270112224
 C    1.1833846223    2.9207601619   -1.3371855686
 N    1.0149873421    3.5527979436   -2.2899733483
 C    1.4567315250    2.9914563952    1.1220354259
 C    2.0744927143    2.4112044382    2.3678949881
 C    2.8079888316    3.4709001464    1.5853533235
 H   -0.8384735465    1.6219421445   -0.1038415148
 H    2.2459843034    1.4942438964   -0.2208050052
 H    0.6226690092    3.6741126380    1.2509880832
 H    1.6366399648    2.6794949440    3.3222728988
 H    2.4430535168    1.3922834022    2.3194308783
 H    3.6768686363    3.1698938717    1.0101350474
 H    2.8732114013    4.4707899075    1.9982823848