17

 C    0.0153193952    1.4123023898    0.0564857205
 N   -0.0328403724   -0.0341540749    0.0252612490
 C    0.5026552389   -0.6107514058   -0.9781455869
 N    1.1577084746   -0.0787050496   -2.1056245420
 C    1.5483495964   -1.1273909621   -2.8895392622
 O    2.1992577748   -0.8924757611   -4.0344406102
 N    1.2262767141   -2.2780029337   -2.4069183562
 N    0.5728006262   -1.9663615192   -1.2129560536
 C    0.0495209623   -2.9998597175   -0.3623647824
 H    1.0446719680    1.8129646117    0.0718201312
 H   -0.5037922579    1.8834016811   -0.7973163636
 H   -0.4774886046    1.7726011094    0.9636073516
 H    1.3044716394    0.8967258316   -2.2906248263
 H    2.3852832565   -1.7511640552   -4.4367314890
 H    0.8470708130   -3.6670887959   -0.0174265965
 H   -0.4067630027   -2.5028418838    0.4949171002
 H   -0.7065788018   -3.5953373249   -0.8858361736