16

 N   -0.2097572709    1.3426550707    0.6087860561
 C   -0.1580032924    0.0141719746    0.2099998236
 C   -1.0087501448   -0.7882185665   -0.4951327197
 C   -0.4041282219   -2.0887587290   -0.4857425182
 C    0.7507301445   -1.9882634753    0.2137505384
 N    1.7423496655   -2.8978124245    0.5553112542
 C    2.9768115236   -2.9560274887   -0.0632387631
 N    3.2812962732   -2.2476493534   -1.0732089449
 O    0.9072459397   -0.6816582403    0.6579106186
 H    0.7111924044    1.7553595671    0.6907889924
 H   -0.7984048314    1.9042723862    0.0089998422
 H   -1.9329593491   -0.4936929277   -0.9651716445
 H   -0.7751452745   -2.9858251891   -0.9559127602
 H    1.6616258532   -3.3880267542    1.4330302966
 H    3.6284008886   -3.6937449687    0.4233138013
 H    4.2237128524   -2.4711591812   -1.3844886527