17

 O    0.0222979516   -0.1061993048    0.0487505432
 C   -0.0045140819    1.0963545439    0.1715582371
 C   -1.3094452744    1.8611814220    0.3613788950
 N   -1.0938658425    3.1733286099    0.9693231748
 C    0.1940485514    3.7628487257    0.7436771489
 C    1.0880645157    3.4003962733   -0.4999801822
 N    2.2592352201    3.8832529308    0.3273802213
 C    1.4461789949    3.0040332410    1.2520912329
 C    1.2250127606    1.9598001518    0.1000466281
 H   -1.7495090087    1.9294702408   -0.6496285935
 H   -1.9902557253    1.2505736044    0.9624983373
 H   -1.8336628883    3.8170064344    0.7239842322
 H    0.1910858307    4.8239992578    0.9928316874
 H    0.9707621674    3.6728670497   -1.5504966171
 H    3.0958015317    3.3665803326    0.0391610159
 H    1.7454217447    2.7952949485    2.2800489483
 H    2.1062041922    1.3854168781   -0.1979858098