20

 C   -0.4552833316    1.5300086335    0.1975777977
 C    0.1099885793    0.1132907798   -0.0173132417
 C    0.8651190451   -0.4304136680    1.1501787022
 C    2.2148902272   -0.6287242131    1.3338201802
 O    3.1544527661   -0.3346049033    0.3800931306
 C    2.4265797705   -1.1550828425    2.6393814536
 C    1.1889077747   -1.2703249332    3.2393772854
 C    0.8063379761   -1.7682992127    4.5937574584
 N    0.2604896158   -0.8260656222    2.3350185180
 H    0.3500546953    2.2392106399    0.4100671282
 H   -0.9946527969    1.8767611522   -0.6901944220
 H   -1.1518788956    1.5587687511    1.0427983180
 H   -0.7127561300   -0.5641250300   -0.2887201470
 H    0.7924708418    0.1207610196   -0.8729461235
 H    4.0045378162   -0.6639163052    0.6834312468
 H    3.3732194140   -1.4183477383    3.0891481297
 H    0.2834041362   -1.0055008733    5.1848611517
 H    0.1505199800   -2.6472684175    4.5447943690
 H    1.7010676471   -2.0575910968    5.1498281848
 H   -0.7315711312   -0.8102863601    2.4959594298