23

 C   -0.2793419597    0.8166782170   -1.9396052703
 C   -0.0009933098   -0.2643505496   -0.9140877471
 C    1.3838261139   -0.5829536687   -0.3950915684
 C    2.6313134330    0.1564408023   -0.8330655334
 C    0.3505969716    0.0233815481    0.5381033391
 C    0.4786388884    1.4124390516    1.0842830357
 C   -0.7151370062    2.0056284450    1.8727396881
 C    0.3110013973    2.1930200774    3.0054336697
 O    1.3158858745    1.4620184150    2.2747820350
 H    0.3802059840    1.6815866769   -1.8404901313
 H   -0.1491944546    0.4243622286   -2.9544583258
 H   -1.3101120623    1.1794289666   -1.8575344819
 H   -0.6445996504   -1.1314182443   -1.0437109484
 H    1.5671110300   -1.6401289795   -0.2182080874
 H    2.4515484070    1.2141316782   -1.0382180990
 H    3.4017398509    0.1038614566   -0.0568839242
 H    3.0431878725   -0.2874233610   -1.7462704226
 H   -0.0745664373   -0.6617130916    1.2684750500
 H    0.8657282602    2.1078053144    0.3297375358
 H   -1.1726764594    2.9077639839    1.4636848306
 H   -1.4949239186    1.2732213449    2.0927489182
 H    0.6106688917    3.2347726263    3.1843277367
 H    0.0804169034    1.7238839518    3.9689570210