16

 O   -0.0606620752    1.0328634212    1.6096535479
 C   -0.0011937856    1.4537520742    0.4855301292
 C   -1.2957201932    1.5906008448   -0.3323771395
 O   -1.1807516657    1.7018754975   -1.7274823496
 C   -0.8935673084    3.0094485794   -2.1897670837
 C    0.4325641524    3.5459890778   -1.6226898243
 C    1.4030233231    2.4084758526   -1.3138972103
 O    1.1970204947    1.8039233855   -0.0242261410
 H   -1.8639331012    0.6809926497   -0.1241090987
 H   -1.8624060597    2.4304078180    0.1008411336
 H   -0.8325582866    2.9146777484   -3.2777622230
 H   -1.7242743136    3.6930241261   -1.9567801599
 H    0.8892109448    4.2285914728   -2.3476011316
 H    0.2771980139    4.1265376414   -0.7064959600
 H    1.3650571265    1.6348470807   -2.0872952550
 H    2.4259909237    2.7860907899   -1.2532405442