14

 O    0.0445474058   -0.0046902462   -0.0341693423
 C   -0.0000316606    1.1988004289   -0.0595440680
 C   -1.2651017444    2.0682747645   -0.1143457806
 C   -0.8333993507    3.3715098785   -0.8248905485
 C    0.6721693620    3.4529338642   -0.5973972001
 N    1.0303853654    3.2742139809    0.8121176647
 C    1.1791889024    2.1274064110   -0.1386203475
 H   -2.0730532013    1.5319841392   -0.6142330019
 H   -1.5802744731    2.2652964246    0.9153934594
 H   -1.0317491056    3.3059238165   -1.9001437827
 H   -1.3505648697    4.2563301263   -0.4429348782
 H    1.2826844832    4.0964311455   -1.2226474675
 H    1.9594648298    3.6555868207    0.9774401985
 H    2.1638635869    1.7380594255   -0.3664697054