18

 C   -0.3393764717    1.6674699813    0.2266218420
 N   -0.2574451137    0.3216864241    0.7905995745
 C    0.3850404684   -0.7063975929    0.0133575685
 C    1.0409051601   -0.2093921224    1.2706243586
 C    2.3070772005    0.5713930566    1.1353027441
 O    2.6286804594    1.1810784615    0.1333476957
 C    3.2152403945    0.6156811132    2.3360161164
 C    2.6809644646    0.9153880959    3.6814061911
 O    3.0812463391   -0.4009602831    3.3333438244
 H    0.5235038031    1.9557515192   -0.3837853330
 H   -1.2441869034    1.7101725962   -0.3873731944
 H   -0.4517991742    2.3872022370    1.0436326248
 H   -0.0837742681   -1.6870510375    0.0256687871
 H    0.8735976088   -0.4210749183   -0.9167824626
 H    0.9616842899   -0.8012444239    2.1758895351
 H    4.2341148425    0.9161526566    2.0999467657
 H    3.3226264921    1.4341311635    4.3912666284
 H    1.6104230880    1.0620119030    3.8149334236