16

 C    0.0268059792    1.3605284934    0.0075212624
 O    0.0417058336   -0.0652216705    0.0016844800
 C   -1.1585444254   -0.6555476335    0.0087062713
 N   -1.2331927287   -1.9233013506    0.0044614114
 C   -2.4935770634   -2.4898897924    0.0118055228
 N   -3.6843935955   -1.9162642284    0.0232459767
 C   -4.5866067225   -2.9512409495    0.0259751461
 C   -3.9426049556   -4.1619939962    0.0161666322
 N   -2.6020922879   -3.8501106425    0.0071369047
 H    1.0701687175    1.6764648751   -0.0011575106
 H   -0.4789237002    1.7560303443   -0.8806481579
 H   -0.4618667735    1.7488249686    0.9083320980
 H   -2.0277792568    0.0104254405    0.0177443357
 H   -5.6507332685   -2.7687558900    0.0348732562
 H   -4.2966202214   -5.1789170092    0.0147884310
 H   -1.8199404408   -4.4830568089   -0.0014067900