14

 N    0.1251092623    1.4517149939   -0.0374210942
 C    0.0815343881    0.0184540288    0.0525029944
 C    0.2288849464   -0.5912183767    1.4950809570
 C   -1.1291824238   -1.2700352985    1.3195413545
 O   -2.0879651578   -0.2420779116    1.0490138991
 C   -1.2953560781   -0.7226741796   -0.0455790298
 C   -1.9517967240   -1.2366512033   -1.2042202679
 N   -2.4242485920   -1.6338611302   -2.1829285718
 H    0.0189774127    1.7641374648   -0.9976747195
 H   -0.6386017024    1.8516250559    0.5010753028
 H    0.8042212933   -0.4204179910   -0.6397693023
 H    1.0645807827   -1.2891698610    1.5720449600
 H    0.2766191172    0.1350581855    2.3088092782
 H   -1.5052353346   -2.1989001769    1.7300455094