17

 C   -0.0273477547    1.5559972417    0.0320959522
 C    0.0019413465    0.0227348224    0.0029451564
 C    0.7679498304   -0.5346580169    1.2245125816
 C   -1.4326833638   -0.5529224572   -0.0196883203
 C    0.7206897992   -0.4350226364   -1.2625874998
 O    1.1896972571    0.2860040613   -2.1056651205
 C    0.8329756511   -1.9078245272   -1.4368319216
 N    0.9259759183   -3.0513590508   -1.5824668366
 H    0.9834145450    1.9717293149    0.0309419874
 H   -0.5514711736    1.9589046170   -0.8381843880
 H   -0.5414852178    1.8978743211    0.9351317458
 H    0.2486746559   -0.2401033749    2.1414436710
 H    0.8238179674   -1.6268820101    1.2057317249
 H    1.7869091182   -0.1381056420    1.2698228914
 H   -2.0018614882   -0.1689643980   -0.8718479903
 H   -1.4316080909   -1.6455752913   -0.0701747522
 H   -1.9541119602   -0.2590023937    0.8962244184