19

 C    0.0376457165    1.5044435633   -0.2000803962
 C    1.3295181163    0.7575888657   -0.0003778177
 C    2.1401916513    0.9262265370    1.2908039595
 C    1.2695542321    0.9168276740    2.5296034874
 C    0.1660200360    0.1866598532    2.5112887387
 C   -1.1968622423    0.0900767003    3.1471097167
 O   -1.7391379010   -0.3480291285    1.8698209791
 C   -0.3891349604   -0.5627377534    1.3386859652
 C   -0.0009418184    0.0111421930    0.0031049779
 H   -0.3196374401    2.1280476085    0.6118619431
 H   -0.1927421441    1.8805616366   -1.1903787450
 H    1.9453507128    0.6165472191   -0.8836154071
 H    2.9040224241    0.1372952509    1.3413334914
 H    2.6946227181    1.8717414828    1.2439549713
 H    1.5268229421    1.5635177279    3.3635531025
 H   -1.3133068872   -0.6832530255    3.9201758137
 H   -1.6526527887    1.0222347062    3.5010906064
 H   -0.1726583098   -1.6419882894    1.3481503261
 H   -0.2254302373   -0.6007520316   -0.8648605629