20

 C    0.0266775747    1.6461073718    0.1004311281
 C    0.0286254883    0.1405476503    0.0243716991
 N   -1.2727897760   -0.5520841698    0.2602818254
 C   -0.6784280608   -1.3832746576    1.3497275551
 C    0.7237466167   -0.8538387921    0.9949422982
 O    1.3553180652   -1.5447620200   -0.0990233566
 C    0.8603831966   -0.5730107773   -1.0735609090
 C    0.1890277346   -1.2733614667   -2.2381984239
 O    1.0947289935   -2.1787508952   -2.8504978473
 H    1.0368806257    2.0506243396   -0.0146456343
 H   -0.5966551081    2.0710061337   -0.6958379679
 H   -0.3723987101    1.9938125178    1.0597122786
 H   -1.9979617823    0.0769597766    0.5847456415
 H   -0.9951834892   -1.0934365367    2.3595628831
 H   -0.8242587794   -2.4604572152    1.2221209347
 H    1.4237410756   -0.6072724039    1.7968022529
 H    1.7003199926    0.0378317243   -1.4333694044
 H   -0.7215054389   -1.7734405477   -1.8860074012
 H   -0.0965286416   -0.5426022008   -3.0034921713
 H    1.4104800629   -2.7536528608   -2.1431152306