20

 C   -0.1539819740    1.4877093968    0.0620976280
 C    0.0554782605   -0.0295223974    0.0126651464
 N    0.6962965630   -0.4992979574   -1.2017574982
 C    0.0901390578   -0.4575763835   -2.5144023935
 C    1.2123640499   -1.0729931094   -3.3765035413
 C    1.4094211037   -0.4314169336   -4.7363065412
 O    2.4010770995   -0.9055002906   -2.5809645140
 C    2.0613329669   -0.6373649911   -1.2834091952
 O    2.8635316183   -0.5499647460   -0.3918087296
 H    0.8053341385    2.0088652587   -0.0043857076
 H   -0.7958082337    1.8374026418   -0.7530151744
 H   -0.6320260581    1.7699505187    1.0051826869
 H    0.7013718644   -0.3442155551    0.8358990649
 H   -0.9036346506   -0.5504138160    0.1214595458
 H   -0.8332211280   -1.0453779773   -2.5587785781
 H   -0.1449979706    0.5691221653   -2.8344520288
 H    1.0447545736   -2.1521270694   -3.4872678548
 H    1.6046421616    0.6398675465   -4.6307330877
 H    2.2543593174   -0.8879547632   -5.2579208557
 H    0.5127578598   -0.5649284578   -5.3504520219