23

 C   -0.0343771529    1.5715734240   -0.0791868313
 C    0.0455324491    0.0411965320   -0.0378905261
 C    0.6460699745   -0.5445549579   -1.3302836630
 C    0.7002021575   -2.0774461660   -1.3005860026
 C    1.4647355737   -2.5872258625   -0.0719231624
 C    0.8728330853   -2.0187201300    1.2267895728
 C    0.7773026161   -0.4706254398    1.2323524469
 C    2.1553381477    0.1384958869    1.4069372731
 O    2.5366154001    0.6683234198    2.4210717606
 H    0.9578818391    2.0256981227   -0.1836241715
 H   -0.6401623966    1.9078749129   -0.9268846266
 H   -0.4833122850    1.9707950945    0.8362105098
 H   -0.9814346685   -0.3454143410    0.0396546003
 H    0.0502366437   -0.2041502694   -2.1856233185
 H    1.6564391740   -0.1436529112   -1.4898442672
 H   -0.3245576532   -2.4738617460   -1.2768586475
 H    1.1588836633   -2.4575960200   -2.2200377796
 H    1.4400433068   -3.6819502006   -0.0356468651
 H    2.5231043726   -2.3089008862   -0.1591269256
 H   -0.1438970544   -2.4121874984    1.3566436927
 H    1.4484629277   -2.3565754801    2.0957195524
 H    0.2131423128   -0.1598148134    2.1188010316
 H    2.8384446165    0.0569607997    0.5311707969