23

 C   -0.0344045047    1.5116658799    0.0396909685
 C    0.0360023886   -0.0156760511   -0.0699855522
 C    0.7408888162   -0.4983823516   -1.3135145757
 C    2.2189116447   -0.2154836821   -1.7438072599
 C    1.6249996938   -1.1146270726   -2.8642382620
 C    2.3289924504   -1.6024708286   -4.0967856214
 O    1.4103429783   -2.3843872288   -4.8488463458
 C    0.9908160705   -1.9791239022   -1.7357986035
 C    0.3469899321   -0.2284947998   -2.8017406072
 H    0.9674149487    1.9535838287    0.0607952130
 H   -0.5701079993    1.9448144291   -0.8115103994
 H   -0.5538052066    1.8187361803    0.9525496368
 H    0.5480783403   -0.4261077334    0.8106259806
 H   -0.9792697023   -0.4340616439   -0.0546425446
 H    2.4650578627    0.8140137422   -2.0220223867
 H    3.0026940418   -0.6591923972   -1.1211967786
 H    2.6903420110   -0.7382976314   -4.6790336532
 H    3.2132488825   -2.1932615628   -3.8047419693
 H    1.8605538058   -2.6977655421   -5.6385588299
 H    1.6829700335   -2.5552782982   -1.1130078990
 H    0.1114407171   -2.5677561887   -2.0097160574
 H   -0.5791943278   -0.6873664090   -3.1572687390
 H    0.4499622627    0.8003457835   -3.1608027641