21

 C    1.3379853445    1.2535281525   -0.5745449549
 C    0.8084348921   -0.1237745382   -0.2341795099
 O   -0.1376884586   -0.5855360118   -1.1602382274
 C    1.7046141032   -1.1800375090    0.4086999255
 C    3.1699731400   -0.9586018091    0.6973972474
 O    3.9626107986   -0.8857488866   -0.4865008793
 C    0.5422784984   -0.5520134913    1.1862574360
 C    0.7653608167    0.3750396790    2.3631385190
 O   -0.6001651784   -1.3491642121    1.3410344201
 H    2.0408056969    1.6392747120    0.1658972698
 H    1.8714977067    1.2203860101   -1.5312463102
 H    0.5078506930    1.9607054150   -0.6663886496
 H    0.3113308272   -0.6715204731   -2.0086826408
 H    1.4530517436   -2.1830471959    0.0674683310
 H    3.3374164601   -0.0074283342    1.2094239779
 H    3.5443011817   -1.7480613751    1.3684973038
 H    3.8564850158   -1.7188960010   -0.9567648727
 H    1.6305062863    1.0285668493    2.2409410684
 H   -0.1199442420    1.0007201080    2.5131608248
 H    0.9219135236   -0.2087534151    3.2790109380
 H   -0.4460255393   -1.9333942934    2.0918952830