19

 C    0.8264133186    0.4196676605    0.8254704585
 C   -0.3567617596    0.1861973387   -0.0889118284
 O   -1.4470284732    0.6637689816    0.1068903189
 C   -0.1063685718   -0.7395865901   -1.3142699031
 C   -1.3519048468   -0.9204578534   -2.1655237252
 O    0.9740785685   -0.1825707563   -2.0490936171
 C    1.8089256590   -1.2628751842   -2.4507830839
 C    1.6706232851   -2.2353460265   -1.2817194287
 O    0.3387692727   -2.0100003229   -0.8298483445
 H    1.1673946273   -0.5342385665    1.2399311264
 H    1.6573754213    0.8481173858    0.2586711756
 H    0.5341301292    1.0901568053    1.6338595861
 H   -1.7187677462    0.0493865876   -2.5059253913
 H   -1.1173134791   -1.5468396843   -3.0298622928
 H   -2.1387052601   -1.4011801840   -1.5812244336
 H    1.4544262563   -1.7084800860   -3.3906619446
 H    2.8214035720   -0.8802419477   -2.5957492146
 H    1.7717832569   -3.2855924727   -1.5693096835
 H    2.3941881698   -2.0120459049   -0.4857252142