18

 N   -0.0456957391    1.2081948583   -0.4149410826
 C    0.0453663674    0.0342809996    0.0479146780
 C   -1.0727057728   -0.9676646999   -0.0893136507
 C   -1.2350249860   -1.8076260530    1.1839742570
 C    0.0646751466   -2.5313135615    1.4788064752
 O    0.4112600873   -3.4954149249    0.4522104256
 C    1.6130969437   -2.7786861598    0.0982567272
 C    1.3349749286   -1.7024898341    1.1671631089
 O    1.1678363212   -0.3617240603    0.7346758027
 H    0.8133749665    1.7287364537   -0.2238736868
 H   -1.9764913606   -0.4148882975   -0.3460926930
 H   -0.8554001062   -1.6432752138   -0.9253781508
 H   -1.4943668496   -1.1695857070    2.0376059540
 H   -2.0395715797   -2.5401977762    1.0646694180
 H    0.0563228195   -3.0007889114    2.4692562148
 H    2.5151153195   -3.3809711786    0.2572990431
 H    1.5969420704   -2.4129545061   -0.9355163807
 H    2.0724762331   -1.6494628374    1.9680328401