15

 C   -0.0099017409    1.5113064123    0.0554677136
 C    0.0316842822    0.0230564587   -0.0064326755
 C    0.2464854434   -1.0020324755   -1.1580191916
 C    0.8009340698   -1.9923731675   -0.2008880782
 C    0.6018689902   -1.0011174680    0.9702139546
 C   -0.8830337137   -1.0198053433    0.6296346436
 C   -2.0373230880   -0.8889275802    1.4384754961
 N   -2.9741789953   -0.7561497507    2.1069871463
 N   -0.6721680748   -2.0107761547   -0.5169282355
 H    0.9579711561    1.9443689798   -0.2196706491
 H   -0.7695997828    1.9158700264   -0.6216420894
 H   -0.2525372056    1.8455906321    1.0692815360
 H    0.3274420437   -0.9016189950   -2.2332852482
 H    1.4302995916   -2.8623355275   -0.3372656229
 H    1.0798602439   -0.8541657768    1.9280869600