16

 C   -0.0198473377    1.5455698377    0.0610492133
 C    0.0084134872    0.0333885939   -0.0085963904
 N   -1.2215989544   -0.5155291934   -0.5255074460
 C    1.3433194834   -0.6554625155   -0.2415249160
 C    0.6768212676   -0.7095840038    1.1344156770
 O    1.1904791223    0.0639585778    2.1749421563
 C    0.1162109870   -1.9787005625    1.5506747286
 N   -0.3193380367   -3.0013670878    1.8729237565
 H    0.8831199305    1.9444911428    0.5236102989
 H   -0.1040588452    1.9581278149   -0.9507321189
 H   -0.8887979960    1.8757436948    0.6356265520
 H   -1.2835152285   -0.3454835850   -1.5252126212
 H   -1.2791402015   -1.5192164688   -0.3853576404
 H    1.3620236330   -1.5685510977   -0.8264075002
 H    2.2404841079   -0.0470732658   -0.2926633673
 H    1.9930811410   -0.3606917415    2.5001015479