21

 C   -0.4843435072    1.3643063077   -0.4189369089
 C   -0.2033510508   -0.1389705845   -0.3005918538
 C   -1.4874758747   -0.9754924507   -0.3678838493
 N    0.7904021539   -0.5874123712   -1.2920691392
 C    0.5351793877   -0.3211878219   -2.6980554316
 C    1.9671751680   -1.1359945579   -0.8388447278
 C    3.0012832960   -1.5198337194   -1.8898219606
 O    2.1899939358   -1.3206136311    0.3478762911
 H    0.4413520813    1.9426460178   -0.3443420514
 H   -0.9737694898    1.6200060652   -1.3652641209
 H   -1.1492988250    1.6831636645    0.3894592063
 H    0.2779111153   -0.3290850519    0.6598155415
 H   -2.0226897834   -0.8406467083   -1.3147069886
 H   -1.2626994637   -2.0389157001   -0.2488073614
 H   -2.1697100051   -0.6787387285    0.4350177241
 H    0.9332146767    0.6483537494   -3.0282724213
 H    0.9641089822   -1.0990648159   -3.3311318172
 H   -0.5422386482   -0.3173059704   -2.8791861357
 H    3.2524878036   -0.6847079445   -2.5506974098
 H    3.8961709484   -1.8442735079   -1.3601978215
 H    2.6468272191   -2.3436852104   -2.5185186636