17

 C    0.0148345497    1.4575374251   -0.1667743458
 C   -0.0224843836   -0.0248869665    0.0053178634
 O    0.5205691844   -0.8934489419   -1.0631075768
 C    0.0411509678   -1.8493846169   -0.0551359722
 C    0.5709663460   -0.9601142652    1.0963497824
 O   -0.2779164240   -1.0194181554    2.2216147741
 C   -1.5976560960   -1.0580535173    1.6376089841
 C   -1.2548957013   -0.9993327486    0.1610017421
 O   -2.2974492361   -0.9980272055   -0.7359501465
 H    1.0314687830    1.7975920348   -0.3856965585
 H   -0.6420239336    1.7720838900   -0.9843840058
 H   -0.3223833208    1.9465414394    0.7526368663
 H    0.1651110315   -2.9131984708   -0.2548273421
 H    1.6239087421   -0.9353896290    1.3653769285
 H   -2.1132904525   -1.9813196070    1.9248942845
 H   -2.1892170476   -0.1995569826    1.9753988687
 H   -1.8934429991   -0.9726758227   -1.6150134863