16

 N   -0.0794552848    1.2954773243   -0.0981995499
 C   -0.0528835122    0.0332432089   -0.0647254605
 O    1.0875511188   -0.7305034067    0.0976917191
 C    0.7597709981   -2.1371105763    0.2442718717
 C   -0.6005547351   -2.2689824342   -0.4603070885
 O   -1.5408483786   -3.1887901477    0.0590314101
 C   -2.7860955405   -2.4931985023    0.2397560724
 C   -2.4241749868   -1.0237402096    0.2437645033
 C   -1.1671725670   -0.9107974252   -0.1683639124
 H    0.8592300686    1.6757212232    0.0370647418
 H    1.5756152250   -2.7061709288   -0.2036053050
 H    0.6636931266   -2.3916830956    1.3059850496
 H   -0.4461834263   -2.4422975384   -1.5382101849
 H   -3.4927420696   -2.7554103152   -0.5650323234
 H   -3.2347085470   -2.8129595344    1.1884864716
 H   -3.0744640192   -0.2392995120    0.6068700950