14

 C   -0.1711080406    1.2865341528   -0.3409194936
 C    1.2504734878    1.0151969754    0.0114465212
 N    0.2533129664   -0.0460107687    0.0941771293
 C   -0.1428491463   -0.5054410038    1.3555168013
 C    0.6007665661   -0.7869176349    2.4625899082
 O   -0.1827959559   -1.2993804643    3.4315586201
 N   -1.4892958059   -1.3614878252    2.9736479533
 C   -1.4571053381   -0.8978663321    1.7498897786
 H   -0.7503521856    1.8845522740    0.3585071197
 H   -0.4763283001    1.3584116899   -1.3800563342
 H    1.9976299233    0.8937259294   -0.7665508938
 H    1.6167436110    1.4373849184    0.9447741564
 H    1.6496231070   -0.6985578232    2.6942877202
 H   -2.3693394790   -0.8516038776    1.1722018531