19

 C   -0.1598021233    1.5919491110   -0.0635155642
 C    0.0237332437    0.0934828942    0.0623366256
 C    1.3341469845   -0.6373275065   -0.1752656549
 O    1.3470322713   -1.8709234093   -0.8338030356
 C    2.6374652799    0.1343962958   -0.0666887177
 O    2.5575170773    0.8545587524    1.1616682505
 C    1.6994788873    0.1583875374    2.0699849782
 C    0.7290364061   -0.6219816285    1.2044027053
 O    0.1775404801   -1.7779602191    1.7425275657
 H    0.7066263182    2.1366182766    0.3161181250
 H   -0.3134232644    1.8820409170   -1.1091325015
 H   -1.0404964755    1.9171071830    0.5004280433
 H   -0.8265833052   -0.4965182031   -0.2760947073
 H    0.9734919309   -1.7613306109   -1.7138741700
 H    3.4685881249   -0.5880517695   -0.0694379242
 H    2.8126193345    0.8709669365   -0.8586025480
 H    2.2555708824   -0.5551341925    2.6963876166
 H    1.2417803652    0.9120035277    2.7183697704
 H    0.3778356722   -2.4912288923    1.1199302429