21

 C   -0.1470664946    1.5309629956   -0.0138024917
 C   -0.0188336925    0.0223570720    0.0686867952
 O   -1.3332331778   -0.5349795902   -0.1105813397
 C   -1.4040595673   -1.8663512961   -0.0705703538
 N   -0.4350033814   -2.6783701483    0.1141076550
 C   -1.0286982683   -4.0269483619    0.0614380488
 C   -0.4860317876   -4.9360266456    1.1585939431
 C   -2.5696218463   -3.7959295325    0.1378882200
 N   -2.6702043298   -2.3964425769   -0.2908970832
 H    0.8353212699    1.9939149150    0.1182516498
 H   -0.5446537867    1.8363646073   -0.9858421816
 H   -0.8143305928    1.9103349672    0.7655158449
 H    0.6428528459   -0.3783853279   -0.7057603316
 H    0.3757618084   -0.3059093462    1.0358967161
 H   -0.7817758214   -4.4715857194   -0.9142670254
 H   -0.6987122676   -4.5146899500    2.1467411615
 H   -0.9376124413   -5.9328625714    1.1026196240
 H    0.5978541538   -5.0433380040    1.0632417891
 H   -3.1364773193   -4.4605343136   -0.5193910609
 H   -2.9341916423   -3.9334221099    1.1671741950
 H   -3.4484061708   -1.8438204829    0.0404602453