19

 C   -0.0277994853    1.5664845509   -0.0083974019
 C   -0.0008190943    0.0455581346   -0.1191494122
 N   -1.3379875398   -0.5083400813    0.0778147785
 C   -1.4023030039   -1.9597236329    0.0531874153
 C   -2.7620034716   -2.4271689754    0.6184448047
 N   -2.8913708329   -1.9634412536    2.0002217716
 C   -1.2336590398   -2.4673743831   -1.3198680278
 N   -1.1007787320   -2.8877083833   -2.3878786371
 H    0.9682329482    1.9842423543   -0.1807981322
 H   -0.7179628651    1.9932529603   -0.7413773334
 H   -0.3541669639    1.8836378927    0.9888187285
 H    0.3442210502   -0.2465420005   -1.1184235508
 H    0.7329024636   -0.3696233123    0.5980666338
 H   -1.7108602499   -0.2280519273    0.9819327179
 H   -0.6018237738   -2.4336875827    0.6580281181
 H   -3.5501679480   -1.9601717014    0.0211281985
 H   -2.8444368937   -3.5158445080    0.4918441134
 H   -3.8635924951   -1.9730567881    2.2865204225
 H   -2.3936298429   -2.5818079827    2.6332385427