17

 N    0.1240449218   -1.1974500749   -0.0878696839
 C    0.0195210246   -0.0488031419   -0.0155828455
 C   -0.0616741380    1.4089608923    0.0809306170
 C    1.3155861046    2.0477864721   -0.0670635291
 C    2.3389329107    1.8580606445    1.0792320529
 O    2.5967211707    3.2814666954    1.1405542667
 C    1.6622681111    3.5554881640    0.0860273818
 C    2.3039893555    3.4794406335   -1.3169664600
 N    1.8491400119    2.0643032946   -1.4383810627
 H   -0.7224371130    1.7801838831   -0.7084272817
 H   -0.5048627875    1.6742267818    1.0474164759
 H    1.9226182229    1.4886042179    2.0251348698
 H    3.2316352564    1.2731733723    0.8272216294
 H    0.9706356108    4.3654546130    0.3265763276
 H    1.8656538397    4.1233043096   -2.0873901256
 H    3.3864219045    3.6406906327   -1.2819753026
 H    2.5632423631    1.3739661200   -1.6454579500