16

 N    0.0816107400    1.0045675983   -0.8289037733
 C    0.0383236239   -0.0161698050   -0.0929825111
 C   -1.2279435789   -0.7355572303    0.3447157258
 C   -0.7315574491   -1.9872951919    1.0594847788
 C    0.1764032097   -2.9052870039    0.2332764747
 C    0.7808674176   -1.8363443010    1.0842140371
 O    1.1448587250   -0.6395411646    0.4382167797
 C   -1.4702226271   -2.5209319657    2.1616076178
 C   -2.1008252101   -2.9650038591    3.0846338560
 H    1.0465188676    1.3017451812   -0.9815646284
 H   -1.7927189423   -0.0983384441    1.0308427446
 H   -1.8675921872   -0.9408765827   -0.5164402854
 H    0.2624030838   -3.9296816153    0.5754328599
 H    0.1927206751   -2.7680809349   -0.8433453668
 H    1.3893011087   -2.0523481980    1.9524890037
 H   -2.6569826567   -3.3573085729    3.8996703969