17

 C   -0.0406717981    1.4274870564    0.1394266420
 N   -0.0237975518   -0.0229535575    0.1701753697
 C   -1.0773968679   -0.6708746387   -0.0348173188
 O   -2.3224555198   -0.1447789333   -0.3014576949
 C   -3.2456956475   -1.2019895041   -0.4740376751
 O   -2.5499680789   -2.4216731107   -0.3061416590
 C   -1.2256209996   -2.1534206189   -0.0374582530
 N   -0.3213258078   -2.9978116635    0.1653977275
 C   -0.6249601893   -4.4160894980    0.1294353568
 H    0.6868014615    1.7710945885   -0.6044198239
 H   -1.0173825581    1.8694730365   -0.0873626174
 H    0.3022254942    1.8032900521    1.1100731067
 H   -4.0393227861   -1.1242032900    0.2790380702
 H   -3.6722661202   -1.1573215985   -1.4835575524
 H   -1.6715182203   -4.6550222957   -0.0905050511
 H    0.0141952072   -4.8928188603   -0.6221621781
 H   -0.3553394874   -4.8574115443    1.0955645806