13

 C    0.0045164498   -1.2081944474   -0.0036539122
 C    0.0070619530   -0.0040398797    0.0026612214
 C    0.0021709695    1.4184335989    0.0104580312
 C   -1.2079582337    2.1344015217    0.0302665549
 N   -1.2870389311    3.4621027655    0.0385021976
 C   -0.1404845453    4.1491700087    0.0271417055
 C    1.1153646346    3.5471692269    0.0073547612
 C    1.1902626153    2.1619738412   -0.0011389755
 H    0.0022426474   -2.2700659535   -0.0091277614
 H   -2.1476513843    1.5883849792    0.0396620315
 H   -0.2312993332    5.2325683853    0.0342091349
 H    2.0138430122    4.1539272590   -0.0011787767
 H    2.1458570958    1.6501058043   -0.0164859423