15

 C    0.1108373155    1.4610473805    0.0030679769
 C   -0.0743775896   -0.0103230359   -0.0010183939
 C   -1.1350208160   -0.8336302295   -0.1377786887
 C   -0.6353657863   -2.1905442071   -0.0592151260
 C   -1.3310181814   -3.4103437867   -0.1632076983
 N   -1.8739957179   -4.4325595183   -0.2507078496
 C    0.7231301397   -2.0677939458    0.1327295454
 N    1.7098320760   -2.9882712776    0.3519616580
 O    1.0788284831   -0.7736389806    0.1688341109
 H    0.7778297117    1.7881881479   -0.8031253062
 H   -0.8557450730    1.9503314931   -0.1350447344
 H    0.5408206388    1.8129421983    0.9479614528
 H   -2.1622981013   -0.5418967874   -0.2851645593
 H    1.4696695279   -3.9326235819    0.0874554459
 H    2.6343738929   -2.7071111190    0.0590855567