17

 C    0.8350464357    1.5273203634   -0.1110163918
 C   -0.0451465888    0.2840333255   -0.0670838744
 C    0.1890998081   -0.7460817794   -1.2032435921
 C    0.9220447638   -1.6381004837   -0.1331975074
 N    0.3450081942   -0.7607345807    0.9214449135
 C    0.5298117828   -3.0413040125   -0.0539460174
 C    0.1889742392   -4.1917381946   -0.0091969113
 C    2.3901313034   -1.5381084924   -0.2447972374
 N    3.5386448013   -1.4173554567   -0.3057801169
 H    1.8866346933    1.2720410374   -0.2757640896
 H    0.5139082694    2.1954190433   -0.9175266276
 H    0.7607335307    2.0843944121    0.8294868826
 H   -1.0919607556    0.5785283542    0.0624804222
 H   -0.7177458995   -1.2311514307   -1.5620366599
 H    0.8027405549   -0.4259540950   -2.0446369162
 H    0.9972445291   -0.4777308878    1.6461368580
 H   -0.1090550722   -5.2103005824    0.0402350059