23

 C    0.0495093735    1.4821626256   -0.2845092253
 C    0.0177259621   -0.0424969793   -0.1337622660
 C   -1.3910555521   -0.5799510527    0.0982362846
 C   -2.3818302021   -0.5290688293   -1.1039178596
 C   -2.6769445327   -2.0458797276   -0.9426294991
 C   -2.1035321818   -2.9483180690   -2.0364183171
 O   -0.6967818120   -2.9694110370   -1.8129753358
 C   -0.5274315124   -3.0370030852   -0.3997274356
 C   -1.6043283305   -2.1265182303    0.2006129048
 H    1.0661543727    1.8436158041   -0.4674233557
 H   -0.5747613944    1.8108239897   -1.1225003665
 H   -0.3239184375    1.9775965260    0.6188758597
 H    0.4369136517   -0.5095129195   -1.0335222021
 H    0.6652819172   -0.3395309016    0.7023722592
 H   -1.8192130140   -0.0861532791    0.9779632307
 H   -3.2438418664    0.1300627756   -0.9773675610
 H   -1.8996384426   -0.2846733162   -2.0561952563
 H   -3.7051144948   -2.2986256607   -0.6790904457
 H   -2.5204125822   -3.9665728863   -1.9577437083
 H   -2.2740298573   -2.5798311964   -3.0524032732
 H   -0.6746168664   -4.0710710148   -0.0461606057
 H    0.5000143895   -2.7407294218   -0.1741755412
 H   -1.9342409975   -2.4803085141    1.1793368751