16

 C   -0.0197591015    1.5213644084    0.0233214401
 C    0.0008482034    0.0187508994   -0.0084014428
 C   -0.0194361508   -0.6737784318   -1.1760623449
 C   -0.0000574691   -2.1131431798   -1.2139903279
 N   -0.0168628460   -2.8313880583   -2.2596907058
 O    0.0416891317   -2.7462736752    0.0581165660
 C    0.0610980017   -2.0391689509    1.1986701286
 O    0.1001390028   -2.8230132571    2.2826933666
 C    0.0431284985   -0.6912456716    1.2415383271
 H    0.8675943393    1.9094544077    0.5368901868
 H   -0.0505005897    1.9453220150   -0.9823858522
 H   -0.8916076137    1.8843510911    0.5800164925
 H   -0.0512033548   -0.1809701663   -2.1387623332
 H    0.0031350822   -3.8235354480   -2.0280830119
 H    0.1055424215   -3.7421056417    1.9852335365
 H    0.0605995645   -0.1853605709    2.1960165047