22

 C   -0.1141777686    1.2380114372   -0.2654361319
 C   -0.0853601326   -0.2278450219    0.0905142799
 N    1.2222682053   -0.9132976261   -0.0347268342
 C    0.6226513751   -0.7512885872    1.2854756330
 C    1.2383751978    0.0301631453    2.4511016864
 C    0.4039144445   -0.8604963421    3.4189769997
 C    0.1249856071   -1.8471829812    2.2444085683
 C   -1.2784186407   -2.4009452767    2.0703040106
 O   -1.4317065174   -3.1098110960    0.8424712257
 H    0.8004975204    1.7368771791    0.0655578449
 H   -0.1937538577    1.3716430568   -1.3497111632
 H   -0.9715496308    1.7387975571    0.1985975989
 H   -0.9539701955   -0.8010134880   -0.2266526999
 H    1.0739196683   -1.8668086965   -0.3596372051
 H    2.3144449006   -0.1474827815    2.5363906894
 H    1.0581429466    1.1071876307    2.4877194825
 H    0.9173992670   -1.2656556216    4.2927711868
 H   -0.5112957234   -0.3616656596    3.7517664661
 H    0.8435835562   -2.6796601816    2.2693471077
 H   -1.5526229149   -3.0319824755    2.9306913971
 H   -2.0018808764   -1.5797712635    2.0263427358
 H   -0.8819788310   -3.8987262970    0.8884845317