20

 C    0.1213614169    1.4953428824   -0.2750140093
 C    0.0322260658   -0.0271551647   -0.1137036878
 C   -1.4375002249   -0.4743827128   -0.0552220135
 C    0.8111466938   -0.7535496050   -1.2577167027
 N    2.1830709160   -0.3074904811   -1.4025190546
 C    2.5643549349    0.5387728736   -2.3988403834
 O    1.8061055405    1.1520627779   -3.1208540460
 C    0.8261143509   -2.2554271294   -1.0253354771
 O    1.8302761390   -2.8798257283   -0.7845466496
 H    1.1561456568    1.8421346226   -0.2482962463
 H   -0.3127498864    1.8166612430   -1.2265836598
 H   -0.4227671304    1.9875847143    0.5375001197
 H    0.5198447218   -0.3019544688    0.8319270003
 H   -1.9394448393   -0.2984548175   -1.0138861927
 H   -1.5551569767   -1.5316397937    0.1983340933
 H   -1.9729483386    0.1020460275    0.7049703161
 H    0.2853812831   -0.5475302382   -2.1999774105
 H    2.8768464606   -0.9290362453   -1.0080588494
 H    3.6661936280    0.6237689304   -2.4678543386
 H   -0.1597773920   -2.7576384468   -1.0695081879