15

 C   -0.0264117467    1.3867614496    0.0084209051
 O    0.0346619661   -0.0373021614    0.0024306481
 C   -1.1472192788   -0.6671225376    0.0092761154
 N   -1.1773416906   -1.9351501756    0.0054784169
 C   -2.4110135878   -2.5655844796    0.0130141874
 C   -2.6249792290   -3.9283411167    0.0098902677
 N   -3.9729645954   -4.0435184840    0.0201024175
 N   -4.5762241038   -2.8404285540    0.0291345270
 N   -3.6342158694   -1.9442425999    0.0249682518
 H    1.0061829087    1.7364615936   -0.0000789107
 H   -0.5441880472    1.7668155353   -0.8797031731
 H   -0.5271542329    1.7599760910    0.9091256220
 H   -2.0321087903   -0.0218352148    0.0183421472
 H   -1.9523533004   -4.7678026797    0.0015804146
 H   -4.5389108524   -4.8764778562    0.0216153331