19

 C   -0.0177303699    1.4935984696    0.0407225152
 C    0.0069851907   -0.0002226374   -0.0288376722
 C   -0.1161203890   -0.7658652744   -1.1152919651
 C   -0.0803268659   -2.2420280903   -0.8131250082
 O    0.7380625362   -3.0039521186   -1.6845037747
 C    0.3951357986   -2.2754793899    0.6835013667
 C    0.1267702031   -0.8413663976    1.2242469875
 C   -0.1909785228   -3.3417790466    1.4785592141
 C   -0.6975297364   -4.2149156776    2.1320122873
 H    0.8998707927    1.8809698219    0.5015139303
 H   -0.1217183028    1.9440385604   -0.9497752759
 H   -0.8491388100    1.8450886023    0.6648243153
 H   -0.2620935505   -0.4031360204   -2.1275970277
 H   -1.0724863257   -2.6990597925   -0.9052015737
 H    1.5876580753   -2.5529646417   -1.7495175724
 H    1.4818805447   -2.4255631476    0.6415247436
 H    0.9174566848   -0.4944123349    1.8995023724
 H   -0.8068941364   -0.8126645006    1.8001447387
 H   -1.1366375166   -4.9924326440    2.7062095187