22

 C   -0.0263068085    1.5799491235    0.0445047759
 C    0.0097207343    0.0520685869   -0.0223541610
 C    0.7527525865   -0.4655098999   -1.2585414673
 C    0.7465308835   -1.9905115568   -1.2950194419
 C    1.5901298069   -2.5804557096   -2.4140647528
 O    1.2501219113   -2.5668042725   -0.0687497206
 C    0.8645178995   -2.0515905032    1.1378678209
 N    0.7682619219   -2.7836287015    2.1671865802
 C    0.6763321724   -0.5553982791    1.2203152979
 H    0.9879183527    1.9944455190    0.0843589957
 H   -0.5259353783    2.0024108427   -0.8335220053
 H   -0.5618472276    1.9249274313    0.9350015847
 H   -1.0256863974   -0.3158228337   -0.0719805167
 H    0.2895750011   -0.0909573514   -2.1788716863
 H    1.7902163349   -0.1034948997   -1.2476386930
 H   -0.2943162999   -2.3321690449   -1.4068602685
 H    2.6315262487   -2.2576832551   -2.3196421543
 H    1.5643289576   -3.6725437978   -2.3771315393
 H    1.2108365878   -2.2557759889   -3.3875538099
 H    0.9660698796   -3.7552951997    1.9159894698
 H    1.6749187199   -0.1076456724    1.3317677744
 H    0.1238513831   -0.3365256072    2.1359198873