21

 C    0.1608215074    1.7039940147    0.0358346230
 C    0.0294722962    0.1694127486   -0.0065381598
 C    0.6343191068   -0.4663384410   -1.2184656270
 C    0.0873430788   -0.8630201664   -2.4196256055
 C   -1.3376785854   -0.7902404318   -2.8671727277
 N    1.0635081574   -1.3778821726   -3.2472598517
 C    2.1781310815   -1.2941688006   -2.5630762609
 N    1.9906342309   -0.7491618934   -1.3273020215
 C    3.0122538498   -0.5580329838   -0.3204138499
 H    1.2093239834    2.0187479151    0.0322063811
 H   -0.3208258983    2.1562463590   -0.8359503433
 H   -0.3080434312    2.1111431220    0.9375802592
 H    0.4685002240   -0.2573800247    0.9047654304
 H   -1.0320843736   -0.0970545263    0.0242278575
 H   -2.0003651287   -0.4757223113   -2.0559862305
 H   -1.4603824840   -0.0802542982   -3.6933003729
 H   -1.6804889857   -1.7647946729   -3.2301424215
 H    3.1558877992   -1.6123378998   -2.8967731209
 H    3.1316775514    0.4995050943   -0.0644517275
 H    2.7773729289   -1.1127368263    0.5938894671
 H    3.9624626911   -0.9275512247   -0.7109619176