18

 N    0.0076740174    1.4895197256   -0.0228553023
 C   -0.0661883311    0.0301695565    0.0298491138
 C    0.7986837612   -0.4762595289    1.2060780397
 N    0.2909549978    0.0841822044    2.4480501472
 C    1.2026607422   -0.0694784707    3.5843289822
 C    0.7247976015    0.6679431910    4.7475522197
 C    0.3404795853    1.2948039274    5.6972305621
 C    0.7780601207   -1.9482822647    1.2501427258
 N    0.7773750424   -3.1035251587    1.2671361535
 H    0.8418429526    1.7912573017   -0.5161399577
 H   -0.7857158001    1.8678692928   -0.5268935190
 H   -1.1016162472   -0.2594322967    0.2289923113
 H    0.2544310144   -0.4786964986   -0.8898969669
 H    1.8507375492   -0.1872941950    1.0051880889
 H    0.1119621727    1.0687891866    2.2676725983
 H    1.2739063428   -1.1370906160    3.8302629749
 H    2.2329564830    0.2606905561    3.3492733304
 H   -0.0017902447    1.8383109073    6.5428290780