14

 O   -0.2854397021    0.4041879615   -0.8616498296
 C    0.2327787944    0.8441895133    0.1364298684
 C    1.3660650701    1.8130420238    0.0979629754
 C    2.3319026572    1.6767657947   -1.1086197923
 C    1.3797420196    2.7907417469   -1.1066632473
 C    1.9791851710    2.3348561820    1.3411493210
 O    2.8991597076    3.1207036210    1.3705513877
 C    1.4114765347    1.8479748953    2.6173386163
 N    0.9783111472    1.4764404078    3.6230349349
 H   -0.1148111145    0.5439919414    1.1447829717
 H    3.3698450047    1.8822187805   -0.8755757912
 H    2.1205769447    0.8180899364   -1.7347368432
 H    0.4974575658    2.7166518810   -1.7312384320
 H    1.7447111897    3.7835786145   -0.8723770798