21

 C   -0.0998975866    1.5830790729    0.0961007047
 C    0.0479204285    0.0717819723   -0.0028322827
 C    1.2024331992   -0.6021564377   -0.7940121313
 C    2.1794009553   -0.2044265479    0.3758983310
 C    0.8840099759   -0.7479658164    1.0482691809
 C    0.2951709838   -1.3528995245    2.2920950745
 O   -0.6305151858   -2.3239292056    1.7608775878
 C   -0.3444645691   -2.6655845250    0.3768157224
 C    0.9357952105   -1.9116760199    0.0328422736
 H    0.8348709720    2.1084503311    0.3058590920
 H   -0.5005416781    1.9871525496   -0.8404558167
 H   -0.8099224947    1.8433231832    0.8891795568
 H   -0.9323785950   -0.3610214304   -0.2134681677
 H    1.4109761491   -0.5229251262   -1.8628927612
 H    3.0742785508   -0.8225962532    0.4853659383
 H    2.4205147651    0.8516245058    0.4948216041
 H    1.0588676366   -1.8431332170    2.9143966442
 H   -0.2792391739   -0.6630434727    2.9192512568
 H   -0.2004680463   -3.7497418050    0.3131899878
 H   -1.2192824191   -2.4076536944   -0.2300960358
 H    1.8177373916   -2.5521562791    0.1271591207