19

 C   -0.1034383089    1.6048124336   -0.0573714456
 C    1.4371411492    1.5816463994    0.0089058352
 C    2.1152965512    2.0663627604    1.2952774658
 O    2.0093708147    1.2361462462    2.4339874238
 C    0.7578925909    0.8067361489    2.8972799429
 O    0.4067369100   -0.4711033600    2.4400632348
 C   -0.4191137338   -0.6335501822    1.3048440942
 C    0.0172384310    0.0690327586    0.0142766021
 O    1.4522009141    0.1442092140   -0.1450655288
 H   -0.6407677993    2.1120612874    0.7450355173
 H   -0.4868871754    1.9613573659   -1.0145815154
 H    1.9320180531    2.0806266667   -0.8344608192
 H    3.1935481610    2.1446575990    1.1240784963
 H    1.7422029135    3.0841328690    1.5056928168
 H    0.8777479237    0.6980689963    3.9794840123
 H   -0.0313151867    1.5468575681    2.6931115899
 H   -0.4296998525   -1.7152294461    1.1377398465
 H   -1.4576872795   -0.3247344292    1.5177491381
 H   -0.4524668761   -0.4595452662   -0.8254472970