21

 C    0.7138785777    1.5045791312   -0.0249929228
 C    0.0167958380    0.1462085669   -0.0071520537
 C    0.5875068744   -0.9226497432   -0.9868348594
 C    1.2335898461   -1.6876632273    0.2154905290
 O    0.9092103551   -3.0548228113    0.3328749320
 C    2.7431596805   -1.5255756198    0.3488912845
 O    3.3272407916   -2.3569635600   -0.6530275742
 C    0.3963356153   -0.8003544166    1.1787597167
 O    0.9816303756   -0.2757486030    2.3480617944
 H    1.8073297074    1.4197340260   -0.0001139908
 H    0.4634745795    2.0509162437   -0.9398971791
 H    0.4034976270    2.1213741144    0.8257307068
 H   -1.0609495311    0.3068345615   -0.0961011083
 H   -0.1850992160   -1.5316417762   -1.4591257826
 H    1.2753202764   -0.5593165720   -1.7549244262
 H    1.5761678983   -3.5290250219   -0.1814014079
 H    3.0512938439   -0.4785791634    0.2125493447
 H    3.0407002179   -1.8451747264    1.3563159239
 H    4.2520690497   -2.4981991604   -0.4334421311
 H   -0.4649717585   -1.3866529296    1.5094243726
 H    1.6028961213    0.4144105474    2.0955905413