20

 C   -0.2114961102    1.5808914961    0.1152318563
 C   -0.1053220221    0.0721990824    0.0344326483
 C   -0.8435671060   -0.7680458325    1.0254315791
 N    0.6002426472   -0.5566007258    1.1595048297
 C    1.4905684780   -1.6778086997    0.8783278601
 C    1.2138165067   -2.5622215896   -0.3444654815
 O    1.7162114488   -3.6571153594   -0.4393167826
 C    0.3068549171   -1.9905990742   -1.4274610433
 C    0.1628657088   -0.4662345898   -1.3644227475
 H    0.6923698827    2.0571328412   -0.2816628914
 H   -1.0657530187    1.9447001564   -0.4669088935
 H   -0.3338120243    1.9018094869    1.1522803623
 H   -1.4528122329   -0.2925208096    1.7901492632
 H   -1.2035711423   -1.7490529588    0.7238124042
 H    2.5043196237   -1.2753770107    0.7395197928
 H    1.5425906183   -2.3295593463    1.7565042155
 H    0.6900531077   -2.3226085502   -2.3969379969
 H   -0.6711021814   -2.4756959570   -1.3123447609
 H   -0.6309923433   -0.1363594421   -2.0443996408
 H    1.0858488823    0.0027462427   -1.7331122832