18

 C   -0.2734614313    1.6128993585    0.2543757081
 C   -0.0924973734    0.1090363280    0.1444389359
 C   -1.3755425854   -0.6203266061   -0.2786633931
 O   -1.7191865952   -0.2676734029   -1.6021198914
 O    0.9632415788   -0.2470522392   -0.8220416527
 C    1.7331664529   -0.9626289652    0.1758973851
 C    0.7161797147   -0.5832387650    1.2193608050
 N    0.5321772414   -0.7133733011    2.4612114199
 O    1.5748567061   -1.4480309564    3.0502348247
 H    0.6876897418    2.1099602310    0.4037715314
 H   -0.7371099257    1.9915736211   -0.6601921256
 H   -0.9249731204    1.8477672801    1.1018339598
 H   -1.2292646522   -1.7059659129   -0.1733382608
 H   -2.2098228872   -0.3281146050    0.3668163542
 H   -0.9314929271   -0.4468012509   -2.1318937931
 H    1.8178488301   -2.0352951244   -0.0381081904
 H    2.7373723972   -0.5440420937    0.3131750863
 H    1.3171692351   -1.4640432258    3.9785706468