17

 O   -0.0808855341   -0.0342385480   -0.1004479595
 C   -0.0081302728    1.1762661976   -0.0646628200
 N    1.1464112315    1.8986399842   -0.0484313814
 C    2.4483053905    1.2438260580   -0.0655722481
 C    3.3051829557    1.7937479139    1.0754905528
 O    3.3752617150    3.2115237433    1.0296567335
 C    2.0928737573    3.8000670865    1.1473047045
 C    1.1773118176    3.3497585184    0.0043459911
 H   -0.8997698980    1.8342729464   -0.0373650666
 H    2.2811211888    0.1697722087    0.0325566871
 H    2.9470895100    1.4387885116   -1.0251099056
 H    2.8878362691    1.4665418263    2.0415948192
 H    4.3325899764    1.4285148358    0.9971687776
 H    1.6341435658    3.5294127062    2.1129139786
 H    2.2394014781    4.8834824168    1.1203042428
 H    1.5615345049    3.7540399255   -0.9432359767
 H    0.1604945142    3.7275974188    0.1503772307