16

 O    0.2296442192    0.0554048201    0.0393631409
 C    0.1111257161    1.2517787459    0.0022682484
 N   -0.9701713218    2.0955240810   -0.0216447703
 C   -0.2051353738    3.3432555499    0.0970805535
 C    1.0805301686    2.4798884275    0.0002666932
 O    1.9190826092    2.6150914338    1.1104150619
 C    3.0052339560    1.6875326152    1.0875870652
 C    3.8546939363    1.9075771431    2.2481909610
 C    4.5732186364    2.0667615439    3.1968152803
 H   -1.9592172489    1.9088799452    0.0552289419
 H   -0.3702652112    4.0559329790   -0.7154079951
 H   -0.2975553544    3.8396120784    1.0668681811
 H    1.6312201921    2.5900095065   -0.9459048144
 H    2.6230335359    0.6579469699    1.0812154726
 H    3.5917437719    1.8225076917    0.1633580750
 H    5.2053591285    2.2086456588    4.0383023147