18

 C    0.0054333735   -1.1724128976    0.2307379641
 C   -0.0226345848    0.0153470854    0.0509259999
 C   -0.0411200257    1.4567392228   -0.1668310886
 C    1.3444250517    2.1038629492   -0.0511729320
 C    1.5038964305    3.6126505878    0.0218540002
 C    1.4133577571    3.9803528335    1.5207418970
 C    1.2063360860    2.6717081992    2.2617284511
 N    2.1196525065    1.9918716401    1.2593142693
 C    2.6691581143    3.4037738000    0.9391981515
 H    0.0311455183   -2.2209840812    0.3945313654
 H   -0.4177448906    1.6725198787   -1.1759938297
 H   -0.7497429461    1.9312544489    0.5204347132
 H    1.9965899819    1.6823137487   -0.8219697768
 H    1.3839191261    4.3649514081   -0.7485001399
 H    1.2265818241    5.0009040083    1.8317833513
 H    1.7038884279    2.6664963197    3.2348254868
 H    0.2088883585    2.2346694310    2.3668420716
 H    3.7107844011    3.6890314673    0.9226438256