19

 C   -0.0512149446    1.5096180912   -0.0017661408
 C   -0.0342214375   -0.0085607253    0.0014026030
 C   -0.8152420588   -0.7173677517    1.0965706099
 C    0.6880725112   -0.7324452770    1.1391421999
 C    1.4285302090   -1.9990937168    0.8265614384
 O    0.6599151477   -3.1532048106    0.4956189564
 C    1.4375262600   -2.5249967561   -0.5546716700
 C    0.7111876293   -1.7746998021   -1.6003959886
 C    0.0524620814   -0.6398657194   -1.3354310711
 H    0.8511309906    1.9186484944   -0.4694871014
 H   -0.9168780293    1.8905864354   -0.5565304912
 H   -0.1102967889    1.9059495779    1.0163659719
 H   -1.3389216911   -0.0935330342    1.8131366858
 H   -1.2986558372   -1.6539359116    0.8477542276
 H    1.1743552407   -0.0977266613    1.8727210240
 H    2.2911595260   -2.2028619038    1.4600719506
 H    2.2746715384   -3.1377177161   -0.8851579795
 H    0.7425233111   -2.1639741694   -2.6135066015
 H   -0.4409267380   -0.1089548735   -2.1472667833