21

 C   -0.0302873677    1.5265808499    0.1731956599
 C    1.5025854879    1.5264761399   -0.1397791817
 C    1.3146322340    0.1422545660   -0.7683802497
 C    2.1629858908   -1.1221095940   -0.8158105378
 C    1.2345681333   -2.0012520616   -1.7236404652
 C    0.1506009563   -0.9750155802   -2.1745286100
 C   -0.9168598596   -0.7531470055   -1.0703066328
 C   -0.0417377555   -0.0235170581   -0.0262263230
 O    0.8703004002    0.2629050138   -2.1339759470
 H   -0.3321043784    1.8969634020    1.1552139508
 H   -0.6045569975    2.0462152587   -0.5961165144
 H    1.8992130042    2.3053990240   -0.7941529987
 H    2.1045623026    1.4798046702    0.7718534032
 H    3.1344265964   -0.9474843767   -1.2867848455
 H    2.3309823562   -1.5570772954    0.1730595793
 H    1.7775637836   -2.3895548520   -2.5878898684
 H    0.8035753738   -2.8525103653   -1.1895981041
 H   -0.2438238454   -1.1432319087   -3.1774150558
 H   -1.7316042195   -0.1283498156   -1.4488666654
 H   -1.3492978638   -1.6860376114   -0.6967129145
 H    0.0326736179   -0.5528588200    0.9266132406