22

 C   -0.0006579990    1.5342596504    0.0216232255
 C   -0.0049889227    0.0004509701   -0.0541454571
 C   -1.4349665832   -0.5544191942    0.0207050439
 C    0.7161587403   -0.4941777120   -1.2918813421
 C    2.1980353728   -0.2091512982   -1.7016288792
 C    1.6266688554   -1.1186955987   -2.8225787959
 C    0.9802143705   -1.9793228652   -1.7038120103
 C    0.3466864784   -0.2381283175   -2.7933989419
 H    1.0179150094    1.9341411936    0.0061779270
 H   -0.5442013254    1.9697649955   -0.8246818213
 H   -0.4843320996    1.8812533542    0.9405110577
 H    0.5518940381   -0.3823432609    0.8141416555
 H   -2.0361613132   -0.2033750318   -0.8258625935
 H   -1.4423658984   -1.6486452387    0.0050505534
 H   -1.9330214593   -0.2277928496    0.9393774802
 H    2.4428609065    0.8196111339   -1.9818530692
 H    2.9729415369   -0.6430069158   -1.0619265483
 H    2.1527749678   -1.4795511993   -3.7070384369
 H    1.6616883682   -2.5489963385   -1.0642849243
 H    0.1072774551   -2.5752663738   -1.9860263953
 H   -0.5747597072   -0.7005329962   -3.1592248559
 H    0.4495684485    0.7883441726   -3.1573796119