17

 O   -0.0821924578   -0.0102126733   -0.0295130937
 C   -0.0293598147    1.1863002078   -0.0003448237
 C   -1.1004467873    2.3080480354    0.0886599631
 C    0.0192869009    3.3490105879   -0.1860043073
 O    0.5161939902    4.0208253975    0.9876414051
 C    1.5140541781    3.0064774629    1.1651780458
 C    2.8796019572    3.2709762248    0.4703859939
 C    2.5076010385    2.2617619084   -0.6637669394
 C    1.0810057976    2.1999279258   -0.1184418579
 H   -1.8487635356    2.2308826834   -0.7059562033
 H   -1.6053264201    2.4148265851    1.0517044055
 H   -0.1163420526    4.0176211992   -1.0385138691
 H    1.5305142272    2.5917830337    2.1760101766
 H    2.9643619581    4.3097421468    0.1451061173
 H    3.7587797957    3.0088246628    1.0624539500
 H    2.6200679087    2.5997502526   -1.6965849231
 H    3.0197348961    1.3020610591   -0.5549920099