17

 C    0.0553741337    1.5558674203    0.0811832276
 C    0.0720018813    0.0360311913    0.0305769698
 O   -1.2394776364   -0.4960339611    0.0992338191
 C    0.7748806424   -0.6946213103   -1.1195334671
 C    1.2769001166   -1.7656111081   -0.2174529794
 C    2.2807699133   -0.7498463755   -0.8048301403
 C    2.4484124800   -0.1971851123    0.5768980138
 O    3.3652213480    0.2786007278    1.1864886632
 C    1.0641064740   -0.7422671639    0.9697844739
 H    1.0579176145    1.9768243264   -0.0327380920
 H   -0.5842969840    1.9494706510   -0.7144460134
 H   -0.3414915993    1.9068728729    1.0418999477
 H   -1.6751299393   -0.1095536126    0.8666951466
 H    0.4323108539   -0.7805767148   -2.1436386445
 H    1.3091804219   -2.8419804886   -0.2639412433
 H    3.0185679344   -0.9057562053   -1.5800809810
 H    0.8052355648   -0.9635941673    2.0020565092