18

 O    0.0574651667    1.0792973115   -0.8059127420
 C    0.0812897547    0.0007061464    0.1164106244
 C   -1.3028422877   -0.5731818535    0.3137212855
 N   -1.8339277664   -1.3555946514   -0.8249341156
 C   -1.6018532887   -2.0241610676    0.4657299363
 C   -0.5554883096   -3.1028423689    0.4806873700
 C   -0.7301234889   -4.3004000592   -0.3790901541
 N    0.3116189131   -3.3050988082   -0.6859711587
 H   -0.2919477856    0.7208535231   -1.6297619062
 H    0.7803709740   -0.7854427338   -0.1963802053
 H    0.4484134966    0.4151354247    1.0614325717
 H   -2.0008439871    0.1145498666    0.7886813835
 H   -2.8217734044   -1.1697104579   -0.9670987765
 H   -2.4799852012   -2.2552343726    1.0685178015
 H   -0.0503190323   -3.2247656139    1.4372069211
 H   -0.3651081767   -5.2688639346   -0.0492643967
 H   -1.6078552983   -4.3343942356   -1.0199426553
 H   -0.0435968984   -2.7028676752   -1.4285567137