17

 C    0.1530870620    1.1452124958    0.2310554918
 O   -0.0369292760   -0.2408651432   -0.0247750253
 C   -1.3933624722   -0.6313449149   -0.1647707134
 C   -1.3809976318   -2.0878653721   -0.6458975646
 O   -0.3629914103   -2.3916300698   -1.5568951038
 C   -1.2852445328   -2.8476256195    0.6963210142
 O   -1.9708775754   -2.0210873052    1.6556436892
 C   -2.0460468587   -0.7372573482    1.2240242425
 O   -2.5196644067    0.1446724453    1.8816339113
 H    1.2305877505    1.3028986964    0.3077714992
 H   -0.2459591411    1.7525689542   -0.5933269425
 H   -0.3323173612    1.4504689456    1.1641092484
 H   -1.9412891684    0.0646295974   -0.8099681981
 H   -2.3392576368   -2.3160799433   -1.1246798575
 H    0.3787964399   -1.8157412357   -1.3244759814
 H   -1.7698647271   -3.8249340845    0.6858517512
 H   -0.2385914240   -2.9617169482    0.9966377088