20

 C    0.7011965537    1.2264899444    0.5108008462
 N   -0.1918294161    0.6156378923   -0.4644594298
 C    0.4485803036   -0.2808074485   -1.3977215760
 C    1.0551106621   -1.6127857741   -0.8981486107
 C    1.2360954093   -2.3936846239   -2.2000825240
 N    0.0304925009   -2.0555503440   -2.9748735467
 C   -0.5097767278   -0.7683081193   -2.5305490012
 C   -1.8922333486   -0.9353096111   -2.0303288077
 N   -2.9658007994   -1.0685766040   -1.6225564098
 H    1.2426270429    0.5129546084    1.1545998092
 H    1.4487473333    1.8357391155   -0.0105893444
 H    0.1240733300    1.8934163190    1.1572222430
 H   -0.9650256552    0.1500610608   -0.0002761786
 H    1.2481584479    0.2859834377   -1.8936371350
 H    1.9919600634   -1.4791770884   -0.3536414953
 H    0.3410908403   -2.1206647062   -0.2391468575
 H    2.1651057847   -2.0783208128   -2.7017473460
 H    1.2989138006   -3.4755138220   -2.0430240325
 H    0.1623303925   -2.1002722509   -3.9745021712
 H   -0.5499314379   -0.0213547429   -3.3312894621