20

 C    0.3937788942    1.2783540945    0.0403553440
 C   -0.1086217318   -0.1613746059   -0.0001345320
 C   -0.2312995948   -0.7704436545    1.3978434434
 O   -1.3595368808   -0.1210940851   -0.6925747277
 C   -1.8135101235   -1.3248142800   -1.2719152073
 C   -2.8291810612   -2.0619158111   -0.4282713451
 C   -3.1053608410   -3.4868093791   -0.6485494802
 O   -2.3537766490   -3.0545254675    0.4862425053
 H    1.3730686865    1.3310767974    0.5252315771
 H    0.4797237993    1.6848007088   -0.9707605097
 H   -0.3036306236    1.9064136387    0.6039198918
 H    0.5951468909   -0.7692618329   -0.5930651048
 H    0.7408213386   -0.7536606976    1.9023299258
 H   -0.9398793229   -0.1918038818    2.0001133838
 H   -0.5784866918   -1.8046706333    1.3551332644
 H   -2.2973064068   -1.0510348663   -2.2200839797
 H   -0.9784647447   -2.0029966942   -1.5030520688
 H   -3.6258207274   -1.4341087324   -0.0276530204
 H   -4.0943862093   -3.8878694874   -0.4329814178
 H   -2.5391943707   -4.0350412403   -1.4012931923