19

 N    0.0363205261   -1.1730947711   -0.2057527656
 C    0.0207450202   -0.0211918336   -0.1231784915
 C   -0.0024200060    1.4406172785    0.0087157875
 N    1.3355994045    1.9889105129    0.0473533684
 C    2.1670580822    1.7446425240    1.2527924436
 C    2.6149163602    3.2060870447    1.1780724029
 C    3.1607111580    4.0895847323    2.2519767027
 C    4.0181576255    3.7142447311    1.0613521158
 C    1.4610892591    3.4579183608    0.2051083294
 H   -0.5330304921    1.8556482332   -0.8566454652
 H   -0.6055763152    1.6894665932    0.9048168482
 H    1.5712885354    1.5242374924    2.1538809016
 H    2.9240335396    0.9643211038    1.1264241302
 H    2.7899207041    5.1078872403    2.3149541364
 H    3.3939729707    3.6421893192    3.2130413225
 H    4.8300053622    3.0108949557    1.2166237248
 H    4.2251564148    4.4785165294    0.3189539144
 H    1.6764959158    3.9943616319   -0.7257580294
 H    0.5863979950    3.9213243615    0.6920124332