21

 C   -0.0889556053    1.5105793407    0.0562473558
 C   -0.0774140178    0.0183516041   -0.0129984348
 C   -0.0938435234   -0.7653045600   -1.0968802163
 C    0.0392502049   -2.2211343258   -0.6705216880
 C   -0.5942497328   -2.1735977325    0.7295277123
 C    0.0518061106   -0.8653221653    1.2324589039
 C    1.5453752665   -1.1874717152    1.4948361163
 C    2.2154628861   -1.7117009760    0.2050804603
 O    1.4154231129   -2.6264357958   -0.5386608369
 H    0.8137155452    1.8934203694    0.5496822011
 H   -0.1489794820    1.9625157536   -0.9375697549
 H   -0.9394648201    1.8708538152    0.6492225306
 H   -0.0904252581   -0.4301661557   -2.1277120658
 H   -0.4033675450   -2.9476847715   -1.3546134346
 H   -1.6820417589   -2.0786446159    0.6629139747
 H   -0.3409115759   -3.0537164914    1.3269824608
 H   -0.4195015312   -0.4388527657    2.1231408418
 H    2.0983356361   -0.3056810466    1.8405711133
 H    1.6059158855   -1.9381097772    2.2910097131
 H    2.4849976101   -0.8545488340   -0.4274060262
 H    3.1389449027   -2.2497572845    0.4387625735