19

 C   -0.0174427605    1.4645860047   -0.0154290822
 N   -0.0134145369    0.0113508506    0.0255726719
 C   -1.3558058036   -0.5542988871   -0.0642342422
 C   -1.2670118253   -2.0757544193   -0.1062156610
 O   -0.5751503158   -2.5830914367    1.0298991991
 C    0.7272560651   -2.0354968622    1.1124259821
 C    0.6822863598   -0.5001663913    1.1969476711
 C    1.3888861331   -2.6101841647    2.2904567533
 N    1.9435383000   -3.0312996883    3.2113298832
 H    1.0113497063    1.8376724833   -0.0018005721
 H   -0.4913541402    1.8038286820   -0.9416802732
 H   -0.5588852582    1.9218680233    0.8336625765
 H   -1.9900696320   -0.2486881184    0.7904594839
 H   -1.8345801221   -0.1912470081   -0.9804963131
 H   -2.2605091171   -2.5292438377   -0.0807831647
 H   -0.7547280817   -2.3909855922   -1.0285044793
 H    1.3107686745   -2.3131944113    0.2187457012
 H    1.7037022283   -0.1064526300    1.2157592109
 H    0.1899152763   -0.2150797867    2.1459957944