23

 O    0.1879467415    1.3479899409    0.2081382805
 C    0.0979796397   -0.0463399215    0.0305889225
 C    1.0510185556   -0.5823533308   -0.9941384625
 C    1.2833391639   -0.8669390113    0.4785951607
 C   -1.3049803949   -0.6140228890    0.1335644902
 C   -1.9909966858   -0.4150037971    1.5000551539
 C   -3.4689869890   -0.6955509389    1.1957019275
 C   -3.7018958234   -0.0381503621   -0.1860053904
 C   -2.3070961787    0.0081108880   -0.8738754926
 H    0.0727267472    1.5330426568    1.1463191326
 H    0.7215404523   -1.3940123412   -1.6335632678
 H    1.7067214085    0.1381087871   -1.4686646090
 H    2.0966747898   -0.3351082916    0.9597219130
 H    1.1142804765   -1.8735300461    0.8465130392
 H   -1.2359128418   -1.6945283024   -0.0491858877
 H   -1.5760653332   -1.0534361150    2.2859568166
 H   -1.8753133194    0.6285982647    1.8246075477
 H   -3.6260629739   -1.7791495074    1.1306154973
 H   -4.1482621226   -0.3196710859    1.9662660825
 H   -4.4403080386   -0.5877526807   -0.7763504712
 H   -4.0960100616    0.9754125085   -0.0607596150
 H   -2.0099492746    1.0404806272   -1.0763625819
 H   -2.2944788575   -0.5227436121   -1.8296295160