17

 C   -0.1390638448    1.6238361913   -0.1481597201
 C   -0.2235472439    0.1224296692   -0.0059473209
 C   -1.6117883650   -0.4838361318   -0.0574334338
 O   -2.4840528605    0.0913435790    0.9129306125
 C   -2.3615538298   -0.3696950811    2.1800084085
 N   -3.0456664390    0.1557362450    3.1000857486
 C    0.9167147604   -0.7371723212   -0.3551452291
 O    0.6154905272   -0.4526096915    1.0128857608
 H   -0.4925963700    1.9384293573   -1.1359908232
 H   -0.7645504093    2.1123559211    0.6036233046
 H    0.8922470732    1.9598763338   -0.0204904695
 H   -2.0818664341   -0.2827409772   -1.0246317257
 H   -1.5456453462   -1.5701871451    0.0793377755
 H   -1.6461570584   -1.1948163621    2.2773611173
 H   -2.8541161952   -0.3146560284    3.9823139676
 H    0.7531319140   -1.7686993001   -0.6663456666
 H    1.8278531914   -0.2802872282   -0.7383837965