19

 C    0.0873579203    1.5229767594   -0.0093460469
 C    0.0031508659    0.0068269097   -0.0119966775
 O    0.6569677551   -0.4779165985   -1.1720412635
 C    0.6419532963   -1.8784415527   -1.2818532778
 C    1.4063026390   -2.2410656717   -2.5653542094
 C    2.8427394554   -1.6994593525   -2.4765044897
 O    3.3552476395   -1.0020581564   -3.3048478826
 C    1.4621667142   -3.6857441893   -2.7496163970
 C    1.5458707510   -4.8788067131   -2.8700320401
 H    1.1310517263    1.8490823663   -0.0040716085
 H   -0.3960650775    1.9354763908   -0.8991572215
 H   -0.4092219250    1.9288079386    0.8768666391
 H    0.4781807472   -0.4124926175    0.8904534071
 H   -1.0480484725   -0.3258894648   -0.0080364743
 H    1.1299280361   -2.3526560587   -0.4135075547
 H   -0.3845642639   -2.2723520630   -1.3363039712
 H    0.9296691576   -1.7544469353   -3.4226309385
 H    3.3847784305   -2.0339584746   -1.5634762507
 H    1.6075583746   -5.9316100466   -2.9963454624