19

 C    0.0159135001    1.5029479502    0.0723889544
 C    1.4519323350    2.0133532260   -0.0246354781
 O    2.0164618616    1.7278703195   -1.3048817960
 C    1.9708493230    0.3854305982   -1.6927606671
 C    3.0045550623   -0.6323755650   -1.1868640389
 O    2.7346023008   -0.9381801932    0.1900180280
 C    1.9279828121   -1.5684303420   -0.8102998382
 C    0.8157616620   -0.5658000417   -1.1647954016
 C   -0.0180164812   -0.0336006787    0.0137821572
 H   -0.4364994874    1.8536063221    1.0067385558
 H   -0.5624106392    1.9375689605   -0.7525338892
 H    1.4897257508    3.1026940928    0.0653507669
 H    2.0676852435    1.5787123854    0.7745101151
 H    1.9838249065    0.3801408089   -2.7881607094
 H    4.0140664046   -0.8151945058   -1.5380122117
 H    1.9117436277   -2.6517415241   -0.8250871641
 H    0.1867665021   -0.8972025919   -1.9941048835
 H    0.4049362567   -0.4194216716    0.9468858672
 H   -1.0499279611   -0.3938088395   -0.0478205967