17

 N    0.0854691900   -1.0613587906   -0.0577939966
 C    0.0349569981    0.0946456806   -0.0244926331
 C   -0.0393715209    1.5238290404    0.0220463525
 C   -1.2158632181    2.2099023531    0.7259673352
 C   -1.3723953277    3.5078381820   -0.1228137783
 N   -0.0882271824    3.7031176374   -0.8242337810
 C    1.0337706429    3.7537795419    0.1893135778
 C    1.3079247046    2.2778640036   -0.0507221077
 C    0.3522380701    2.3361777990   -1.2046654033
 H   -2.1086486122    1.5807498258    0.7003093532
 H   -0.9921554539    2.4204219370    1.7757518630
 H   -2.1571933857    3.3812791561   -0.8751448900
 H   -1.6129357398    4.3904571590    0.4754493378
 H    1.8410735898    4.3944320667   -0.1744519644
 H    0.7399629680    4.0768850454    1.1937059040
 H    2.2460245595    1.7448368855    0.0394068495
 H    0.3840074177    1.9715750270   -2.2226026486