17

 C   -0.0111268697    1.4859414019    0.0714264455
 C    1.3061489796    0.7557994053    0.0374776276
 C    2.0162327618    0.4351615902    1.3667054913
 C    1.0212189135   -0.4680831770    2.0465790542
 N    0.9682606972   -1.0641148438    3.2271774957
 N   -0.1977804275   -1.7524373892    3.1664440463
 C   -0.8725707433   -1.5970114432    1.9877651601
 C   -0.0944974991   -0.7545670447    1.2301934728
 C   -0.0120920374   -0.0265664886   -0.0554480834
 H   -0.3534565567    1.9133541608    1.0088187292
 H   -0.2773260885    2.0618589837   -0.8091635649
 H    1.9210834588    0.8821864960   -0.8458199850
 H    2.9700351804   -0.0749861705    1.1873661479
 H    2.2415084062    1.3372852924    1.9461241170
 H   -0.4627972380   -2.3239900133    3.9500405723
 H   -1.8149075238   -2.0919737620    1.8141270119
 H   -0.3401049835   -0.4777136681   -0.9845988186