20

 C    0.0845152216    1.6530559570   -0.3413333855
 C    0.0434859557    0.1687525175    0.0443691956
 N    0.5904733589   -0.7347394900   -0.9588496947
 C   -0.1429274404   -0.9116869493   -2.2110586405
 C    0.2986238826   -2.1881428739   -2.9256877057
 C    1.8243778652   -2.2699930566   -3.0835229843
 O    2.3318082696   -2.8653112926   -4.0188585978
 C    2.5631950772   -1.6683825751   -1.9878796768
 C    1.9218600033   -1.0085791161   -0.9854253856
 H    1.1125378662    1.9820418974   -0.5226369727
 H   -0.4998364648    1.8500454383   -1.2449348853
 H   -0.3328978598    2.2630499722    0.4658520875
 H    0.6016946057    0.0095033431    0.9726702146
 H   -0.9909749591   -0.1346314863    0.2447093322
 H   -1.2139563660   -0.9370038773   -1.9861831714
 H    0.0363247466   -0.0458920960   -2.8695944058
 H   -0.0152996438   -3.0670139366   -2.3463615402
 H   -0.1675411855   -2.2603770789   -3.9107667739
 H    3.6327403423   -1.8260008309   -1.9359894487
 H    2.4719122843   -0.6572425461   -0.1157928609