14

 O    0.0576936540    1.3777441381   -0.1891926745
 C    0.0266328583    0.0347311665   -0.0095582842
 C   -0.2767079712   -0.8766517879   -1.1641761528
 C   -1.1601084153   -1.0045759862    0.0600327239
 N   -0.4641891957   -1.6788127563    1.1617988789
 C    0.6216677335   -0.7496867236    1.1275911111
 N    1.6507689703   -0.5484015563    1.8225811188
 C   -2.5649892950   -0.7915107998    0.0799193471
 N   -3.7082837073   -0.6086340086    0.0866247788
 H    0.0675975917    1.8051644439    0.6763267638
 H   -0.7283287220   -0.3560191291   -2.0036547921
 H    0.3848006638   -1.6972175642   -1.4297191224
 H   -0.2681067078   -2.6722229428    1.0754810914
 H    1.7674913128   -1.2568791936    2.5492529525