18

 O    0.4069250463    1.1185499393   -0.6086222528
 C    0.1236379779   -0.1327960107   -0.0363877357
 C    0.1292019697   -0.2357116750    1.5174899122
 C   -1.3804180930   -0.5988525201    1.5081957777
 O   -2.2001533578    0.4071117316    2.1291325804
 C   -2.5014560712    1.4984136857    1.3898663612
 N   -2.5558410673    1.6136384139    0.1288095091
 C   -2.3716900259    0.3901142148   -0.6558335865
 C   -1.3785708123   -0.5940649357   -0.0451095838
 H   -0.2455870960    1.7586623252   -0.2942638029
 H    0.7994826989   -0.8372313800   -0.5264844742
 H    0.7769577387   -1.0152857182    1.9255342783
 H    0.3482552907    0.7056523758    2.0280041824
 H   -1.6583598763   -1.5332445798    1.9958662109
 H   -2.7304702527    2.3458105788    2.0350312090
 H   -3.3532015546   -0.0919054743   -0.7557868996
 H   -2.0506053929    0.6717725612   -1.6627454861
 H   -1.5122312123   -1.5906149825   -0.4744475995