20

 C    0.9740418462   -0.9773394627   -0.2236111823
 C   -0.1833185285   -0.4139957931    0.6104406544
 C   -1.5511682650   -0.6408800650   -0.0076785834
 C   -1.8486770616    0.0674867199   -1.3209041530
 C   -1.8627961086    1.5943521141   -1.1750488628
 N   -2.8222062904    2.0536169463   -0.3194982119
 O   -1.1060296879    2.3218215158   -1.7876075750
 C   -2.3171224779   -1.8476959044    0.3414056848
 O   -2.6444251069   -0.5862125983    0.9363798824
 H    1.9224799843   -0.8492103717    0.3056226660
 H    0.8416040514   -2.0468570008   -0.4195034362
 H    1.0641002654   -0.4646017648   -1.1855878968
 H   -0.1900161490   -0.8683167883    1.6066924780
 H   -0.0384301650    0.6630301008    0.7590063043
 H   -1.0960356920   -0.1758531886   -2.0726296864
 H   -2.8240710634   -0.2625336282   -1.6928775879
 H   -3.2899683898    1.4110610647    0.3017496933
 H   -2.8133231129    3.0350784931   -0.0927449654
 H   -3.0553625094   -2.2430294548   -0.3546995580
 H   -1.8899435291   -2.5793522141    1.0257860959