13

 C   -0.1071145668    1.4463705662    0.1375823607
 C    0.0797743553   -0.0803195535   -0.0451148919
 C    0.7842595848   -0.3843643932   -1.2904482095
 N    1.3098377857   -0.5993169694   -2.2957729654
 C    0.8171882814   -0.6791916259    1.1680595065
 O    1.9474219133   -1.0968648121    1.1178820604
 C    0.0380697737   -0.6822305189    2.3926012250
 C   -0.6203149013   -0.6939551008    3.4001430400
 H    0.8628517620    1.9472485391    0.1804903415
 H   -0.6744380282    1.8561784714   -0.7003166121
 H   -0.6516563564    1.6443862330    1.0633684832
 H   -0.9122345515   -0.5473808915   -0.0879417429
 H   -1.1852005521   -0.7134982045    4.3012896045