18

 C    0.0662488050    1.4392163690   -0.0192122219
 C   -0.0525439627   -0.0432587526    0.0339571172
 N   -1.1207268149   -0.7268324912    0.1779694341
 C   -0.7359246828   -2.1240259321    0.1313539229
 C   -1.5570877959   -3.0322483341    1.0082891333
 O   -2.9110489380   -3.0594689140    0.5955126149
 C   -0.1284069462   -2.5728267449   -1.1831768502
 C    0.7671985078   -2.1048072580   -0.0706875995
 O    1.1237516551   -0.7304858132   -0.0861838338
 H    0.7986860844    1.7875050577    0.7152683442
 H    0.4158826599    1.7597503642   -1.0058858731
 H   -0.9044122841    1.8910082703    0.1827403253
 H   -1.1849661108   -4.0602396548    0.9470837622
 H   -1.4664354326   -2.7035833691    2.0560360072
 H   -3.1847843987   -2.1374955917    0.5182899210
 H   -0.1256258884   -3.6407828915   -1.3743029998
 H   -0.2538644603   -1.9440644908   -2.0584188531
 H    1.5133942134   -2.7307758534    0.4017271989