15

 O   -0.0468988212    1.3792794518    0.1016985319
 C    0.0346968593    0.0021845312    0.0541129082
 C    0.9500183755   -0.7608407545    1.0081152140
 O    0.2427066719   -1.5879709261    1.9486207974
 C    0.6457439403   -2.1545067880    0.6858218791
 C   -0.4011398320   -2.0149017423   -0.4055964541
 C   -1.2959713546   -0.7866034643   -0.0635894355
 O   -1.4266361336   -0.4496266771   -1.4906146357
 C   -0.0219540524   -0.8036083127   -1.3242566849
 H    0.8326569549    1.7526383786   -0.0175136743
 H    1.9188709872   -0.3844058144    1.3233873977
 H    1.3597971648   -2.9696056715    0.7307248472
 H   -0.8742155405   -2.8795889443   -0.8636712831
 H   -2.1811325002   -0.7297033031    0.5662494619
 H    0.6239781106   -0.7621668932   -2.2030062399