23

 C   -0.0736555720    1.6675619420    0.0649549516
 C    0.0560643642    0.1509598005    0.0534699708
 C    1.1306345961   -0.5852364123   -0.7857273574
 C    2.4430197146    0.0338590260   -0.1970279135
 C    2.1148062212    0.0426732518    1.3542983080
 C    0.7567173671   -0.6378611962    1.2345032247
 C   -0.1763898849   -1.5367994430    2.0643300688
 C   -0.3073961442   -2.4484828063    0.7867234087
 C    0.9848587689   -1.7730157367    0.1990947028
 H    0.8719584403    2.1839586302    0.2483669137
 H   -0.4607676341    2.0255992938   -0.8960590719
 H   -0.7793282498    1.9892434225    0.8396094300
 H   -0.9309412374   -0.2733332578   -0.1375487661
 H    1.0863369422   -0.6579593504   -1.8758728673
 H    3.3172001227   -0.5833538378   -0.4237944058
 H    2.6357242665    1.0346396647   -0.5918932643
 H    2.8295435470   -0.5531018316    1.9292439996
 H    2.1016439450    1.0520876237    1.7763061025
 H    0.3467670152   -2.0579917321    2.8726561626
 H   -1.0885423735   -1.0890775233    2.4702382027
 H   -0.1920089692   -3.5191374337    0.9665330163
 H   -1.2306027933   -2.3016549114    0.2238640177
 H    1.8642357375   -2.4142528625    0.3117904160