16

 C   -0.0866530263    1.6240384805   -0.0585517032
 C    0.1259724936    0.1274746941   -0.0101129337
 O   -0.9603507711   -0.5676625814   -0.5927091653
 C    1.4134999955   -0.6598632973   -0.2167489387
 C    2.6574639065   -0.1647338649    0.5787220299
 O    2.3538136756    1.0389301403    1.3007230153
 C    1.9217852916   -0.2198635527    1.8383336439
 C    0.6406630019   -0.7290074425    1.1146395294
 H   -0.1549041910    1.9492532042   -1.1055829052
 H   -1.0377815452    1.8655139924    0.4273695448
 H    0.7188326853    2.1713152986    0.4208613577
 H   -1.0602056752   -0.2372255447   -1.4925822483
 H    1.4656405839   -1.4296136160   -0.9757355757
 H    3.6974736270   -0.3498167470    0.3372601986
 H    2.2280230848   -0.4608386745    2.8492008630
 H    0.0469386930   -1.5553385190    1.4830091473