18

 C    0.0142193842    1.5545524428   -0.0357773724
 C   -0.0270576742    0.0463518094   -0.0468406785
 C    0.7963207953   -0.6897266192   -1.0887943766
 C    0.6589770246   -1.9743782951   -0.7632877673
 C   -0.2391674029   -1.9211520684    0.4436210921
 N    0.2776383683   -0.7292269420    1.2913815564
 C   -1.1661615645   -0.4800010172    1.7199808266
 C   -1.3210034898   -0.7927024986    0.2255926481
 O   -2.4399865049   -0.7663871368   -0.5834540122
 H    1.0392556334    1.9045584776    0.1226680671
 H   -0.3309297703    1.9410386979   -1.0002815438
 H   -0.6160726984    1.9927030038    0.7413477276
 H    1.3666671204   -0.2253786848   -1.8808858003
 H    1.0774408728   -2.8599223352   -1.2187038181
 H   -0.4733636708   -2.8216354986    1.0126045328
 H   -1.5331554866   -1.2206702782    2.4366475212
 H   -1.3638830132    0.5324763085    2.0761548023
 H   -3.1527014834   -1.2476220159   -0.1485708952