19

 C   -0.2892765494    1.6707396499   -0.1938409750
 C   -0.0370305739    0.1657423064   -0.0365255136
 C   -1.3502525637   -0.6115450729    0.0718231255
 O   -2.0519733411   -0.1421533575    1.2120090592
 C    0.8067475392   -0.3989308462   -1.1851515997
 C    2.2690606224    0.0165040303   -1.1513518113
 O    2.7778581047    0.6264338670   -0.2363913292
 C    3.0498869785   -0.3958922672   -2.3093831480
 C    3.6787209075   -0.7442726355   -3.2749369403
 H    0.6509242831    2.2263293377   -0.1826604061
 H   -0.8047976981    1.8824207108   -1.1393705433
 H   -0.9195223909    2.0332162788    0.6205216087
 H    0.5143924704    0.0049628464    0.8971470929
 H   -1.9434759957   -0.4676839799   -0.8476636394
 H   -1.1359626195   -1.6898639249    0.1573609245
 H   -2.9115708782   -0.5716377290    1.2369890164
 H    0.8020169586   -1.4995566631   -1.1798421382
 H    0.3961360153   -0.1174514806   -2.1646184164
 H    4.2510586110   -1.0425457807   -4.1196723167