21

 O   -0.0152478965    1.3340272070    0.3795165129
 C   -0.0534928953   -0.0092863537   -0.0965162388
 C   -1.4700235996   -0.4950512708   -0.0238569470
 C   -2.0024878422   -1.0883552333    1.2597579891
 C   -1.8627446114   -1.9628462913    0.0374529733
 C   -2.9810558533   -1.9897764000   -1.0263479824
 C   -3.8052665903   -0.7021618217   -0.7518801579
 C   -2.4645589610   -0.0048159304   -1.1031180794
 C   -2.3012707428   -1.1516786658   -2.1650507629
 H    0.8714183686    1.6765755745    0.2312940784
 H    0.3085315484   -0.0608802432   -1.1365522638
 H    0.5958951706   -0.6623948440    0.5090289131
 H   -1.2553585007   -1.2467052681    2.0322171271
 H   -2.9715535722   -0.8173491669    1.6595145372
 H   -1.1234170252   -2.7570423260    0.0297226659
 H   -3.4640668933   -2.9482311802   -1.2192011495
 H   -4.5543193314   -0.5380741318   -1.5293812615
 H   -4.2643572078   -0.5425647218    0.2239308189
 H   -2.4142567666    1.0506249723   -1.3688741315
 H   -1.2866291209   -1.4329872285   -2.4623318909
 H   -2.9333615972   -1.0199712962   -3.0478720704