25

 C    0.0508804769    1.5784226512   -0.0743171468
 C    0.0204235547    0.0566888526    0.1072664547
 C   -1.3690855014   -0.5578398849   -0.0739225452
 C   -1.9586795466   -0.4212180073   -1.4881458894
 O   -2.8771841971   -1.4949743734   -1.6615939988
 C   -2.7311387358   -2.4603582224   -0.6082702972
 C   -2.7578183422   -3.8675202361   -1.1973554139
 C   -4.0665282878   -4.1906446603   -1.9227768265
 C   -1.4373602699   -2.0805812815    0.1202383774
 H    1.0566319581    1.9762849789    0.0921555597
 H   -0.2559757547    1.8697256766   -1.0843907470
 H   -0.6241649631    2.0742551571    0.6322214891
 H    0.7126145336   -0.4136361134   -0.6045009452
 H    0.3937238643   -0.1961791091    1.1076110775
 H   -2.0605367715   -0.0846486148    0.6371738749
 H   -2.4884515448    0.5251202011   -1.6453036893
 H   -1.1592772059   -0.4866891631   -2.2448571805
 H   -3.5874825332   -2.3478035338    0.0788847479
 H   -1.9111199575   -3.9668439317   -1.8882839146
 H   -2.5904726247   -4.5851135087   -0.3833013459
 H   -4.0439963031   -5.1969905957   -2.3520472124
 H   -4.9206393292   -4.1388326410   -1.2379895841
 H   -4.2416318768   -3.4752875992   -2.7304855800
 H   -0.5769421242   -2.5602978879   -0.3647128779
 H   -1.4417345881   -2.3832467029    1.1708345736