19

 C    0.8282032856   -0.4947314935    1.3143150499
 C    0.0774199542   -0.0297711892    0.0610165395
 C   -1.3548026295   -0.5822372456   -0.0201433921
 C   -2.1839181962   -0.0197911674    1.0368094469
 C   -2.7966071480    0.4965015590    1.9337014874
 C   -2.0876867713   -0.7480034540   -1.4031456682
 C   -1.1594217298   -1.9246091928   -1.7866299203
 C   -1.6344150420   -2.1024791533   -0.3266658771
 O   -2.9943061059   -1.7287795280   -0.7703576630
 H    1.8235294548   -0.0430878429    1.3594966126
 H    0.2853926368   -0.2149164106    2.2212592497
 H    0.9553716331   -1.5827910189    1.3205301493
 H    0.0122147485    1.0641971253    0.0573703217
 H    0.6458202353   -0.3075754893   -0.8303165945
 H   -3.3663046216    0.9331879478    2.7162565025
 H   -2.5376104239    0.0257313139   -2.0259691656
 H   -1.6133502332   -2.6294344824   -2.4826774584
 H   -0.1058271619   -1.7450726048   -2.0000797591
 H   -1.5416467353   -2.9572752734    0.3435892889