18

 C   -0.0054943538    1.5347557760   -0.1325243940
 C   -0.0320794313    0.0302327169    0.0528810000
 C   -1.2238405740   -0.6520708989   -0.5922415076
 N    1.2818748924   -0.6378205254   -0.0306407581
 C    0.5642081174   -0.6303379538    1.2504456236
 C    1.2249463526    0.1183143330    2.4000691552
 C    2.1474198508   -0.7401726857    3.1443842592
 N    2.8607287299   -1.4367218609    3.7284611938
 H    0.9131311624    1.9768243626    0.2567426309
 H   -0.0604589974    1.7821494635   -1.1983432991
 H   -0.8614291659    2.0064986592    0.3628791276
 H   -1.2190430258   -0.4901645661   -1.6763814039
 H   -1.2155543701   -1.7313430644   -0.4095202190
 H   -2.1670031619   -0.2521083451   -0.2040856788
 H    1.2060945660   -1.5464764468   -0.4807648729
 H    0.0881039249   -1.5575396137    1.5650720903
 H    1.7813442770    0.9788814896    2.0205772546
 H    0.4658613067    0.4953467801    3.0959485682