18

 C   -0.0776399837    1.5446876209   -0.0390783786
 C    0.1033289330    0.0402365693   -0.0800080412
 C    0.7561334915   -0.7375407446   -1.1780541929
 C    1.3955347659   -0.6875372102    0.2451320234
 C    2.5585321248   -0.0024539385   -0.3666382322
 N    3.7418584154    0.1574761043    0.0611019753
 O    4.5525595570    0.6879125175   -0.9855597275
 C    1.9524753901    0.0220288108   -1.7766198742
 O    2.6857387390   -0.7818751543   -2.6715325353
 H    0.8098118862    2.0801794721   -0.3838869743
 H   -0.9220138343    1.8520560174   -0.6653983355
 H   -0.2823738714    1.8747283913    0.9845671846
 H   -0.7451109339   -0.5002872838    0.3365919504
 H    0.2992925485   -1.5876369512   -1.6673736144
 H    1.4525569207   -1.4479142730    1.0137205887
 H    5.4235666058    0.7064894300   -0.5759382491
 H    1.7288385843    1.0057953430   -2.2100639961
 H    3.5951920012   -0.4584466511   -2.6346283311