19

 C   -1.0790154251    0.2380837609   -0.0174531371
 C    0.4276991873    0.1273500805   -0.2436077826
 O    0.9952004278    1.3797064019   -0.6278193833
 C    1.1892133796   -0.4037748056    0.9501737805
 C    2.6654835792   -0.7402662817    0.8294341630
 O    3.0095541954   -1.4352057587    2.0230613384
 C    1.8451265496   -2.0236475727    2.5871509804
 C    0.6843139260   -1.2025382269    2.0711943362
 O    0.8944469133    0.2076851949    2.2242257720
 H   -1.2881946791    0.8139470068    0.8893441273
 H   -1.5354167019    0.7441388237   -0.8712541131
 H   -1.5409635145   -0.7485945957    0.0874947160
 H    0.6231244484   -0.5349250522   -1.0957056458
 H    0.8924851482    1.9767162831    0.1232681450
 H    2.8252585155   -1.3641506243   -0.0654099114
 H    3.3042125325    0.1438482034    0.7549014415
 H    1.7182628868   -3.0732946280    2.2725221589
 H    1.9487774358   -1.9970886794    3.6768266048
 H   -0.3392578550   -1.5537993999    2.1631057793