20

 C   -0.1768477670    1.3890695568    0.0960951779
 O    0.2510221684    0.0468656544   -0.0580464137
 C    0.7228308211   -0.5519490427    1.1256169360
 C   -0.3669946856   -0.7248647695    2.1179550237
 N   -1.2205063813   -0.8593346150    2.8855525052
 C    1.3427746524   -1.8962867518    0.7629106137
 C    2.6468879146   -1.8807374323   -0.0781924997
 C    3.1752208823   -3.0472897697    0.8014253101
 C    2.0992397912   -2.6881183724    1.8639818565
 H    0.6355651081    2.0272865338    0.4743377387
 H   -0.4747645669    1.7390072172   -0.8939493556
 H   -1.0337248390    1.4661034105    0.7786549700
 H    1.4898032804    0.0856251887    1.5990014891
 H    0.5746199124   -2.5127136018    0.2876420808
 H    2.5527779552   -2.0446104781   -1.1528221558
 H    3.2148240267   -0.9588980939    0.0839194114
 H    2.9826909212   -4.0213451232    0.3437149151
 H    4.2211761596   -3.0119083735    1.1125039333
 H    2.4990662042   -2.0217243887    2.6354850596
 H    1.5648246520   -3.5029329488    2.3553980338