20

 C    0.2428394848    1.4757463496   -0.1928510119
 C   -0.0209450555   -0.0011626592    0.1301768258
 N    0.2480840003   -0.8936233180   -1.0139974686
 C    1.5277623599   -1.5860310006   -0.7552691896
 C    1.6190266057   -1.7693163299    0.7711407961
 C    0.8368416108   -3.0016072801    1.2602064990
 O    2.9444434514   -1.7994042493    1.2472049268
 C    0.9131719927   -0.4893798976    1.2428060665
 O    1.1600401112    0.0560339711    2.2902194158
 H    1.2578119671    1.6124754086   -0.5776816037
 H   -0.4583426613    1.8229183477   -0.9552085338
 H    0.1311103357    2.0838084348    0.7089998837
 H   -1.0596046513   -0.1072558537    0.4663825975
 H   -0.4936054630   -1.5771155156   -1.1022480246
 H    1.5689293343   -2.5257668342   -1.3105776171
 H    2.3689705351   -0.9639066806   -1.0828384097
 H    1.3752027560   -3.9042450655    0.9573272373
 H    0.7577437336   -2.9942761758    2.3513292043
 H   -0.1749231944   -3.0406578747    0.8423740733
 H    2.9440739970   -1.2903963171    2.0716062028