17

 N   -0.0063872422   -1.2649642568    0.1569080368
 C   -0.0189764581   -0.1133293246    0.0663848653
 C   -0.0505979300    1.3423148427   -0.0638892223
 C    1.3429521969    1.9916118997    0.0688408886
 C    1.3463059081    3.4977693341   -0.1182885227
 C    1.9865812896    4.0892336379    0.8896793281
 C    2.4120030543    3.0737098696    1.8949384102
 C    1.2905461753    2.3414877478    2.5508510435
 N    1.9726383720    1.7521924823    1.3898278477
 H   -0.4680589833    1.5911162666   -1.0460131651
 H   -0.7381012150    1.7497046273    0.6843838450
 H    1.9879363839    1.5155458002   -0.6829467713
 H    0.8852127339    3.9921408523   -0.9655534491
 H    2.1724035366    5.1505264457    0.9984401238
 H    3.3899789782    3.1358326672    2.3638197648
 H    1.4543932957    1.7934800493    3.4742423690
 H    0.2978025641    2.7704960988    2.4385512777