16

 C    0.0240854161   -1.2035342820   -0.3541004661
 C   -0.0299979182   -0.0115732562   -0.1880143311
 C   -0.0307511583    1.3898720280   -0.0077488668
 C   -1.0876180070    2.1980319459    0.1555562722
 C   -0.7001943333    3.6376523388    0.3519309639
 C    0.7899891601    3.6655188134   -0.0630632399
 C    1.2795244557    2.1903503093    0.0555180209
 C    2.0031477067    1.9307994172    1.3052572979
 N    2.5713606197    1.7425900059    2.2941621483
 H    0.0579036999   -2.2563236320   -0.4897040361
 H   -2.1140818840    1.8519740371    0.1738383657
 H   -1.3087378780    4.3242680564   -0.2460019478
 H   -0.8418500785    3.9336360891    1.4005674366
 H    0.8759617630    3.9680307294   -1.1098551413
 H    1.3938456015    4.3502023632    0.5339333735
 H    1.9485434746    1.9208651664   -0.7682054600