18

 C    0.1318209695    1.5079146044   -0.3648150444
 C    0.0547953061    0.0226270069   -0.0918376997
 C    1.2373479542   -0.8201925013   -0.3220034787
 O    0.8574889869   -0.4456280990    1.0050616036
 C   -1.3088318135   -0.6347391665   -0.1531920433
 C   -2.4763277521   -0.0436552410    0.6732008931
 O   -3.2340408827    0.1925894576   -0.5560952555
 C   -2.2067443615   -0.2967211502   -1.3339540864
 N   -2.0942859613   -0.3919671566   -2.5785679156
 H    1.1623009009    1.8542670661   -0.2609637632
 H   -0.2146622496    1.7276603748   -1.3789970704
 H   -0.4842648637    2.0777340646    0.3384074359
 H    1.1160948297   -1.8742790555   -0.5670807037
 H    2.1527907992   -0.3621973488   -0.6932074271
 H   -1.1959833200   -1.7112467877   -0.0097457308
 H   -3.0011959234   -0.7407632157    1.3292346874
 H   -2.2786379586    0.8942946591    1.1959576317
 H   -2.9274036103   -0.0439624310   -3.0566055428