21

 C   -0.0658436767    1.5471830213    0.0776435820
 C   -0.0013497454    0.0198904297   -0.0132460761
 C    0.7421013946   -0.4907028467   -1.2577637011
 C    2.3045410654   -0.3082918589   -1.1485723383
 C    2.7757926953   -1.6206285695   -0.5210392266
 C    1.8618044200   -2.5524502521   -0.7580859493
 C    1.0167919804   -3.6485639551   -0.1613656282
 O   -0.1691469120   -2.8785692524   -0.5329816852
 C    0.6377832634   -2.0250917264   -1.4254336335
 H    0.9306423191    2.0005479885    0.1125264466
 H   -0.5904569570    1.9729402981   -0.7851830929
 H   -0.5999116385    1.8628169368    0.9793738918
 H    0.4754437490   -0.3901581081    0.8850357224
 H   -1.0173803488   -0.3889534381   -0.0225724449
 H    0.3505477632    0.0296398376   -2.1393659330
 H    2.7550722353   -0.1233112140   -2.1328093683
 H    2.5736387929    0.5499581380   -0.5234405403
 H    3.6559950508   -1.6974841691    0.1062469123
 H    1.0338918711   -4.6149202688   -0.6824660506
 H    1.0957230744   -3.8119546908    0.9186927739
 H    0.4499597033   -2.3260886000   -2.4649880908