20

 C    0.0162058803    1.5444712270    0.0285814412
 C    0.0461380173    0.0349095754    0.0163454289
 C   -0.8992087753   -0.7819810066    0.8602957417
 C    0.5832166056   -0.8028993664    1.1606318435
 C    1.4634838861   -1.9402431139    0.6088333100
 O    1.0923501108   -3.2458282028    1.0096443334
 C    1.4373944555   -1.7666607139   -0.9150776400
 N    0.0878840880   -2.0391362552   -1.4564309323
 C    0.5409343842   -0.6402154880   -1.2589084414
 H    0.9870315356    1.9684751706   -0.2553833101
 H   -0.7344272582    1.9362089204   -0.6685322682
 H   -0.2303839863    1.9221171884    1.0255513211
 H   -1.5236010218   -0.2424550099    1.5654881443
 H   -1.3654009708   -1.6497207418    0.4111810642
 H    0.9073772409   -0.3324316341    2.0830885296
 H    2.4870393914   -1.8011141885    0.9728854960
 H    0.2927141576   -3.4524783713    0.5092269931
 H    2.3044104072   -2.0464477401   -1.5048060704
 H    0.1566726179   -2.2863121975   -2.4401757998
 H    0.6996644041   -0.0243960817   -2.1386866945