18

 C   -0.0659781466    1.5361034367   -0.1798368039
 C   -0.0160452582    0.0371018722    0.0015633995
 C    1.2624921629   -0.7279322308   -0.2189559765
 C    0.7044858741   -0.6079967930    1.1800011986
 C    1.3820294984    0.1887128280    2.2188454853
 C    2.6207638073    0.7438706693    2.2480966958
 O    2.7814441151    1.3873442424    3.4462340596
 C    1.6140779823    1.1745021153    4.0913279074
 N    0.7483121927    0.4808587008    3.4320919249
 H    0.8571711605    2.0092915676    0.1670719426
 H   -0.2009041504    1.7969777603   -1.2352219692
 H   -0.8954212804    1.9756951737    0.3844386432
 H   -0.9265283344   -0.4788960917   -0.2914447347
 H    1.2265362871   -1.6985478477   -0.7008943852
 H    2.1489887482   -0.1495703473   -0.4601851663
 H    0.2139690093   -1.4896416688    1.5816713243
 H    3.4581928032    0.7738602442    1.5737612532
 H    1.5222557489    1.5981971188    5.0793144314