18

 C   -0.0865905612    1.6137592544   -0.0234654623
 C   -0.0397900928    0.0964541459    0.0089778149
 C   -1.3045387344   -0.5656928313   -0.5006678450
 O   -1.4704566284   -0.2077085218   -1.8658142730
 C    1.2484470427   -0.6137706003   -0.2416768481
 C    0.6435343938   -0.6519903538    1.1598761562
 C    1.3187759907    0.0660083914    2.2623229521
 O    1.3016102044   -0.2918814041    3.4154041641
 H    0.8773158247    2.0664134523    0.2191186974
 H   -0.3705886190    1.9389244818   -1.0276951708
 H   -0.8300913005    2.0034574159    0.6811942238
 H   -1.2248662125   -1.6578221218   -0.3846084490
 H   -2.1617113258   -0.2295231985    0.1039451971
 H   -2.3546403004   -0.4674698298   -2.1401611862
 H    1.2434762616   -1.5413213982   -0.8028917499
 H    2.1422938072   -0.0123796878   -0.3752485857
 H    0.1800617562   -1.5798390313    1.4802466426
 H    1.8786839234    0.9793870969    1.9580834217