16

 C   -0.0912665530    1.5587470107    0.0034666626
 C   -0.0108032298    0.0421682358   -0.0115969527
 C    1.2459290344   -0.6437095218   -0.6344126387
 N    2.0206780723   -0.1584336859    0.5887699183
 C    0.7030005744   -0.6762121893    1.1931373439
 C    0.3967658563   -0.6266503405    2.5835393280
 C    0.1188902224   -0.6108526310    3.7536369917
 C    0.9079536432   -1.8824175078    0.2145773999
 O    0.9679763555   -3.0693411033    0.2116373132
 H    0.8661072421    2.0053329001    0.2735659332
 H   -0.3887096742    1.9307895984   -0.9822961163
 H   -0.8462988020    1.8875231524    0.7245242919
 H   -0.9610366602   -0.4185873609   -0.2930320320
 H    1.6482646864   -0.5519341396   -1.6402966099
 H    2.7945900049   -0.7898152248    0.8152551099
 H   -0.1234055427   -0.5973259824    4.7877464169