20

 O    0.0149019034    1.4744256364   -0.0588131145
 C    0.0446614811    0.0629866596    0.0867727860
 C   -1.3599778974   -0.4644079133   -0.1855854017
 C   -1.4484949015   -1.9787004234   -0.0850731847
 C   -1.5308255333   -2.6649319284    1.2897573196
 C   -3.0464736892   -2.3544298443    1.4967763850
 C   -3.2970396472   -3.8373460956    1.7374467995
 N   -2.2134261414   -3.9136868259    0.6657197844
 C   -2.8231087274   -2.6579367343   -0.0177126132
 H    0.8998141794    1.8131493751    0.1046343095
 H    0.7558793932   -0.3970536000   -0.6187479928
 H    0.3622693112   -0.2264781052    1.1019542356
 H   -2.0533855109    0.0117913083    0.5173992994
 H   -1.6596624466   -0.1401344605   -1.1897118922
 H   -0.7571302191   -2.4808380917   -0.7730988719
 H   -0.7695013663   -2.7905659530    2.0630124285
 H   -3.5053345994   -1.4720583391    1.9539764820
 H   -2.9908953072   -4.2659510513    2.6977839044
 H   -4.2557088386   -4.2599626176    1.4181475936
 H   -3.5856024427   -2.7705488058   -0.7917918466