23

 C   -0.0869668206    1.5550885454   -0.2599450256
 C    0.0154532656    0.0316276325   -0.2208571198
 C    0.8693577814   -0.5905108144   -1.3585019687
 C    1.3806991765   -1.9237355768   -0.8063846177
 C    2.6104407215   -1.9371035169    0.0849448603
 C    3.6140396429   -0.8105433311    0.1180923110
 O    4.5403127746   -0.8951539405   -0.9590671977
 C    1.2325459633   -1.8884131138    0.7054727613
 C    0.6136348163   -0.5429916846    1.0916009272
 H    0.9027293589    2.0184054434   -0.1668761777
 H   -0.5289274526    1.9031383156   -1.1997744917
 H   -0.7081758671    1.9340337253    0.5586597563
 H   -0.9950560159   -0.3866169932   -0.3191581972
 H    0.2769252224   -0.7415734442   -2.2657729568
 H    1.6876695238    0.0868892136   -1.6364140384
 H    1.1557212998   -2.8271711527   -1.3625667054
 H    3.0933562492   -2.9097830338    0.1510034941
 H    3.1180912199    0.1699019814    0.1297546650
 H    4.2169105931   -0.8703628910    1.0310363365
 H    4.0243868066   -0.9994795598   -1.7655323751
 H    0.9074788632   -2.7700482232    1.2470114398
 H    1.3503082686    0.1473967047    1.5191602862
 H   -0.1593468213   -0.6750591160    1.8546198940