23

 C   -0.1288146108    1.5190067269    0.0205926018
 C    0.0663568190    0.0063901166   -0.0588406492
 C    1.0354724502   -0.4684212642   -1.1737431688
 C    1.6386922743   -1.7203581198   -0.5892407623
 C    1.4187633624   -1.8338775022    0.7256978896
 C    0.6255150334   -0.6427231866    1.2336385409
 C    1.9170177110   -2.9185845926    1.5929161786
 C    2.2818205343   -2.6737989719    3.0464576416
 C    1.0738125598   -3.5005236886    2.7152024091
 H    0.8210712103    2.0276047860    0.2229268427
 H   -0.5259676599    1.9186231833   -0.9188607077
 H   -0.8284545636    1.7914630493    0.8184175478
 H   -0.9066173061   -0.4603419867   -0.2583822096
 H    0.5210942195   -0.6352136487   -2.1277896353
 H    1.8121749780    0.2866165328   -1.3743646104
 H    2.2228589622   -2.4221271639   -1.1760589260
 H    1.2889375036    0.0535394659    1.7693622920
 H   -0.1704541137   -0.9100253537    1.9385501984
 H    2.5440388561   -3.6381247086    1.0742426955
 H    3.1636134239   -3.1711924168    3.4347314243
 H    2.1208626566   -1.6788583850    3.4460078117
 H    0.0952005051   -3.0693879796    2.8938479537
 H    1.1201065743   -4.5730829521    2.8678431316