18

 O    0.1083700451    1.5368979973   -0.4356006706
 C   -0.0394549217    0.2101185952   -0.0077581916
 C    0.4160334955   -0.0008220947    1.4709376535
 C   -0.5449174618   -1.0654804127    2.0341766669
 N   -1.7877657098   -1.0425220482    1.2319743032
 C   -2.3580033169    0.3033755283    1.0859050945
 C   -1.4987843076   -0.2618192254    0.0170225829
 C    0.7625911061   -0.7021577258   -0.9212241411
 O    1.4115224803   -0.2751945010   -1.8451129585
 H    0.6983526600    1.5027893441   -1.2056111268
 H    1.4655231940   -0.2975073674    1.5516828861
 H    0.3193858740    0.9668027486    1.9681247799
 H   -0.1180259414   -2.0696412365    1.9367045595
 H   -0.7777265738   -0.9115879386    3.0923921050
 H   -3.4340995911    0.3244769457    0.9447437339
 H   -1.9647437313    1.1171066020    1.6891820323
 H   -1.9417769238   -0.6102506497   -0.9120768279
 H    0.7255132341   -1.7854848311   -0.6867131709