18

 C   -0.0095511463    1.5399570986    0.0757774922
 N    1.5074855105    1.3836317783   -0.0385185958
 C    1.8268266260    0.7502876359    1.2784493109
 C    0.9749655746   -0.5119611753    1.1423582054
 C    1.5070676623   -1.2494933575   -0.0925919528
 O    0.4060539509   -2.0858488598   -0.5328805766
 C   -0.7785545264   -1.2397692265   -0.3956444845
 C   -0.0694743579    0.0151678106    0.0470324898
 C    1.2260966228    0.0773965296   -0.8156336050
 H   -0.3514190947    2.0912726923    0.9570897659
 H   -0.3958049300    2.0076627824   -0.8330908182
 H    2.9008555784    0.5530089387    1.3504243813
 H    1.5359005591    1.4050097175    2.1043465278
 H    0.6469294780   -1.0684576896    2.0197022032
 H    2.4215320291   -1.8416741611   -0.1349999527
 H   -1.2841528675   -1.1569948641   -1.3635504521
 H   -1.4626510411   -1.6848868445    0.3351746066
 H    1.2215879720    0.1842958545   -1.8985002354