15

 N    0.5788943484    0.0630509120   -0.6430341995
 C   -0.2912997956    0.2221867758    0.3802548679
 O   -0.2923749674    1.1564268402    1.1560551366
 C   -1.3777093648   -0.8665543804    0.5042924133
 N   -0.9971044716   -2.2025292955    0.0840923369
 C   -0.8553307858   -3.3216190259    0.8221156956
 N   -0.4902172816   -4.3395172449    0.0627246836
 C   -0.4140227650   -3.7742601988   -1.1688202645
 N   -0.7149409873   -2.4844628013   -1.2150276123
 H    1.2621439105    0.7855818376   -0.8002882316
 H    0.4700490849   -0.6920748031   -1.3049882123
 H   -1.6683941853   -0.9062067188    1.5538863177
 H   -2.2462467066   -0.5469312671   -0.0806513058
 H   -1.0321637198   -3.3446654571    1.8870415146
 H   -0.1368622430   -4.3217133629   -2.0573423603