23

 C    0.0013711762    1.4960310480    0.0290965434
 C   -0.0729592695    0.0045649771   -0.0173320595
 C   -0.0823160443   -0.7982520200   -1.0887061771
 C    0.0067711520   -2.2349463442   -0.6052560138
 C    1.4570179673   -2.4223041868   -0.0439408738
 C    1.4570893875   -1.4921326355    1.2055471052
 C    0.0024885453   -0.8973131942    1.2242357299
 C   -0.4208643820   -0.2890318127    2.5508294706
 C   -0.7910638261   -2.1256310244    0.7113680734
 H    0.9216187456    1.8358518090    0.5231680353
 H   -0.0160080038    1.9252681043   -0.9768030166
 H   -0.8308766714    1.9289644706    0.5977564391
 H   -0.0272541534   -0.4903220249   -2.1268369058
 H   -0.3021672003   -3.0033357807   -1.3151742681
 H    1.6305023680   -3.4659148908    0.2378614508
 H    2.2164918859   -2.1486185829   -0.7802250263
 H    1.6406642818   -2.0597230833    2.1242435989
 H    2.2140365014   -0.7045181828    1.1531619779
 H    0.2163943728    0.5578082766    2.8293405999
 H   -1.4547334893    0.0718068261    2.5149642985
 H   -0.3540481859   -1.0281587683    3.3567222067
 H   -1.8500594438   -1.9042857192    0.5518964125
 H   -0.6918649140   -3.0028040909    1.3619722691