21

 C    0.3396359178    1.2438624319    0.5974718801
 C   -0.0871322749   -0.1053682548    0.0111461012
 C   -1.6167583249   -0.1723330975   -0.1806615082
 O   -2.3445830134   -0.0574973974    1.0307149210
 C    0.6013800853   -0.4889034376   -1.2988230774
 C    0.5749417484    0.4267951934   -2.5196913014
 C    1.8664853614    0.2022221404   -1.8162792133
 C    0.5622382513   -1.9469368814   -1.6214092499
 O    0.9424649984   -2.4352397614   -2.6591605465
 H    1.4013726058    1.2555685817    0.8562887662
 H    0.1489320389    2.0722840748   -0.0950703470
 H   -0.2147144016    1.4430801214    1.5195743248
 H    0.1642985928   -0.8777829940    0.7520924172
 H   -1.9294414774    0.5887243139   -0.9124588100
 H   -1.8919395932   -1.1467779457   -0.5995573920
 H   -2.3525866855    0.8675949361    1.2913548402
 H    0.4244139159   -0.0645945359   -3.4740623985
 H    0.0873123704    1.3884647129   -2.4052453742
 H    2.2799557621    1.0046396819   -1.2182127451
 H    2.5920515733   -0.4476846859   -2.2915362710
 H    0.1627661090   -2.5912906966   -0.8051331459