18

 N    0.0234977119    1.3941597883   -0.1789566001
 C   -0.0306976030    0.0020812670   -0.0607191197
 C   -1.1206241586   -0.8358728735   -0.1142486145
 N   -0.6000703022   -2.1207161517   -0.0040243967
 C   -1.3450018745   -3.3604994338   -0.0619659149
 C   -1.7904319074   -3.7119384527   -1.4830791261
 O   -2.5006182429   -4.9331975314   -1.3910027452
 C    0.7453936141   -1.9835737012    0.0962118499
 N    1.1268979181   -0.7225693749    0.0720924225
 H    0.9037851683    1.7433088459    0.1781928724
 H   -0.7483090778    1.8680717911    0.2707138685
 H   -2.1783778147   -0.6576286142   -0.2082663579
 H   -0.7124867658   -4.1642086623    0.3245971099
 H   -2.2247078002   -3.2947144462    0.5863100902
 H   -2.4169694853   -2.9009834651   -1.8838797178
 H   -0.9033422472   -3.7957029670   -2.1291326336
 H   -2.7956744719   -5.1809480349   -2.2716422001
 H    1.3987627794   -2.8381698333    0.1955625932