17

 C   -0.3175207431    1.4864655577   -0.1148097068
 N    0.0066501195    0.0708851506    0.0040943761
 C    1.3404956392   -0.4499089810   -0.3185518820
 C    2.4728717900    0.4482760789   -0.6193333976
 C    2.9320146410    1.3030686438    0.3032569779
 N    2.4195076624    1.3469067534    1.5957485715
 C    1.4750446902    0.4704314825    2.1056825083
 O    1.2209594480    0.4379437600    3.2939789221
 C    0.8171800093   -0.4351592472    1.1072654369
 H    0.5295415964    2.1754024970   -0.0098720798
 H   -0.7668648026    1.6477308121   -1.0995758487
 H   -1.0647980303    1.7314514998    0.6455469325
 H    1.3069385634   -1.3889115865   -0.8659393782
 H    2.9212474486    0.4269132799   -1.6042823035
 H    3.7365440430    2.0026581679    0.1106927802
 H    2.8643374261    1.9293256450    2.2899743144
 H    0.4333532989   -1.3375064939    1.5756372966