19

 O   -0.5760772863    0.3915703800    0.4050391869
 C    0.2131645351    0.8243020765   -0.3941550670
 C    1.2876168744    1.8493179154   -0.0854967059
 C    1.2484961981    3.0202235848   -1.0457840023
 C    1.9260192829    2.9303895145   -2.4109355417
 C    2.4421463157    3.8808682676   -1.3593996064
 O    2.0816159338    5.2318050362   -1.4250900171
 C    0.6620607298    5.2991995786   -1.5745592132
 C    0.0881930960    4.0084474486   -0.9499113707
 H    0.1984744049    0.4873646847   -1.4568814746
 H    1.1683118171    2.1725055031    0.9540180228
 H    2.2573679005    1.3387261755   -0.1729899322
 H    2.5233746994    2.0459380456   -2.6078733851
 H    1.4221177399    3.3270978964   -3.2856955528
 H    3.4196809272    3.7399542371   -0.9127106702
 H    0.3162501990    6.2126078492   -1.0839869778
 H    0.3983336957    5.3680549610   -2.6388542621
 H   -0.8206221049    3.6804324931   -1.4639158312
 H   -0.1628825284    4.1587991622    0.1059294405