17

 O   -0.0413899600    1.3986126196   -0.1188077269
 C    0.0474940950    0.0015439631    0.0079331012
 C    1.0643925359   -0.5301708832   -1.0272634007
 C    2.3751638297    0.0777114471   -0.8057827093
 N    3.3833540006    0.6008131098   -0.5897890344
 C   -0.0104709869   -0.6421721740    1.4432209055
 C   -1.4503906901   -0.0754683054    1.5695637973
 C   -1.3253495419   -0.7195935437    0.1609440313
 N   -0.6605075913   -1.8856189654    0.8674398959
 H    0.8304791316    1.7826681602    0.0373717635
 H    1.1761665093   -1.6169202079   -1.0084389758
 H    0.7182687379   -0.2529901086   -2.0288927268
 H    0.7727556288   -0.6965984439    2.2010010491
 H   -2.0886327440   -0.6293006311    2.2563421794
 H   -1.5666550727    1.0029825600    1.6201768939
 H   -2.0978275658   -0.8624927758   -0.5964373460
 H   -0.0231003161   -2.3842729808    0.2435288526