20

 C    0.0901135534    1.3420327234   -0.1525771711
 C    1.4101593120    0.6310577701   -0.0259512103
 C    1.6766122736    0.2418773586    1.4412413576
 C    0.3317235120   -0.5664142377    1.4496203871
 C    0.0996649346   -0.1565602374   -0.0177863020
 C    0.0420329114   -1.0154566816   -1.2636902275
 C    1.1104069906   -0.3768920193   -2.2059576327
 C    2.1842227022    0.2720176020   -1.2770377845
 H   -0.2680815004    1.9466189423    0.6766159744
 H   -0.1592764188    1.7468833449   -1.1272985225
 H    2.5503373479   -0.4048620312    1.5556505135
 H    1.7659655381    1.0681624011    2.1545133663
 H    0.4938749201   -1.6408166369    1.5684620564
 H   -0.4333053267   -0.2536220688    2.1682160315
 H    0.3318176730   -2.0416129851   -1.0054373718
 H   -0.9397025180   -1.0728641162   -1.7474243831
 H    1.5454497217   -1.1078741141   -2.8934969377
 H    0.6441423356    0.3924409276   -2.8300934008
 H    2.6911534340    1.1093116388   -1.7700476291
 H    2.9567303937   -0.4640181405   -1.0217932036