16

 O    0.4785462863    0.0969303562   -0.4266675053
 C    0.2388723405    1.2092362365   -0.0789541035
 O   -0.9531157550    1.7082608631    0.3878598389
 C   -0.3772316731    3.0465058196    0.5580920801
 C    0.9760950894    2.5417122604    0.0431789998
 C    2.3164073609    2.5602748316    0.8242185029
 C    3.0597485276    2.6115703348   -0.5378993120
 C    1.7337640635    3.0681909835   -1.2041245971
 H   -0.8954129660    3.7726540245   -0.0730667295
 H   -0.4133481688    3.3514176711    1.6068454185
 H    2.4242736541    3.4918696420    1.3877953652
 H    2.5159840887    1.7166201391    1.4880815732
 H    3.9202439379    3.2779810123   -0.6181775223
 H    3.3493651442    1.6127969934   -0.8712245771
 H    1.4655624683    2.6321935714   -2.1686325265
 H    1.6603341714    4.1577597605   -1.2715733952