22

 C   -0.1272909296    1.3293306756    0.2830726070
 C   -0.1734506864   -0.1920267368    0.4814123317
 C   -1.5604924723   -0.7531905769    0.3309770224
 C   -2.6977939930   -0.6061490619    1.3677486656
 C   -3.1020055859   -2.0893003733    1.0644615219
 O   -4.4118055457   -2.3945865191    0.6319659343
 C   -2.0282069366   -2.1571142649   -0.0248904933
 N   -2.0694726301   -1.0728821582   -0.9816365070
 C   -3.2982724238   -0.5304743594   -1.5513787126
 H    0.8894237573    1.7129069438    0.4120541600
 H   -0.4651232104    1.5993889397   -0.7224086562
 H   -0.7719405208    1.8448296146    1.0033798052
 H    0.4771617576   -0.6808325991   -0.2513925905
 H    0.2122487583   -0.4457974849    1.4775771265
 H   -2.3381289301   -0.4680378887    2.3905641390
 H   -3.4535599870    0.1536998836    1.1519826152
 H   -2.8113194081   -2.7327901332    1.9067673854
 H   -4.9992095465   -2.3443084524    1.3929681857
 H   -1.4565794901   -3.0450230291   -0.2775398094
 H   -4.1424566991   -0.4583450888   -0.8582760036
 H   -3.0806373472    0.4626690121   -1.9581793804
 H   -3.6040274603   -1.1759404128   -2.3803914668