19

 C    0.0212481171    1.5582310769   -0.0724337710
 C    0.0021824224    0.0286106041    0.0094415921
 C   -1.4161245529   -0.5571421129    0.0507538674
 C   -1.4770127403   -2.0948569166    0.1784244249
 C   -2.9415159294   -2.4047026290    0.5609390694
 C   -2.4329583750   -1.7212539404    1.8532343450
 O   -1.1093480015   -2.2932352823    1.5896834475
 C   -2.1843427740   -0.2816770062    1.3709305038
 O   -2.4780968311    0.7598171991    1.8902363715
 H    1.0488641441    1.9340902059   -0.0722477717
 H   -0.4621023087    1.9094054108   -0.9911299490
 H   -0.5100170347    2.0030467589    0.7724377851
 H    0.5255268984   -0.3958230444   -0.8576213851
 H    0.5455020389   -0.3122948335    0.8971047100
 H   -2.0002157024   -0.1864721408   -0.8009982113
 H   -0.8972699528   -2.7003912064   -0.5179536512
 H   -3.7521038548   -1.9415327638   -0.0079962855
 H   -3.1144165220   -3.4701096174    0.7167279661
 H   -2.8282013512   -1.8876465420    2.8529473420