20

 C   -0.1027743334    1.5513252474    0.1835256982
 C    0.0167064389    0.0336637949    0.0176395647
 C    0.7198163306   -0.5817755163    1.2354733599
 O   -1.3359292058   -0.4404241065   -0.0494693711
 C    0.7747271452   -0.3575067386   -1.2699573902
 C    0.0990629351    0.1252722900   -2.5694839467
 C    0.7260284850   -0.4267462231   -3.7635156731
 C    1.2609640843   -0.8978072490   -4.7317827490
 H    0.8851665721    2.0211867119    0.1901540994
 H   -0.6930215290    1.9892518885   -0.6250147406
 H   -0.6053721329    1.7852127160    1.1260037142
 H    0.1604637025   -0.3553072328    2.1476347772
 H    0.7884612695   -1.6718359154    1.1364969871
 H    1.7381169112   -0.1957263237    1.3470734807
 H   -1.3105073497   -1.4037063028   -0.0516835089
 H    1.8018818367    0.0215858700   -1.2242256070
 H    0.8540281546   -1.4516437034   -1.3057813499
 H   -0.9599802016   -0.1549805320   -2.5353766029
 H    0.1245071677    1.2200528278   -2.6233544061
 H    1.7229429191   -1.3055295330   -5.5961927358