16

 N    0.0702201487    1.0561701524    0.7492025823
 C    0.0129864877    0.0515515545   -0.1609171973
 O    0.8920138352   -0.2262853216   -0.9547396659
 C   -1.2631341554   -0.7507068287   -0.0897641126
 C   -1.4307994843   -2.0327177035    0.7965446836
 C   -2.8947116562   -1.5346996693    0.6167972247
 O   -2.3719030763   -0.1602979372    0.6814819077
 C   -3.0984638298   -1.7157005982   -0.9002573264
 C   -1.9734092901   -1.1859919799   -1.3825124022
 H    0.8610920185    1.6784900782    0.7409427699
 H   -0.7363186856    1.2642245321    1.3146345945
 H   -1.1423399949   -2.9935554392    0.3695919806
 H   -1.0516201754   -1.8935285610    1.8117270841
 H   -3.7024288986   -1.7436519957    1.3161263682
 H   -3.9426858635   -2.1680457333   -1.3984663538
 H   -1.5913945199   -1.0654203097   -2.3839047474