21

 C    0.5815041533    1.3404150407    0.2966658989
 C   -0.1585266992    0.1330218068   -0.2947274437
 C    0.6834956356   -0.5799373133   -1.3257746937
 O    1.7060131075   -1.4575580914   -0.8685066615
 C    0.6146727555   -2.0383675651   -1.6152084393
 C   -0.2956498578   -3.0203925971   -0.9135322404
 C    0.4568517886   -4.2744777150   -0.4476705745
 C    1.0404972136   -2.4029449225   -3.0100937169
 O    0.5098411543   -3.2432447704   -3.6906983717
 H    1.5092024460    1.0245567567    0.7829885073
 H    0.8393432384    2.0686624611   -0.4796796879
 H   -0.0372226402    1.8496941991    1.0408584597
 H   -0.4306305358   -0.5596717368    0.5056608511
 H   -1.0904709506    0.4599828153   -0.7730306363
 H    1.0080377956    0.0647200034   -2.1488354139
 H   -0.7835839734   -2.5416867808   -0.0614890138
 H   -1.0794857420   -3.3006850685   -1.6250135518
 H   -0.2202222897   -4.9580816724    0.0721282638
 H    0.8892647650   -4.8114995778   -1.2966007919
 H    1.2660226907   -4.0063529485    0.2378338834
 H    1.9124810646   -1.8105368534   -3.3679721268