17

 C   -0.0463516110    1.7395242496   -0.0977778170
 C   -0.0161987882    0.2161503982   -0.0908554701
 C    0.4423038904   -0.3960931183   -1.4127239200
 O    1.6906475810    0.1446201705   -1.8361554775
 C    2.8155784875   -0.5491183553   -1.5349713759
 O    3.9021272898   -0.1409815333   -1.8034509819
 O    0.9020895261   -0.2466950292    0.9184171649
 C    0.4001016364   -0.6789580816    2.0933203504
 O    1.0890268777   -1.0648765425    2.9866904135
 H    0.9484193631    2.1367800168   -0.3082750059
 H   -0.7366732544    2.1025633453   -0.8653459957
 H   -0.3795458837    2.1182163527    0.8720196270
 H   -1.0165563440   -0.1851316501    0.1260719259
 H    0.5090656002   -1.4859139139   -1.3103692310
 H   -0.2810098191   -0.1633615385   -2.1990470715
 H    2.6043127734   -1.5145043722   -1.0403505475
 H   -0.7068371253   -0.6407105984    2.1255066423