19

 C    0.0344645031    0.9604288605    0.5591414783
 O   -0.2659793452    0.0331253888   -0.4749013409
 C   -1.4454963289   -0.6883445143   -0.2559074887
 C   -1.8866295954   -1.5749093003   -1.4325278616
 C   -2.1291385098   -2.7344761032   -0.4291931914
 C   -1.2656178701   -1.9919324331    0.6348101986
 O    0.0805482221   -2.3948960340    0.6807713076
 C   -1.8271445020   -1.9154395335    2.0320299026
 O   -2.9904289174   -1.7038782120    2.2737913314
 H    0.9598851556    1.4665815592    0.2772124328
 H   -0.7670787101    1.7031242436    0.6669040171
 H    0.1816079094    0.4556751884    1.5243024592
 H   -2.2492592225   -0.0529851760    0.1357722588
 H   -2.7303619624   -1.2223327973   -2.0279213969
 H   -1.0404893708   -1.7719555272   -2.0950595741
 H   -3.1684557528   -2.8035001755   -0.1014236376
 H   -1.7532558688   -3.7210234459   -0.7022408776
 H    0.5824701581   -1.7408011172    0.1729483843
 H   -1.0660516722   -2.0486639009    2.8333134881