16

 O   -0.0077672065    1.4210617166   -0.1059033889
 C    0.0447635943    0.0124214951   -0.0499096885
 C    0.9896070352   -0.5457963362   -1.0048081186
 C    1.8102304094   -0.9427168750   -1.7887094896
 C   -0.0145345380   -0.6269245134    1.3582925618
 C   -1.5054517206   -0.2279770530    1.5735564525
 C   -1.8188757882   -1.6851012807    1.8951737711
 N   -0.7660467847   -1.8653197554    0.8018965442
 C   -1.3473955864   -0.6240955930    0.0742252176
 H    0.8880544933    1.7453806293   -0.2452487367
 H    2.5209451605   -1.3157007150   -2.4844484365
 H    0.7739175956   -0.7416772746    2.1040857031
 H   -1.9026080854    0.7019460091    1.9860616741
 H   -1.5074008984   -2.0817051710    2.8669918221
 H   -2.8028338112   -2.0777984174    1.6186886837
 H   -2.1212261789   -0.7304398955   -0.6870183514