20

 C   -0.0322870197    1.5236643165   -0.0890385339
 C   -0.0154522635   -0.0072215348    0.0002362665
 C    0.8052858456   -0.4970749358    1.1994808839
 C   -1.4445672140   -0.5447222349    0.0493242798
 O   -1.4136823177   -1.9596855802    0.0015115045
 C   -2.6806801796   -2.5547300364    0.0703076132
 C   -2.5030936024   -4.0619927016    0.0086497486
 O   -3.4149461061   -4.8439086901    0.0507782027
 H    0.9853718469    1.9195107317   -0.1588251779
 H   -0.5879957307    1.8725420200   -0.9660111566
 H   -0.4972496173    1.9657211123    0.8002839793
 H    0.4400661498   -0.4053046103   -0.9163497738
 H    0.4000312910   -0.0982028287    2.1375562874
 H    0.7909106952   -1.5875314044    1.2623898137
 H    1.8465553226   -0.1689286968    1.1214967036
 H   -1.9463193954   -0.2089254994    0.9741742486
 H   -2.0314429761   -0.1539961919   -0.7988778563
 H   -3.2114534718   -2.2989344211    1.0036379720
 H   -3.3337146843   -2.2420310746   -0.7629674491
 H   -1.4408156926   -4.3801626995   -0.0801567661