21

 O   -0.0392581201    1.3894224873   -0.0658978712
 C    0.0245974776   -0.0254015589   -0.0035294760
 C    0.6510918266   -0.5728415431    1.3062141265
 C    0.0348660561   -1.9925779201    1.4535120951
 C   -1.0556603154   -2.0963245741    0.3435974210
 C   -1.3886553745   -0.6207080993    0.0558337724
 C   -0.5033612138   -2.7507883537   -0.9401339742
 C    0.5012440049   -1.8577799398   -1.6266049096
 C    0.7427130272   -0.6171718362   -1.2058705083
 H    0.8617568201    1.7296788624   -0.0570140616
 H    1.7447104200   -0.5860577909    1.2721348610
 H    0.3493987856    0.0842697991    2.1290425706
 H    0.7844536125   -2.7820912426    1.3473568219
 H   -0.4130790597   -2.1141978122    2.4437822524
 H   -1.9246474835   -2.6617936348    0.6906827136
 H   -1.9468692786   -0.1627029514    0.8793278157
 H   -1.9461044025   -0.4661090555   -0.8716869126
 H   -0.0418970395   -3.7183277537   -0.6986871848
 H   -1.3243232152   -2.9827728599   -1.6349749783
 H    1.0238588274   -2.2587020901   -2.4919016342
 H    1.4737874351    0.0166929974   -1.7036764093