11

 O    0.1011516026    1.3638356741    0.1347230670
 C    0.0681275921    0.0119211865    0.0398916593
 C    0.0811412543   -0.6943135781   -1.1614505576
 N    0.0472432473   -2.0256339731   -1.2020810785
 C   -0.0000678821   -2.6522254606   -0.0272662666
 N   -0.0167308984   -2.0795744208    1.1788620690
 C    0.0173908008   -0.7504768520    1.2087305315
 H    0.1344178183    1.7490091675   -0.7483633179
 H    0.1200591122   -0.1672668250   -2.1158804165
 H   -0.0279409265   -3.7377994757   -0.0526093535
 H    0.0048494495   -0.2580097727    2.1782325239