17

 O   -0.0302788083    1.3405170595    0.3985825772
 C   -0.1056440989   -0.0127449125    0.1691260205
 C    0.7905072065   -0.7808898346   -0.8058165347
 N   -0.3216211612   -1.7620543798   -1.0851903914
 C   -1.2445504522   -0.9402676134   -0.2755649900
 C   -0.7523680405   -0.9622315741    1.1421672424
 N   -0.0745231409   -2.0938194001    1.6955080960
 C    0.9053446171   -1.9133811587    2.6191575374
 O    1.1992600847   -0.8368051978    3.1016355306
 H    0.3712901627    1.4577167962    1.2693202493
 H    1.0351817022   -0.1671769548   -1.6768726947
 H    1.7022444315   -1.2397068153   -0.4086647963
 H   -0.5813004310   -1.7233891460   -2.0652797260
 H   -2.2831816711   -0.7892412899   -0.5448976915
 H   -1.4047814481   -0.4391507600    1.8373493581
 H   -0.1421181550   -2.9697162476    1.1985791143
 H    1.4006443726   -2.8619298810    2.9042448988