23

 C   -0.0005096243    1.6063695016   -0.0435419360
 C    0.0206940608    0.0876482021   -0.0510676970
 C    1.2187410504   -0.6369197278   -0.7340095913
 C    1.0341399858   -1.7607936777    0.3175450713
 C    0.4285490331   -0.6728060377    1.2522326103
 C   -0.0387054349   -2.7429919015   -0.1789377790
 O   -0.1350588283   -3.9103201484    0.6290453704
 C   -1.4030917192   -2.0256063711   -0.2942322129
 C   -1.2806447009   -0.5183134787   -0.6172430669
 H    0.9493582572    2.0148316332    0.3182104053
 H   -0.1731503977    2.0046204878   -1.0508523110
 H   -0.7988879219    1.9903629171    0.6025970296
 H    1.1180245118   -0.9031670343   -1.7922396032
 H    2.1567766137   -0.0927736684   -0.5891113922
 H    1.9164094711   -2.3092061785    0.6547314414
 H    1.2124151699   -0.1333489530    1.7915682527
 H   -0.3554566654   -0.9519291778    1.9642362466
 H    0.2771456720   -3.1241641293   -1.1575379951
 H   -0.4106558191   -3.6334313481    1.5100831344
 H   -2.0483406098   -2.5387331143   -1.0128783397
 H   -1.8980430103   -2.1353920543    0.6785926520
 H   -2.1510836355    0.0082636846   -0.2075056693
 H   -1.3007306187   -0.3476165954   -1.7010524607