25

 C   -0.4071738704    1.7647030135   -0.5245871916
 C   -0.4719062894    0.2355501392   -0.4377830538
 C    0.5222820999   -0.4400475082   -1.3811380694
 C    1.9930575615   -0.4004157157   -0.9092588503
 O    1.9832840785   -1.8080863631   -0.6072474098
 C    0.7134737875   -1.9846634314   -1.2830206904
 C   -0.2527030635   -2.8817599013   -0.5173352941
 C   -1.5377153012   -3.1087384090   -1.3260891166
 C    0.4327195824   -4.2132009599   -0.1770877306
 H    0.5924268210    2.1378083283   -0.2757534434
 H   -0.6476312272    2.1137326438   -1.5349831931
 H   -1.1150270451    2.2311445380    0.1672377713
 H   -0.2724521953   -0.0801148433    0.5935898761
 H   -1.4909536248   -0.0954262829   -0.6704996210
 H    0.3629149097   -0.0806057768   -2.4022506369
 H    2.7243917970   -0.1551966409   -1.6914980212
 H    2.2071470601    0.2069776512   -0.0209944442
 H    0.8837516114   -2.4264266684   -2.2796931153
 H   -0.5105463744   -2.3837660561    0.4254143256
 H   -2.2425495691   -3.7316810774   -0.7664826353
 H   -2.0445752390   -2.1699247243   -1.5705150326
 H   -1.3184885452   -3.6235210571   -2.2691566345
 H    1.3519573254   -4.0427087469    0.3879435870
 H   -0.2298171004   -4.8503684766    0.4176836532
 H    0.6939257304   -4.7627211650   -1.0895599792