16

 C   -0.1478187367    1.6816410759    0.2487608138
 C   -0.1246386579    0.1770201928    0.1351908831
 C   -1.3682659293   -0.4856760626   -0.4598227534
 C   -1.6865117060    0.0006963297   -1.7974489304
 C   -1.9410377691    0.4104395436   -2.8975563840
 O    1.1134403849   -0.4008738239   -0.2867142570
 C    0.6939959228   -0.6497026495    1.0568937960
 C    1.4839257594   -0.0544672622    2.1132273842
 N    2.0985277372    0.4048734757    2.9776538006
 H    0.7779589707    2.0542516871    0.6897588003
 H   -0.2712883089    2.1216634283   -0.7442230310
 H   -0.9886548161    2.0049645210    0.8707329996
 H   -1.2108706375   -1.5696330003   -0.4886855613
 H   -2.2169975332   -0.3035018315    0.2123623695
 H   -2.1678277305    0.7629578854   -3.8734647892
 H    0.3869573602   -1.6740874295    1.2633143791