18

 O   -0.2478633056    1.5387159315    0.1451294175
 C    0.0321310744    0.1466259498    0.1585599308
 C   -1.3060685204   -0.5755103401   -0.0534539066
 N   -1.8899154508   -0.1541344256   -1.3143122650
 C   -2.2926798332   -0.9152341146   -2.3714333003
 O   -2.7189516905   -0.4188878359   -3.3981962307
 C   -2.1887892507   -2.4269283668   -2.2049492764
 C   -1.5462008864   -2.8920751897   -0.9332510982
 C   -1.1526064515   -2.0632146310    0.0276764801
 H    0.5804059406    2.0198320607    0.0670877398
 H    0.7246492189   -0.1378646807   -0.6462964164
 H    0.4680373310   -0.1657707830    1.1200564707
 H   -1.9600039779   -0.2411723310    0.7699724028
 H   -1.9320987249    0.8441031428   -1.4662009852
 H   -3.2037374541   -2.8351262137   -2.3023866019
 H   -1.6500091808   -2.8055157370   -3.0824003389
 H   -1.4169425562   -3.9644130718   -0.8091230529
 H   -0.7030084918   -2.4411210540    0.9413000408