22

 C    0.1441891663   -0.3916626065   -2.2156841488
 C   -0.1526348711   -0.0933495794   -0.7394001653
 C   -0.1622744604    1.4191352077   -0.4809838428
 C   -1.4833027838   -0.7124455225   -0.2602297662
 C   -1.5660976302   -2.2253394169   -0.3252396548
 C   -2.8969478993   -2.8837605842   -0.5588392916
 N   -1.8704833071   -2.9399465217   -1.5912706283
 C   -0.6320426998   -3.0044960127    0.5436165307
 O    0.0404494476   -2.5304883710    1.4255655636
 H    1.0870673892    0.0731214202   -2.5215436193
 H    0.2282221930   -1.4648328845   -2.4101778119
 H   -0.6428955476    0.0123090348   -2.8661960116
 H    0.6467684499   -0.5332312380   -0.1326505936
 H   -0.3257702958    1.6427560391    0.5782864055
 H    0.7884725274    1.8740853508   -0.7768874768
 H   -0.9574884061    1.9129695674   -1.0534431820
 H   -1.6489162826   -0.4142099241    0.7815723116
 H   -2.3128521607   -0.2891373863   -0.8441184275
 H   -3.1302924543   -3.8346723031   -0.0869161702
 H   -3.7452294528   -2.2148907484   -0.6792185567
 H   -2.0596262960   -2.2545806661   -2.3179908780
 H   -0.6208861258   -4.0926903848    0.3117471639