19

 C   -0.1500363295    1.4369927944    0.0212014944
 C    0.0388535398   -0.0746207024    0.0442623067
 C    0.8441385318   -0.6267785023   -1.1353050868
 C    2.1519102067   -0.5410461530   -0.3685942975
 C    1.2375163585   -0.5505305211    0.9175394430
 C    1.2149012625   -2.1090559905    0.8012922774
 O    0.0241559336   -2.8220145061    1.0553097620
 C    1.5668111861   -1.8987368378   -0.6560276067
 O    2.0805484855   -2.8297555453   -1.5330357072
 H    0.7952979247    1.9516236572   -0.1834855793
 H   -0.8670052925    1.7344065315   -0.7519953783
 H   -0.5309359605    1.7980820732    0.9832523176
 H   -0.9083206253   -0.5809584973    0.2615188632
 H    0.6987185167   -0.4678723024   -2.1973651475
 H    3.1196827398   -0.1241869232   -0.6004617208
 H    1.4663753824   -0.0692682532    1.8673764649
 H    2.0710163685   -2.5479800535    1.3321470640
 H   -0.0505780468   -2.9674077543    2.0035681987
 H    1.3446433880   -3.3366156637   -1.8940855677