16

 C    0.0218742407    1.4087676177    0.0054214716
 O    1.3023425665    1.9608812413   -0.0384950724
 C    2.0479937193    1.7016837235    1.1576296635
 C    1.8914641918    0.2572012515    1.5240591282
 C    2.5572621611   -0.5874435174    2.3843745692
 N    1.9811125802   -1.8257164483    2.2807451840
 C    0.9444795595   -1.8056629147    1.3700759508
 C    0.8791433650   -0.5180572756    0.8949309144
 O    0.0261124842   -0.0128962382   -0.0427933115
 H   -0.5083431687    1.7299578770    0.9190832007
 H   -0.5085244640    1.7423896578   -0.8874750091
 H    3.0828591890    1.9693516922    0.9240730617
 H    1.7022705824    2.3756387245    1.9589725456
 H    3.3865409693   -0.4128516216    3.0508378828
 H    2.2692138708   -2.6371094658    2.7965687178
 H    0.3680567230   -2.6839272640    1.1369156327