15

 C    0.0674544841    1.5193100590    0.1217383022
 C   -0.0935615050    0.0095855295   -0.1262152823
 C    0.6600625087   -0.4533279169   -1.3266329816
 N    0.1153319006   -0.8893809386   -2.4440455325
 N    1.1958094827   -1.1584337955   -3.1946617471
 C    1.0732781566   -1.6709570096   -4.5161637475
 O    2.0030992824   -1.9235331014   -5.2165983176
 N    2.3584640149   -0.8997063141   -2.5675863066
 N    2.0366800530   -0.4573328310   -1.3987239403
 H    1.1214081648    1.7811246990    0.2463136402
 H   -0.3314583757    2.0988866497   -0.7159280235
 H   -0.4700459244    1.8133751827    1.0271777759
 H    0.2737001555   -0.5447307935    0.7445108999
 H   -1.1466692956   -0.2499657769   -0.2613910408
 H    0.0072100072   -1.7873377723   -4.7651295883