21

 C   -0.0711699878    1.5673271498   -0.0734682785
 C    0.0196566735    0.0355143103   -0.0322292002
 C    0.7221740452   -0.4908262054   -1.2872957184
 O   -0.0509909878   -0.1073918642   -2.4163131801
 C    0.7329835073   -0.4782336072    1.2468954035
 C    0.0727265253    0.0386619455    2.5517686188
 O    0.7125199495   -0.4473004995    3.7101616351
 C    0.7767977926   -1.9405533975    1.3087504748
 C    0.7752804465   -3.1382393323    1.4321499660
 H    0.9157916110    2.0232971509    0.0735814377
 H   -0.4464234015    1.8816282071   -1.0493085428
 H   -0.7435019151    1.9637902145    0.6915240301
 H   -0.9964953230   -0.3797151304   -0.0420418893
 H    1.7401518410   -0.0679764925   -1.3406683667
 H    0.8179293518   -1.5833761483   -1.2273186655
 H    0.3928173041   -0.4274128009   -3.2065800204
 H    1.7674658553   -0.1052051178    1.2436457503
 H    0.1540341570    1.1267704123    2.5960646564
 H   -0.9977976837   -0.2224432432    2.5336297823
 H    0.7154571078   -1.4105584165    3.6491202039
 H    0.7905432712   -4.1977619747    1.5066589728