15

 N    0.0388898915    1.3793337965    0.0562104680
 C   -0.0355717402    0.0189654716   -0.0419923042
 C   -1.1870555852   -0.6849452013   -0.1296267726
 C   -1.2019232998   -2.1336305333   -0.0926927654
 O   -2.2211154747   -2.7932485521   -0.0534121447
 C    0.1569543114   -2.8298237041   -0.1390685748
 N    0.2406602544   -4.0891017276   -0.1209676814
 O    1.2777510187   -2.0497314915   -0.3031751499
 C    1.2856772686   -0.6898798187    0.0831068044
 H    0.8931138498    1.8421028604   -0.2095959870
 H   -0.8012483642    1.9127662965   -0.1025448770
 H   -2.1522166671   -0.1912369110   -0.1844939121
 H    1.2209704982   -4.3741172568   -0.1856569386
 H    2.0362349050   -0.2008795093   -0.5505590151
 H    1.6357526336   -0.6003967294    1.1229863405