16

 C   -0.0225823902    1.4701457872    0.0009842346
 N   -0.0005452371    0.0237864149    0.0291992080
 C   -0.0180118509   -0.7604019291   -1.1220415611
 O   -0.0529220308   -0.3501034582   -2.2582556695
 C    0.0172845336   -2.1878607850   -0.5769922342
 N    0.0526714480   -2.0766710112    0.8799825476
 C    0.0406380547   -0.8235302130    1.1465129927
 C    0.0671535520   -0.2527851310    2.5253593164
 H    0.8745459419    1.8958984323    0.4622126161
 H   -0.0554922770    1.7626164335   -1.0507708998
 H   -0.9054145945    1.8696106902    0.5107090484
 H   -0.8630787066   -2.7485208532   -0.9108203039
 H    0.8959376294   -2.7221538253   -0.9555654466
 H    0.0978476872   -1.0715779756    3.2440356794
 H    0.9439683660    0.3875728268    2.6713992173
 H   -0.8200427156    0.3608837268    2.7163631845