20

 C   -0.0033508077    1.4069661408   -0.0070351858
 O   -0.2444813317    0.0228820992    0.1407564804
 C    0.5645537828   -0.5920297799    1.0982641939
 C    0.1285468297   -1.9777398660    1.5509421813
 N    0.3123234934   -2.9124277560    0.4127749349
 C    1.4737258542   -2.5420444701    1.2509061946
 C    1.9800412917   -1.1884303412    0.7000202197
 C    2.3780061577   -1.1511906133   -0.7638508103
 O    2.9459660941   -0.5836340593    1.5458448429
 H    1.0193463064    1.6192777897   -0.3483728527
 H   -0.7081666227    1.7784124941   -0.7548048133
 H   -0.1676862766    1.9472103279    0.9381659409
 H    0.7283465388    0.0595862479    1.9683603220
 H   -0.5639923575   -2.2120604980    2.3498046982
 H   -0.0141862260   -3.8250181729    0.7294572260
 H    2.0491649313   -3.2777559212    1.7999626020
 H    1.5867247238   -1.5770667919   -1.3818231418
 H    2.5705802882   -0.1231069862   -1.0839197190
 H    3.2941653722   -1.7343705459   -0.9256444698
 H    3.8021929480   -0.9766681876    1.3430907058