19

 C   -0.1510971395    1.5569787571   -0.0681741115
 C   -0.0713096650    0.0582718861    0.1092096457
 N    1.1537417223   -0.6203433964   -0.2909798721
 C    0.7720590578   -0.6587764389    1.1427500185
 C    1.6725000281    0.1778123742    1.9933255261
 O    1.6884511190    0.1727505648    3.2028766428
 C    0.2173366864   -1.9446468976    1.6932345611
 C    1.0014955021   -2.8320749796    2.5920330012
 N   -0.1775656861   -2.1113688657    3.0977875025
 H    0.8228938514    2.0322312776    0.0614297871
 H   -0.5045007155    1.7924637639   -1.0776058416
 H   -0.8548543689    1.9962112164    0.6459453300
 H   -1.0101532749   -0.4606493416   -0.0875566245
 H    0.9625280088   -1.5231045873   -0.7193821546
 H    2.3513017199    0.8323441832    1.4094538344
 H   -0.4730004083   -2.4195532541    0.9940900118
 H    0.8892039856   -3.9098646855    2.5126355854
 H    1.9832413295   -2.4961354414    2.9122804186
 H    0.1497950073   -1.3028163850    3.6226133689