16

 O   -0.1062122677    1.5109797501    0.0514737663
 C   -0.0124541076    0.1154806786   -0.0479612467
 C    0.0552489899   -0.6045311763    1.3145604525
 N   -1.4214899707   -0.1329356154    1.5285183702
 H   -1.9728677513   -0.6740307228    2.1939422273
 H   -1.5597965054    0.8778845705    1.6020729767
 C   -1.3398228975   -0.6992892107    0.0785057612
 C   -0.5121846608   -1.8812711200    0.6425460412
 C    0.4149781801   -2.7727513505   -0.3164433553
 O    0.5857430879   -3.9037779747    0.1353349456
 O    0.8112463524   -2.1924854995   -1.3477215279
 H    0.0769278405    1.8943156357   -0.8107222796
 H    0.6526622232   -0.2990952756   -0.8081177925
 H    0.7584006917   -0.4820895362    2.1363916359
 H   -2.2385688599   -0.6869452200   -0.5349014432
 H   -1.0592690047   -2.5276395332    1.3348492984