18

 N   -0.0142308928    1.3215019216   -0.3774917566
 C    0.0712483927    0.0515809064    0.0829460385
 O    1.0913027960   -0.4596223049    0.5107503626
 C   -1.2483742056   -0.7244172900    0.0720223679
 O   -2.2481407773    0.0409366089   -0.5968181787
 C   -1.1118751275   -2.1392694164   -0.5421604280
 C   -2.0543394548   -3.0030695563    0.3373644374
 O   -2.6768387161   -2.1026937459    1.2613204466
 C   -1.7230488320   -1.0767314441    1.4938189402
 H    0.8194453154    1.8834777227   -0.4092503070
 H   -0.8850496754    1.6629657237   -0.7467605738
 H   -3.0994328369   -0.3406305918   -0.3504678161
 H   -1.4100509218   -2.1133091751   -1.5917494347
 H   -0.0763521289   -2.4740643469   -0.4719498894
 H   -2.8495217981   -3.5019211764   -0.2218695043
 H   -1.4858709461   -3.7662159649    0.8865330299
 H   -0.8763200942   -1.4285656743    2.0999150669
 H   -2.2218098568   -0.2441744465    1.9953252787