19

 C   -0.0171909418    1.5152829407    0.2674534905
 C    0.0231262677    0.0236217780   -0.0946469960
 C   -1.3418585791   -0.5839932860   -0.1787806847
 O   -2.0554978842   -0.8457852600    1.0398454200
 C   -1.8820155375   -1.9239111383    0.1083577817
 C   -2.9827293028   -1.7807097645   -0.9470583179
 C   -2.4263525412   -0.3420548702   -1.2751588842
 C   -3.3428647503    0.8281085408   -1.0410803510
 O   -3.5676895260    1.6915256388   -1.8535850761
 H    0.9940927368    1.9275808262    0.3228094686
 H   -0.5728915997    2.0914611653   -0.4793679778
 H   -0.5000413898    1.6642763165    1.2376137679
 H    0.5299971010   -0.1156219540   -1.0574211465
 H    0.5981212571   -0.5314487519    0.6549778775
 H   -1.3979354237   -2.8195932494    0.4804900507
 H   -2.8758975528   -2.4554719641   -1.7985509627
 H   -4.0035882861   -1.8374317455   -0.5604844972
 H   -2.0030111556   -0.2781568160   -2.2796365280
 H   -3.8077733220    0.8468698836   -0.0321157849