15

 C   -0.3797947342    1.3407816768   -0.0170921263
 N    0.0530552318   -0.0473935765    0.0000981476
 N    0.2477380738   -0.6372444158   -1.1992498326
 C    0.6335442779   -1.8736094715   -1.1861850610
 N    0.8643550805   -2.6436330350   -0.0702998545
 C    0.6731128063   -2.0625043689    1.0636306553
 O    0.8696206204   -2.7225068737    2.2093707884
 C    0.2360779647   -0.6676119124    1.2289792009
 N    0.0273417216   -0.0291221373    2.3213827046
 H    0.3454065672    1.9655203443    0.5122137806
 H   -0.4655445117    1.6417847881   -1.0592672391
 H   -1.3389327574    1.4402010301    0.4991367599
 H    0.7887725497   -2.3439783390   -2.1488374786
 H    1.1514611996   -3.6182726482    1.9713825154
 H    0.2105803597   -0.6377825712    3.1157853592