16

 C   -0.0737517811    1.5061798239    0.0138496087
 O    1.1104133191    0.6828496718    0.0238368069
 C   -0.1529765600    0.0485219887    0.0126434468
 C   -0.4891178568   -0.9780194784    1.0580749967
 C   -1.7097749148   -1.7870450596    0.7018515842
 C   -2.6760394900   -1.2538896424   -0.3061738255
 C   -1.9909054935   -0.8551914487   -1.3779205916
 C   -0.5196653835   -0.9937854540   -1.0643088912
 N   -0.4303300694   -2.0846098237    0.0239230203
 H   -0.2611457913    2.0606953790    0.9322162192
 H   -0.2431430856    2.0623600219   -0.9071755843
 H    0.0012769706   -1.0555834804    2.0231333976
 H   -2.0264331606   -2.5261189840    1.4324363117
 H   -3.7455047857   -1.2092212150   -0.1499751144
 H   -2.3799260256   -0.3748999462   -2.2660815121
 H    0.1821914584   -1.1185927931   -1.8875073029