11

 N   -0.0445919627    1.3419041731    0.1509617619
 C   -0.0845137835    0.0862645181   -0.0190215266
 C   -1.2417330575   -0.7504182426   -0.0677363848
 C   -1.1377454375   -2.0960687767   -0.2576984958
 O   -0.0225811321   -2.7726838667   -0.4134694357
 N    1.3619788410   -1.8101545938   -0.3610725827
 N    1.1760004217   -0.6619423212   -0.1934433894
 C   -2.3263873766   -2.9114707578   -0.3018670448
 N   -3.2799471389   -3.5647951141   -0.3371614410
 H    0.9134346168    1.6916981225    0.1442423373
 H   -2.2112527208   -0.2899256308    0.0502320816