18

 C   -0.1716389185    1.5751667494    0.0128428575
 C   -0.0310484825    0.0514924793    0.0037030532
 C   -1.3866691921   -0.6565249519    0.0110969691
 C   -1.2677966563   -2.1623789494    0.0019442449
 O   -0.2506981924   -2.8052816182   -0.0109381720
 O   -2.4998977187   -2.7417065216    0.0102301509
 C   -2.4728011776   -4.1715440167    0.0022372607
 C   -3.8536511055   -4.6502642135    0.0143542074
 N   -4.9311785079   -5.0641221024    0.0236661306
 H    0.8092247809    2.0591241296    0.0073763639
 H   -0.7232387983    1.9307750937   -0.8645678683
 H   -0.7088157610    1.9215111735    0.9028172790
 H    0.5356980100   -0.2710956172   -0.8761437148
 H    0.5500109940   -0.2802207951    0.8707357457
 H   -1.9810945906   -0.3743200698    0.8892270914
 H   -1.9953822753   -0.3649655100   -0.8541126626
 H   -1.9527394126   -4.5413483580   -0.8874279252
 H   -1.9339218956   -4.5508575217    0.8765557188