19

 C    0.0032311097    1.4211260639   -0.2920420990
 C    0.0012469287   -0.0178274668   -0.0652182724
 C    0.0344588477   -1.2083428171    0.1188950139
 C    0.0039330932   -2.6512642057    0.3515366007
 C   -1.3967615886   -3.2107871159    0.1329876044
 O   -2.3739263335   -2.6466817627    0.9575911413
 C   -1.8156530904   -3.6596714362   -1.2562706227
 C   -1.5818867976   -4.6636827896   -0.1394447382
 O   -0.4349989392   -5.4634438497   -0.1486441995
 H    0.9917913551    1.7685331545   -0.6121717282
 H   -0.7134372570    1.7048377045   -1.0707275043
 H   -0.2609509952    1.9710391984    0.6180155767
 H    0.7137648746   -3.1712056020   -0.2982304830
 H    0.3079071405   -2.8673998543    1.3836849135
 H   -2.3604273307   -1.6952852005    0.7898683573
 H   -2.8400184079   -3.4712574723   -1.5570940340
 H   -1.0743965450   -3.6128988897   -2.0474012737
 H   -2.4658415645   -5.1157680794    0.3093280308
 H   -0.5346158201   -6.1161893292   -0.8493961338