17

 O    0.0145950747    1.4654931473   -0.1345332256
 C   -0.0388369168    0.0687116127    0.0035496854
 C    1.0250765107   -0.6000693636   -0.7209202830
 C    1.9377208102   -1.1187077643   -1.3078117894
 C   -0.4517003688   -0.7025804598    1.2513908112
 C   -1.6349703925   -0.1329028830    2.0764154975
 C   -2.2297680649    1.1583431084    1.5749579884
 C   -2.5083264166   -0.1233056173    0.8341645361
 C   -1.3351579481   -0.6971625795   -0.0053546201
 H    0.8667796135    1.7541937222    0.2129432415
 H    2.7354403324   -1.5777216186   -1.8376371376
 H    0.1808655748   -1.4988819598    1.6231478692
 H   -1.8700277636   -0.5349291482    3.0533509773
 H   -3.0756026732    1.4881821138    2.1729684515
 H   -1.6327157581    1.9497202726    1.1502856667
 H   -3.5090387852   -0.5184576049    0.7188015671
 H   -1.4856650085   -1.4907727380   -0.7262242662