21

 C   -0.3615345026    1.2691048517   -0.1981130808
 C    1.0610136337    1.1290102953    0.2860545372
 C    0.2324499939   -0.0990896298    0.0037528981
 C   -0.2147726569   -0.9747704322    1.1457145665
 O   -0.5417387337   -0.2208657837    2.3425163778
 C   -1.8646204162   -0.7999480890    2.4210729077
 C   -1.6292113538   -1.5695459249    1.1290845332
 C   -2.5557652034   -1.7492534956   -0.0311447706
 C   -2.0693833977   -2.9485315511    0.7539724612
 H   -1.0927767901    1.6052862451    0.5279629708
 H   -0.5354826423    1.6104342747   -1.2125201609
 H    1.8706361197    1.3707109862   -0.3934374944
 H    1.2498765499    1.3669055333    1.3265844778
 H    0.4911253862   -0.6604334397   -0.8911150948
 H    0.5641992611   -1.7204148442    1.3680992983
 H   -1.9857278626   -1.4116822631    3.3252352805
 H   -2.6495117304   -0.0329023034    2.3975617936
 H   -3.5900481142   -1.4423431307    0.0906149916
 H   -2.1611574929   -1.5933246332   -1.0297890898
 H   -1.3428769562   -3.6062804884    0.2861942742
 H   -2.7737029016   -3.4571282076    1.4051792228