16

 O   -0.0502205927   -0.0808120389    0.0022609900
 C   -0.0624458558    1.1307485207    0.0468179727
 N   -1.2067444265    1.8691336275    0.0072647939
 C   -1.2912518491    3.3168368380    0.1280447294
 C    0.0350174215    3.9207910162   -0.3105532435
 O    1.0940404306    3.3215126713    0.4092609237
 C    1.2582929186    1.9488394476    0.0650802615
 C    2.2250868739    1.3546105169    0.9772773611
 C    3.0331324330    0.8784389892    1.7252507258
 H   -2.0543642015    1.3199512724    0.0248495017
 H   -2.1043166993    3.6882936274   -0.5061699902
 H   -1.5057565184    3.6156421275    1.1632674432
 H    0.1740802751    3.7862262163   -1.3956947519
 H    0.0656752231    4.9895798754   -0.0856992816
 H    1.6476434763    1.8746278623   -0.9669004703
 H    3.7413688612    0.4476357801    2.3890099346