19

 O    0.2286345613    1.3714192805    0.1934938124
 C    0.0434225719   -0.0242732501   -0.0269485963
 C   -1.4458982056   -0.3687887576    0.0840709854
 O   -2.2739383332    0.5099559144   -0.6639481402
 C   -2.1184152733    0.4555873772   -2.0932354634
 C   -2.0473211752   -0.9330965974   -2.6577551731
 C   -0.9038455363   -1.6263971422   -2.7513994679
 C    0.4234781623   -1.1547238682   -2.3523105954
 C    0.7961061270   -0.4509159160   -1.2730027336
 H   -0.5687567928    1.7950901100   -0.1513063632
 H    0.5440695109   -0.5318282409    0.8120750201
 H   -1.6242696346   -1.4181735786   -0.1762043605
 H   -1.7538969156   -0.2123535281    1.1218464573
 H   -2.9889637671    0.9914119988   -2.4808092321
 H   -1.2153283298    1.0096097633   -2.3844406764
 H   -2.9726005029   -1.3858384798   -3.0029361881
 H   -0.9291482826   -2.6054434365   -3.2279819967
 H    1.2173873167   -1.4272525029   -3.0479129838
 H    1.8440992290   -0.1610704659   -1.2141918046