18

 C   -0.1371155223    1.3668774906   -0.2380580391
 N   -0.1516843527    0.0185318855    0.2874062130
 C   -1.1544053346   -1.0295095043    0.0773723584
 C   -0.8510102736   -1.8224458058   -1.1602736878
 C   -0.0584884833   -2.0775608958    0.1234992749
 C    0.0525876044   -3.3921731659    0.8387492444
 O    0.3200573485   -3.2328315999    2.2217406207
 C    0.8993104001   -0.8973099969    0.3019476664
 O    2.0884601327   -0.7563467696    0.4198548339
 H    0.8819931780    1.7498032908   -0.1437185438
 H   -0.4319336940    1.4026924524   -1.2960326623
 H   -0.8079856344    2.0162786974    0.3329125456
 H   -2.0962735129   -1.0201405934    0.6100341630
 H   -1.5558227972   -2.6091278002   -1.4195928491
 H   -0.3785016641   -1.3448031415   -2.0139469399
 H   -0.8918040405   -3.9428512884    0.7676997899
 H    0.8231092231   -4.0095109949    0.3511010029
 H    1.1906630527   -2.8275002901    2.3024220588