21

 C    0.0288333569    1.5598208317   -0.0393202056
 C    0.0389318824    0.0292365150   -0.0172934394
 C   -1.4026363068   -0.5026218712   -0.0503311717
 O   -2.0207393856   -0.1044902630   -1.2669579938
 C    0.8397045438   -0.5903089751   -1.2016071848
 C    1.5873711687   -1.7400037569   -0.5777041770
 C    1.4893600011   -1.7526049954    0.7514215733
 C    0.7178782805   -0.5646968276    1.2716403209
 O    1.5635573757    0.3384119927    1.9836634182
 H    1.0441189658    1.9649449977   -0.0316318723
 H   -0.4819745589    1.9171698114   -0.9371136542
 H   -0.4901954800    1.9639704881    0.8356306820
 H   -1.3903914715   -1.6004115070    0.0426299047
 H   -1.9504877355   -0.1000613282    0.8166095352
 H   -2.9127470297   -0.4624001601   -1.2824864686
 H    0.1700384169   -0.9037699579   -2.0088284412
 H    1.5339128545    0.1326535300   -1.6514588215
 H    2.1405086051   -2.4634267759   -1.1685489129
 H    1.9566786852   -2.4672991210    1.4198209430
 H   -0.0442328103   -0.8412833204    2.0104109897
 H    2.3709324719    0.4399730932    1.4675673063