23

 C    0.1922796618    1.4281273414    0.2034209147
 C   -0.1652729455   -0.0094333552   -0.1807648264
 C    0.7874640557   -0.5896219768   -1.2167498802
 O    0.3850756898   -1.9143552222   -1.5129737141
 C    1.1517141036   -2.5263562629   -2.5070577124
 C    2.5205538633   -3.1986011939   -2.1450291140
 C    1.6983352804   -4.2700381458   -1.3671075285
 C    0.9229121885   -4.0431636712   -2.7018636826
 C    2.3039077429   -4.0619424804   -3.4189732479
 H    1.2013898669    1.4899767605    0.6258018656
 H    0.1560603508    2.0953344017   -0.6650012275
 H   -0.5037378184    1.8197857435    0.9507200715
 H   -0.1499718005   -0.6548053321    0.7051172862
 H   -1.1842502243   -0.0552600167   -0.5818388429
 H    0.7758778467    0.0236388613   -2.1346088505
 H    1.8219930490   -0.5771665400   -0.8355043264
 H    1.1582869251   -1.9162638612   -3.4233866621
 H    3.4452023030   -2.7117541272   -1.8319199291
 H    2.1738871498   -5.2469231022   -1.2454959818
 H    1.2009910957   -3.9398088703   -0.4559104137
 H    0.0007064047   -4.5266650373   -3.0261058841
 H    2.3703762326   -3.5534619390   -4.3857232909
 H    2.8189162085   -5.0246176241   -3.4366578029