20

 O    0.0204196925    0.0487285472    0.4688489356
 C    0.0162986925    1.2093511216    0.1150611704
 C   -1.3054519609    1.9554554303   -0.1081413045
 N   -1.2774881673    3.1051153237   -1.0087314157
 C   -0.1408662746    3.9864255892   -0.7378639078
 C    1.2086248391    3.2709944396   -0.8834634109
 C    1.2767599071    2.0178577047   -0.0190830497
 C    2.1077910618    2.0420162996    1.2695763106
 C    2.5758207603    1.2540941607    0.0889300304
 H   -2.0545460031    1.2307274329   -0.4375026787
 H   -1.6257593384    2.3021974685    0.8869732909
 H   -1.2240448385    2.7787752568   -1.9693626154
 H   -0.1931040922    4.8455838287   -1.4146204623
 H   -0.2540632373    4.3751292926    0.2831113280
 H    1.3408401023    2.9934104706   -1.9391897511
 H    2.0382899812    3.9448521807   -0.6356071265
 H    2.6050682602    2.9759671968    1.5100612470
 H    1.7175365880    1.4941073284    2.1196427262
 H    2.4910679652    0.1752112266    0.1423433617
 H    3.4134868723    1.6349861408   -0.4856196281