21

 C    1.0119781380    0.7145643882   -1.8153682246
 C    1.3626367136   -0.6434881694   -1.2260705715
 C    0.6811046219   -1.7683506303   -2.0020264214
 O    2.8130693659   -0.9073486825   -1.1983423608
 C    2.7217568102   -1.3426192254    0.1615381811
 C    2.3931940586   -0.2053272196    1.0789748935
 C    2.9633101756    1.1888249957    0.9268247234
 O    4.1213626150    1.3525396983    1.7378356529
 C    1.2845445412   -0.8884838014    0.2883945204
 H    1.3697381004    0.7762639366   -2.8486976953
 H   -0.0752870750    0.8442128253   -1.8287416471
 H    1.4446378759    1.5413144227   -1.2524796368
 H    0.9790942816   -1.7337763262   -3.0542888237
 H    0.9594633068   -2.7437112506   -1.5949200702
 H   -0.4087212480   -1.6685171088   -1.9495008431
 H    3.2249360973   -2.2644535966    0.4320117945
 H    2.3540669990   -0.5149295513    2.1229521145
 H    3.1896726625    1.3925749729   -0.1256709576
 H    2.2499412147    1.9423596352    1.2767542858
 H    4.7914450186    0.7484737563    1.4013592152
 H    0.4476091859   -1.3655438290    0.7827114308