14

 O   -0.1211211884    1.4359249102    0.0508632256
 C    0.0417918454    0.0661014721    0.1271430457
 C    0.7410862578   -0.4824312128   -1.1207521472
 O    1.1054669467    0.2696346941   -1.9876293467
 C    0.8422002675   -0.3522241698    1.3684089594
 O    1.4403551287    0.3722519597    2.1034859593
 O    0.7616411589   -1.7181998999    1.4876803475
 C    1.4136778105   -2.3187937389    2.5438291606
 N    1.3676309390   -3.5710823411    2.6184796224
 H    0.3602303546    1.7193713089   -0.7434012169
 H   -0.9265332659   -0.4574380944    0.1993688052
 H    0.8854768270   -1.5760063867   -1.1706210546
 H    1.9007851124   -1.5996409916    3.2020435660
 H    1.8802158659   -3.8903264900    3.4393943336