18

 O   -0.3667019989    1.3913229911   -0.1486920956
 C   -0.3152463589   -0.0044165170   -0.0854812872
 C   -0.5008654281   -0.7961876897    1.1898447651
 C   -1.4733458188   -0.0668526401    2.1266750741
 C   -2.5675408657   -0.0938535437    1.0113251901
 C   -1.5688868279   -0.7885110514    0.0842959060
 O   -1.9233135803   -1.8296465909   -0.7708693007
 C   -2.1801733632   -1.4908754765   -2.0589100367
 N   -2.5639755021   -2.3755157993   -2.8708213179
 H    0.4369981038    1.7407063924    0.2513726353
 H    0.3879517224   -0.4717192694   -0.7764856040
 H    0.1983600432   -1.5742013482    1.4717542082
 H   -1.7480672137   -0.6590705242    3.0006581356
 H   -1.1523278693    0.9254996302    2.4519158827
 H   -3.3952597406   -0.7580180614    1.2663304129
 H   -2.9574588164    0.8670957205    0.6680547698
 H   -2.0099344908   -0.4274185961   -2.2674725678
 H   -2.7034329646   -1.9620790362   -3.7906472101