17

 C    0.0448342659    1.3994464699    0.0792015034
 N   -0.0003664255   -0.0599284212    0.0948880884
 C   -1.2257897100   -0.6596660150   -0.0043833037
 N   -2.3617911574   -0.0326062043    0.0215235840
 O   -3.3466713188   -1.0841104135   -0.0036339835
 C   -2.7278574958   -2.3029940373   -0.0446229425
 N   -1.3642394268   -2.0211369660   -0.1124345788
 N   -3.2471164994   -3.4496823175   -0.0247374538
 C   -4.6972079136   -3.5402369698    0.0611177890
 H    1.0731237187    1.7168530732    0.2615343028
 H   -0.3087234660    1.8272956066   -0.8672600750
 H   -0.5919678873    1.7802651447    0.8799917475
 H    0.7194685834   -0.5111222981   -0.4517636800
 H   -0.6674526870   -2.7107578875    0.1110066882
 H   -5.1339251246   -2.8167454930    0.7623629222
 H   -5.1671268228   -3.3721547232   -0.9174683630
 H   -4.9697028232   -4.5471660080    0.3884461148