20

 C   -0.2943863007    1.5286713204   -0.1909271452
 C    0.0429788341    0.0467942107   -0.1033880617
 C    1.4304320539   -0.4121880553   -0.6051795004
 O    1.7420633906   -1.0276887497    0.6632194686
 C    0.4973708537   -0.5771046660    1.2488076692
 C    0.7369377062    0.3267206334    2.4495434686
 C    1.5188843186   -0.4329296921    3.5405509749
 C    1.8169088872    0.4009226622    4.7014077775
 N    2.0419185318    1.0757281127    5.6122600098
 H    0.5068995720    2.1573867164    0.2089894119
 H   -0.4498035068    1.8202192094   -1.2350444813
 H   -1.2134715298    1.7643643843    0.3556238520
 H   -0.7655774048   -0.5386439160   -0.5487288541
 H    1.4373720400   -1.1396031336   -1.4249408948
 H    2.1283953898    0.4007524595   -0.8461192869
 H   -0.1103690743   -1.4394342898    1.5604728838
 H    1.3098946016    1.2098010327    2.1527315858
 H   -0.2218384890    0.6753249288    2.8494625852
 H    0.9528582315   -1.3098786270    3.8765759915
 H    2.4567996446   -0.8036097511    3.1140897759