16

 O    0.0023088632    0.1109776466    0.5017076719
 C    0.0961717381    1.2591705672    0.2193215016
 O   -0.9339077758    2.1235061480   -0.1604974592
 C    0.0338986076    3.1699883953   -0.4333972436
 C    0.6856948034    3.5610777887    0.8428065575
 C    1.1628898073    2.3076649641    0.0714652027
 N    1.6059070214    4.6520177506    0.7687443478
 C    1.2410224514    5.8538461937    1.5214852879
 C    2.3384918536    4.9689909271    1.9960148933
 H   -0.0787170044    3.7539606796   -1.3345234978
 H    0.1206196903    3.4205953798    1.7696673532
 H    2.1869657076    2.1912273019   -0.2476094207
 H    1.4639323456    6.7956692665    1.0297266954
 H    0.3078350176    5.8383215780    2.0808559408
 H    2.1440582469    4.3571942674    2.8744107921
 H    3.3765423062    5.2549339056    1.8575229772