20

 C    0.2126509921    1.7252980759   -0.0151720372
 C    0.0266057870    0.2199615980   -0.0401861801
 C    0.8211018533   -0.6364458630   -1.0666570810
 C    1.1889679226   -1.5544312889    0.1158115896
 C    2.5729912073   -1.3639928403    0.7815122304
 C    1.9232910702   -0.2290266415    1.6130522498
 N    0.5514973883   -0.5971229681    1.1220324818
 C    0.6200514696   -2.9479085329    0.1162715365
 O    0.1559424022   -3.5066492929   -0.8449747223
 H    1.2642534849    2.0232651031   -0.0663933246
 H   -0.2935411004    2.1704064821   -0.8781830968
 H   -0.2242626701    2.1583459727    0.8910671992
 H   -1.0453565860    0.0027550034   -0.1054323570
 H    0.2427565355   -1.1187234211   -1.8561680654
 H    1.6794258083   -0.1244524069   -1.5112323181
 H    2.8835022838   -2.2224445243    1.3836869306
 H    3.3882937780   -1.0957648831    0.1064674185
 H    2.0068850324   -0.3339124137    2.6982892127
 H    2.2505230478    0.7794201982    1.3460158023
 H    0.6492241531   -3.4375077767    1.1170162209