21

 C    0.2835163090    1.5452897871    0.1047831222
 C    0.1312259479    0.0391884548    0.0043269128
 C    0.7512112761   -0.6214927664   -1.2461128563
 C    1.2209795784   -1.9880521796   -0.7432519006
 C    0.8452000693   -3.2398816836   -1.4978380865
 C    2.5008304454   -1.9544930557    0.0889724026
 O    3.3141426515   -0.8261545107    0.1227556689
 C    1.1561919028   -1.8887209944    0.7664268575
 O    0.8037279164   -0.5749264564    1.1288795602
 H    1.3373249805    1.8325427979    0.0292747269
 H   -0.2637180793    2.0348195208   -0.7068008965
 H   -0.1106464559    1.9137595641    1.0558765953
 H   -0.9346934537   -0.2305595834    0.0653201041
 H    0.0179306886   -0.7235671610   -2.0507757557
 H    1.5923422259   -0.0277030379   -1.6202490176
 H    1.2878516298   -3.2452074162   -2.5005104836
 H    1.1983676765   -4.1375427335   -0.9794621777
 H   -0.2418669846   -3.3294103139   -1.6104862256
 H    3.0643765293   -2.8827837499    0.1498089978
 H    2.8830444808   -0.2135921604    0.7365938338
 H    0.7736130453   -2.6668763419    1.4207954483