18

 O    0.0682023797    0.3170048360    1.1837448535
 C   -0.0711544313    0.1960757083   -0.2387760562
 C   -1.3776053940   -0.5404209191   -0.5357837748
 C   -1.3737626140   -2.0056659743   -0.2034335532
 C   -1.5639732654   -3.0424556484   -1.0957827697
 N   -1.5463864053   -4.2193687263   -0.4049233439
 C   -1.3323628011   -3.9736092572    0.9365990401
 C   -1.2248435631   -2.6099367046    1.0883101244
 O   -1.0396926953   -1.9770138626    2.2764956946
 H    0.9812817718    0.5344328556    1.3921962426
 H   -0.0928701369    1.1991559037   -0.6888197128
 H    0.7765772655   -0.3572912464   -0.6636245535
 H   -2.1758534195   -0.0149197270    0.0070800530
 H   -1.5957406936   -0.4144596572   -1.6023687771
 H   -1.7259608423   -3.0199264330   -2.1622662681
 H   -1.6573533720   -5.1303569610   -0.8104335537
 H   -1.2774836498   -4.7668830063    1.6623818450
 H   -0.6749903835   -1.0969375801    2.0801086797