19

 C    0.0062922705    1.4786750564    0.0768628483
 C    0.0134668489   -0.0291551885   -0.0134951618
 C    0.9439976891   -0.7325838461   -0.9516911572
 C    0.4952521774   -1.9642175145   -1.2065893903
 C   -0.7137261524   -2.2330375091   -0.3335849391
 C   -0.2053289223   -2.3127438898    1.1604354187
 C   -0.4509930057   -0.8113382871    1.2601614303
 O   -0.7337143424   -0.1409913342    2.4383622579
 C   -1.2834359798   -0.8137396415    0.0086984740
 H    0.9787745025    1.8616420765    0.4098174461
 H   -0.2058830177    1.9268854688   -0.8999125420
 H   -0.7471260849    1.8287247482    0.7862073056
 H    1.8559526061   -0.2831507990   -1.3273615576
 H    0.9862183264   -2.7218689770   -1.8049195296
 H   -1.3952745281   -3.0199099607   -0.6525284359
 H   -0.9296237839   -2.8341306887    1.7914253932
 H    0.7998668893   -2.7143788577    1.3291656429
 H    0.0993760804    0.1041597653    2.8567288478
 H   -2.2682268333   -0.4106218215   -0.1970630214