21

 C    0.6182493484    0.7851282708   -1.9776767046
 N    0.4818418015   -0.2560795083   -0.9706985184
 C    1.5707540158   -0.5692307968   -0.0500576715
 C    2.9046432517    0.1728929796   -0.0392321176
 C    3.7939466143   -0.2725887043   -1.1142399409
 N    4.4878961517   -0.6306184962   -1.9660000255
 C    0.2967920887    0.0464477226    0.4545196936
 C    0.2576053879    1.4764086301    0.9662708793
 C   -0.7078466782   -0.8600784252    1.1440406397
 H    1.1740864610    1.6838742191   -1.6730959410
 H    1.1223549865    0.3609143308   -2.8510785796
 H   -0.3818890078    1.1035527670   -2.2873771214
 H    1.7084735379   -1.6399266735    0.1023106749
 H    2.7832604623    1.2550297462   -0.1224889042
 H    3.4066962636   -0.0109778649    0.9182151850
 H    0.9578342325    2.1481950968    0.4681320769
 H   -0.7467537157    1.8936020229    0.8319994576
 H    0.4782620804    1.5006734036    2.0388764951
 H   -0.5107109776   -0.9196332196    2.2204878536
 H   -1.7263915454   -0.4780013036    1.0106593721
 H   -0.6684034596   -1.8670924072    0.7230435068