17

 O   -0.1993105653    0.1774500312    0.4133508665
 C   -0.0520808344    1.3018951822    0.0610148643
 O   -1.0009365365    2.1627468151   -0.4246337130
 C   -0.0031680861    3.2235599310   -0.6593594677
 C   -0.3240998595    4.5138449924    0.0638942730
 C   -0.2484566666    4.3734896095    1.5936245190
 C    1.0272484043    3.6991560177    2.0251138914
 C    1.6456219370    2.7834873555    1.2774992314
 C    1.0989420303    2.3278327346   -0.0428109482
 H    0.0957596532    3.3766775015   -1.7368939948
 H    0.4059194018    5.2617975236   -0.2699404179
 H   -1.3129477843    4.8675628963   -0.2461646460
 H   -0.3388149506    5.3593665253    2.0603691638
 H   -1.1117729664    3.7922765800    1.9464716401
 H    1.4433607283    3.9725812539    2.9906213266
 H    2.5525194582    2.3007722136    1.6275555936
 H    1.8838364367    2.0049876768   -0.7304285921