22

 C   -0.0370118198    1.6226365442   -0.0456840341
 C    0.2200168510    0.1154891368    0.0293024579
 C    0.5107171778   -0.5003046024   -1.3460966283
 C    0.6883646484   -2.0173628415   -1.3264817318
 C    1.5688973165   -2.6619734320   -2.3629186550
 N    1.9697706607   -2.6656965831   -0.9697246395
 C    3.1210206152   -1.8653140569   -0.5815750619
 C   -0.4777598934   -2.7437161835   -0.8719235558
 C   -1.4697646651   -3.3227271283   -0.5155904539
 H    0.8267161225    2.1555328956   -0.4595146694
 H   -0.8986335553    1.8456914924   -0.6849265137
 H   -0.2410854031    2.0403752945    0.9449120823
 H    1.0617196508   -0.0816741235    0.7043918049
 H   -0.6478781778   -0.3894375593    0.4679087245
 H   -0.3208707858   -0.2747568264   -2.0258385033
 H    1.3962601121   -0.0304842043   -1.7864308630
 H    1.2978541395   -3.6239210695   -2.7892461519
 H    2.0794754825   -1.9817165257   -3.0458470826
 H    3.2500578005   -0.9301446303   -1.1472999620
 H    3.0524514989   -1.6214722794    0.4827988324
 H    4.0204155185   -2.4714669886   -0.7314303986
 H   -2.3346494446   -3.8470668489   -0.1924860472