19

 O   -0.5458007200    1.1633468214    0.0530473665
 C   -0.1421922372   -0.2033498355    0.0116560538
 C    0.7030357243   -0.4328676485   -1.2373031274
 C    0.4047368884    0.2436391502   -2.5022205096
 O    1.4669473181    0.7087202167   -1.6486788743
 C    0.5948757460   -0.6388216449    1.2716323292
 C    1.5117136914    0.3201664259    2.0177990582
 C    0.1986307531   -0.1045483099    2.6263911010
 O   -0.8639161962    0.7784592882    2.7952153156
 H    0.2068701064    1.6630236345   -0.3004646881
 H   -1.0652654342   -0.7913476895   -0.0777621686
 H    1.2506976807   -1.3742046381   -1.2659561395
 H    0.7330595089   -0.1973902646   -3.4408128906
 H   -0.4568999410    0.9040219721   -2.5614303664
 H    0.9048667364   -1.6810279098    1.2334763182
 H    2.4439455173   -0.0575732287    2.4236493978
 H    1.5645935383    1.3407972897    1.6532133825
 H    0.2390992271   -0.7986385528    3.4603908182
 H   -0.9693142879    1.2584010736    1.9608481736