11

 O   -0.1084080828    1.2773436930    0.0101119455
 N    1.0705910766    2.0371762385    0.0029163925
 C    2.1905621521    1.3699558012   -0.0116547636
 N    2.4323857024    0.0172713070   -0.0215294059
 C    1.3362962662   -0.6761926914   -0.0147651635
 N    1.1246100146   -2.0211964809   -0.0202058074
 C   -0.2001286696   -2.0888590942   -0.0077584153
 N   -0.9528717249   -0.9123083000    0.0061161466
 C    0.0026896461   -0.0303293362    0.0017495998
 H    3.0591915844    2.0213082310   -0.0164446887
 H   -0.7179558152   -3.0410573281   -0.0080177694