21

 C   -0.0515856913    1.5603356917   -0.0523219586
 C    0.0136824593    0.0270429642   -0.0283766911
 C    0.6612716904   -0.5002108073   -1.3137233411
 O   -0.0752882303    0.0169761756   -2.4161274685
 C    0.7489347389   -0.5033145372    1.2441435370
 C    0.8581333931   -2.0370750189    1.2775478449
 O    2.1033337498   -0.0309331356    1.2833947593
 C    0.0263655047   -0.0548588469    2.4472712182
 C   -0.5501763543    0.3134683543    3.4362350380
 H    0.9540411228    1.9942119829   -0.1088808732
 H   -0.5983932008    1.8950065708   -0.9345164533
 H   -0.5475249025    1.9499635069    0.8401887099
 H   -1.0116988646   -0.3619895849    0.0119507833
 H    1.7127660810   -0.1789777257   -1.3440978007
 H    0.6454834332   -1.5984784176   -1.3298848788
 H    0.3611904883   -0.2676457118   -3.2238762339
 H    1.5469933931   -2.3812733052    0.5034819892
 H    1.2484059699   -2.3541170571    2.2465177348
 H   -0.1198586017   -2.4995941197    1.1227449563
 H    2.0835025233    0.9005323704    1.5265251229
 H   -1.0583199624    0.6356626812    4.3116310154