18

 C   -0.2947613186    1.5697591225   -0.0332943221
 C   -0.0113646633    0.0600550751   -0.0224183811
 C    0.8419320062   -0.4184813114   -1.1809638889
 C    1.8586462959   -1.1998939641   -0.8174887457
 C    1.9206420341   -1.3814727022    0.6770893734
 N    2.8691729556   -0.5052191176    1.4002770281
 C    1.9201654087    0.4258843986    1.7643679600
 O    2.0012633434    1.5021001516    2.2940000385
 C    0.7722102172   -0.4627022086    1.2082354218
 H    0.6295507047    2.1502794082    0.0124314014
 H   -0.8365670489    1.8489224410   -0.9429853661
 H   -0.9063791612    1.8576721131    0.8266770783
 H   -0.9806551144   -0.4571985320   -0.0637815674
 H    0.6158049876   -0.1301107122   -2.2033326545
 H    2.5762595586   -1.6529597792   -1.4928786822
 H    1.9634056499   -2.4218626372    1.0120872973
 H    3.8654563220   -0.3811931735    1.2809767244
 H    0.1385284925   -0.8759300019    1.9934583047