23

 C    0.1675424895    1.5204055287    0.1359052866
 C    0.0231541359   -0.0049767394    0.0177469759
 C    0.5200596736   -0.6635279817    1.3242608195
 C   -1.4497351078   -0.3916727835   -0.1087253594
 O   -2.3780440563    0.3743216013   -0.1417374810
 C    0.7249078195   -0.5422580177   -1.2549451789
 C    0.2782645617    0.1273899126   -2.5494750017
 C    2.1726983942   -0.9739228096   -1.2131427946
 C    1.0867910607   -2.0091911389   -1.3750593342
 H    1.2244512947    1.8042208103    0.1214378653
 H   -0.3474436966    2.0406931445   -0.6731463926
 H   -0.2709499708    1.8738330834    1.0729951030
 H   -0.0509219588   -0.2751586357    2.1732765974
 H    0.4053160773   -1.7509686495    1.3224520602
 H    1.5724667726   -0.4289784464    1.5047280434
 H   -1.6155566417   -1.4928978787   -0.1699328712
 H    0.5813852766    1.1778265488   -2.5891455831
 H    0.7249067879   -0.3753356193   -3.4122891780
 H   -0.8099234777    0.0916247186   -2.6722904572
 H    2.7878550585   -0.7311494450   -2.0732607830
 H    2.7092768254   -0.9512012178   -0.2722955468
 H    0.9051104002   -2.6798148041   -0.5436345537
 H    0.9580089416   -2.4761671007   -2.3456413659