23

 C   -0.0445056034    1.5772873821   -0.0594966691
 C    0.0345492162    0.0477044714    0.0429903167
 C    0.8504029811   -0.3653633200    1.2763660185
 C   -1.3799546253   -0.5619265619    0.0204415663
 C   -1.4491747662   -2.0854964693   -0.0570550620
 C   -1.2918735051   -2.9702927474    1.2450573084
 C   -2.6900322942   -3.5357333662    0.9743306165
 O   -3.5959184172   -2.4248259036    0.9658686134
 C   -2.8502320508   -2.7032125942   -0.2266514229
 H    0.9543851928    2.0250988482   -0.0918445303
 H   -0.5831029223    1.8912009199   -0.9598878104
 H   -0.5694184138    2.0002515141    0.8055145139
 H    0.5659123797   -0.3197227299   -0.8479068821
 H    0.3472293846   -0.0551420818    2.2002219251
 H    1.0038079170   -1.4469472450    1.3271267586
 H    1.8380027285    0.1079791664    1.2639867555
 H   -1.9461423393   -0.2248969032    0.8977488178
 H   -1.9090852788   -0.1572973815   -0.8539512840
 H   -0.7791430007   -2.4599052601   -0.8398594546
 H   -0.4928302791   -3.7104664194    1.1581966013
 H   -1.1946953281   -2.4359412364    2.1926378248
 H   -3.1020010647   -4.5068534177    1.2229603781
 H   -3.4207234108   -2.8623060643   -1.1354854995