18

 C   -0.3578842262   -0.9618649668   -0.8130195141
 C   -0.1893467847    0.1328519598   -0.3435541754
 C    0.0128828062    1.4615531990    0.2094007396
 C   -0.2853646895    1.6013351331    1.7342413320
 C    0.6688008345    2.6931675207    2.1616210293
 C    1.6018639658    2.9320734911    1.2412333822
 C    1.4374070126    2.0501106843    0.0547154773
 C    2.5667273917    1.3073640337   -0.5679900960
 N    1.9613116374    2.4661723804   -1.2521655475
 H   -0.5132833245   -1.9306499748   -1.2192682722
 H   -0.6588002866    2.1582262309   -0.3121688480
 H   -1.3372382943    1.8399114722    1.9201915117
 H   -0.0754865326    0.6618023573    2.2611305362
 H    0.5995035086    3.1778168760    3.1285420374
 H    2.4181291856    3.6404807651    1.3134493247
 H    3.5799518036    1.4673145710   -0.2089995840
 H    2.3608893339    0.3103486342   -0.9462419571
 H    1.3391939985    2.1351092127   -1.9877829061