18

 C    0.0175361823    1.5777683273    0.0890684268
 C    0.0015375620    0.0523632280    0.0273224444
 O    0.6839466667   -0.5280578948    1.1380326553
 C   -1.4251917375   -0.5030014466   -0.0798755277
 C   -1.4423558232   -2.0550457489   -0.1645120606
 C   -2.7872824571   -2.6024419596    0.0084159732
 C   -3.8999199619   -3.0225832022    0.1702263416
 C   -0.8480585722   -2.5114836470   -1.4322442844
 N   -0.3662169741   -2.8412384164   -2.4289813411
 H    1.0447109665    1.9392310359    0.1831982790
 H   -0.4239096717    2.0156000174   -0.8114258591
 H   -0.5559259026    1.9403132928    0.9518963457
 H    0.5748322837   -0.2781564101   -0.8468060516
 H    0.3271356932   -0.1342729966    1.9425929692
 H   -2.0000002647   -0.2169353710    0.8087053203
 H   -1.9399138605   -0.0835994895   -0.9495893629
 H   -0.7915641585   -2.4182009457    0.6419737293
 H   -4.8801513504   -3.4081519430    0.3075347728