18

 C   -0.0825403584    1.4348284824   -0.0619610473
 C   -0.0192241881   -0.0463137915    0.1175142505
 C   -0.9839242754   -0.9347860213    0.3400232451
 C   -2.3993448743   -1.2794669585   -0.0782969585
 C   -1.7368271995   -2.5061248495   -0.8169446417
 C   -0.4838783905   -2.3219733606    0.1190434677
 O    0.8448812410   -2.2054941195   -0.3530021777
 C    1.2605795407   -0.8494524092   -0.1146255842
 H    0.5044459747    1.9581386727    0.7039622445
 H    0.3309795328    1.7381365717   -1.0325250961
 H   -1.1111239176    1.7995717085    0.0036917778
 H   -3.0419513809   -1.6058323093    0.7452229025
 H   -2.9396195334   -0.5464247703   -0.6806576779
 H   -2.2638292574   -3.4622318366   -0.7693174502
 H   -1.4860125198   -2.2605812351   -1.8504668202
 H   -0.5290982784   -3.0133749333    0.9732077984
 H    1.8009858286   -0.4829341271   -0.9989414017
 H    1.9635708960   -0.8144886337    0.7344345889