18

 N    0.0614689573   -1.1557482461    0.0364755344
 C   -0.0075275555    0.0009841083    0.0231572072
 C   -0.0470987828    1.4254313883    0.0054158872
 C   -1.2015807555    2.1116546274    0.0301516682
 C   -1.1370884726    3.6162075166    0.0082921786
 C   -0.1165641603    4.0418231460   -1.0962374367
 C    0.9898831248    3.7042740589   -0.0552406287
 C   -0.0539452226    4.0701740977    1.0394629628
 C    1.2682872280    2.1921384408   -0.0433275742
 H   -2.1579193555    1.6007912055    0.0649649226
 H   -2.1216872684    4.0831568455    0.0309631342
 H   -0.1326545147    3.4898123592   -2.0392289867
 H   -0.1657009652    5.1154886075   -1.2923936432
 H    1.9228819731    4.2706448980   -0.0901170212
 H   -0.0923438681    5.1487016316    1.2096184654
 H   -0.0143334048    3.5433792811    1.9960855110
 H    1.8879889162    1.9191359877    0.8203033064
 H    1.8365516267    1.8958403262   -0.9342272472