20

 C   -0.0320595038    1.4692998582    0.0461295298
 N    0.0358202556    0.0241308419    0.0684591790
 C    0.5562779651   -0.6109530236   -0.8945367058
 C    1.1712870597   -0.0857946445   -2.1724664729
 O    0.6179214653   -1.9652618427   -0.8695250188
 C    0.0634354063   -2.6090549745    0.2800250926
 C    0.2679806063   -4.0861750113    0.1092396542
 C   -0.6393625472   -5.0498779236    0.7424650182
 O   -0.7080377070   -4.7926965842   -0.6588803172
 H    0.4021310243    1.9481169641   -0.8423143587
 H   -1.0793675691    1.7861273462    0.1209797781
 H    0.4795682651    1.8714579698    0.9288768367
 H    2.0159375818    0.5746014110   -1.9556791485
 H    1.5214272930   -0.9172986209   -2.7836116024
 H    0.4404169555    0.4905830595   -2.7468863553
 H    0.5639744488   -2.2429061271    1.1842021654
 H   -1.0013370554   -2.3708945693    0.3686016001
 H    1.2963154644   -4.3919971105   -0.0860581357
 H   -0.2663542367   -6.0327568636    1.0263466004
 H   -1.4861312719   -4.6899592349    1.3261648008