23

 C   -0.1016645041    1.5320274862   -0.0754109099
 C    0.0179500133    0.0263195242    0.0171186544
 C    1.3209294016   -0.6795894242   -0.2377614371
 C    0.7275683748   -0.6736188282    1.1681271437
 C    1.4039567880    0.1420459340    2.2633404743
 C    2.1837652332   -0.7705407183    3.2213120986
 C    1.2548521528   -1.7986908326    3.8827163692
 C    0.3365229791   -2.4418643545    2.8758291609
 C    0.1285107091   -1.9416973232    1.6563044736
 H    0.8094803416    2.0379196580    0.2552357473
 H   -0.2885038776    1.8396885486   -1.1104586427
 H   -0.9304984692    1.9065578936    0.5358813246
 H   -0.8660265465   -0.4986983415   -0.3395835602
 H    1.3166512435   -1.6089887333   -0.7973585504
 H    2.2035038445   -0.0673117581   -0.4001772711
 H    2.0733595025    0.8925728748    1.8325013675
 H    0.6410297138    0.6900391044    2.8338624423
 H    2.9608672422   -1.2998695097    2.6558494587
 H    2.6948463335   -0.1729805146    3.9837062188
 H    1.8466173764   -2.5698150055    4.3921260232
 H    0.6609243707   -1.3173037673    4.6747979027
 H   -0.1637268907   -3.3610112803    3.1708299286
 H   -0.5215585926   -2.4686077326    0.9598058030