25

 C    0.0658216656    1.4633278961   -0.1808916098
 C    0.0546510996   -0.0563389841    0.0331852334
 C    0.7992364703   -0.4385674006    1.3194787888
 C   -1.3736925581   -0.6014007244    0.0396284539
 C   -2.2148820904   -0.5095729242   -1.2658402238
 C   -2.7576744706   -1.9330975455   -0.9936122847
 C   -4.1379375668   -1.9561601318   -0.3444005891
 O   -2.7341880235   -2.7308871033   -2.1642269711
 C   -1.5888215787   -2.1421512368    0.0192607905
 H    1.0896623447    1.8491284442   -0.2269877905
 H   -0.4391390159    1.7417109205   -1.1114048087
 H   -0.4449230951    1.9773229165    0.6425597756
 H    0.5793811534   -0.5223789549   -0.8143027500
 H    0.3151078313    0.0061312024    2.1975440051
 H    0.8197931466   -1.5234712619    1.4644872511
 H    1.8350064312   -0.0836930146    1.2978627810
 H   -1.9215801489   -0.1525300501    0.8781150661
 H   -2.9461646923    0.2972924582   -1.3613877914
 H   -1.5775410286   -0.5228537093   -2.1549370690
 H   -4.8991848463   -1.6263185716   -1.0583894849
 H   -4.3930367917   -2.9704172029   -0.0107662307
 H   -4.1794020412   -1.3033345340    0.5332703830
 H   -3.0957616727   -3.5964609012   -1.9440297273
 H   -0.7573217009   -2.6549188651   -0.4739801150
 H   -1.8160103509   -2.6463325915    0.9630791776