21

 C   -0.2596099649    1.5840581834    0.0376208989
 C    0.0312274390    0.0938409895   -0.0222871516
 C    0.7218564428   -0.5457316725   -1.2595255352
 C    1.9898954292    0.1799332621   -1.7921805202
 C    2.8896582700   -0.5958919087   -0.7795279986
 C    3.3444803016    0.1767326470    0.4514055684
 O    2.1730597995    0.4240881952    1.2280308479
 C    1.1477270306   -0.5061856022    0.8932766841
 C    1.6388488257   -1.3786602148   -0.2949080186
 H    0.6608602082    2.1703055382   -0.0177753588
 H   -0.9154513584    1.8896297578   -0.7852613827
 H   -0.7565229173    1.8482363937    0.9774960799
 H   -0.8881251319   -0.4737397241    0.1667507346
 H    0.0699261654   -0.9908783780   -2.0121580658
 H    2.2112717109   -0.0913008970   -2.8272558986
 H    2.0043553187    1.2712596617   -1.7166511994
 H    3.6964872985   -1.1740808525   -1.2332276778
 H    4.0696159493   -0.4132400348    1.0344311981
 H    3.8051591616    1.1425933911    0.2134575118
 H    0.8065597492   -1.0039690458    1.8061553211
 H    1.6485479823   -2.4634100291   -0.2052072575