19

 C   -0.0007223262    1.2501644902    0.1688234420
 O   -0.0119247265   -0.1437421437   -0.0802529113
 C    0.6745122454   -0.5764004231   -1.2492111971
 C    2.2200324793   -0.6474551209   -1.0267192149
 C    2.0486599408   -2.0807259205   -0.4590826063
 C    0.6601845911   -2.1484069520   -1.1564161731
 O   -0.4274470695   -2.7352473431   -0.5194137614
 C    0.1766545176    0.0558246816   -2.4611733005
 C   -0.2162035580    0.5588456630   -3.4809328223
 H    1.0197659020    1.6349373135    0.3001823821
 H   -0.4845368097    1.8046188368   -0.6441484271
 H   -0.5577769911    1.4043152453    1.0954354480
 H    2.7559736009   -0.6262111475   -1.9778407042
 H    2.6388010309    0.1138638743   -0.3663574853
 H    2.7868445260   -2.8332374669   -0.7414653919
 H    1.9357267012   -2.0776878091    0.6273972404
 H    0.7398391820   -2.5836531014   -2.1558496048
 H   -0.6844497093   -2.1249070488    0.1845790668
 H   -0.5684301569    0.9977248924   -4.3818456491