23

 C    0.0834654928    1.4346309904   -0.3294692203
 C   -0.0007676804   -0.0049313411    0.1867439028
 C   -1.3998981488   -0.6422430515    0.0832128830
 C   -2.4377433188    0.1062927430    0.9388026501
 O   -1.7631324244   -0.5685592454   -1.2929326385
 C   -1.2923822506   -2.1428951694    0.4906920533
 O   -0.6682479000   -2.3403138629    1.7551008510
 C   -2.6197687944   -2.9150571227    0.5052644178
 O   -3.2747095420   -2.7879742713   -0.7559535171
 H    1.1250344618    1.7702735891   -0.3479178933
 H   -0.3173787056    1.5042361252   -1.3434962119
 H   -0.4705374223    2.1348932106    0.3039312291
 H    0.6811930938   -0.6326291238   -0.3991417593
 H    0.3403670348   -0.0641146356    1.2244507581
 H   -2.4742206864    1.1583161761    0.6497402524
 H   -3.4393206422   -0.3079133429    0.7892216194
 H   -2.2039812899    0.0652728890    2.0104011974
 H   -2.5209093364   -1.1555960193   -1.4200983478
 H   -0.6266782353   -2.6127306669   -0.2410234813
 H   -1.2050156406   -1.9014713838    2.4244212285
 H   -2.3971960084   -3.9663902658    0.7304796754
 H   -3.2561352798   -2.5285966454    1.3163274784
 H   -4.1375887868   -3.2086044455   -0.7059194974