17

 C   -0.0303344807    1.4270742251    0.4586923022
 N   -0.0064262312   -0.0224087258    0.3248785974
 C   -0.9784488884   -0.5873633081   -0.2533846849
 C   -0.9900722016   -2.0903738837   -0.4310749611
 C   -2.3734813748   -2.6617815745   -0.5517632454
 C   -3.3790031926   -1.9099149259   -0.9824152757
 C   -3.1709485044   -0.4714899022   -1.3399956244
 O   -2.0286222873    0.1388754049   -0.7316076411
 H    0.8783527896    1.7527223435    0.9711229063
 H   -0.0789753155    1.9311320865   -0.5156877995
 H   -0.8971043456    1.7712688046    1.0383053731
 H   -0.4101610896   -2.3401317660   -1.3329230528
 H   -0.4342834523   -2.5209399203    0.4045964455
 H   -2.5185937140   -3.7079971596   -0.3007529417
 H   -4.3827064853   -2.3031863294   -1.1103274673
 H   -3.0831315844   -0.3539037153   -2.4314335486
 H   -4.0278379418    0.1358919862   -1.0269708720