20

 C   -0.7751887905    1.3403463295    0.2698054390
 C   -0.2804666805   -0.0954764459    0.1571337473
 C   -1.4196707568   -1.0843195404   -0.0511691462
 O    0.7013049295   -0.2152101800   -0.9083968038
 C    1.7564032284   -0.5348093094    0.0188828742
 C    0.7930481207   -0.5552966541    1.2154392324
 C    1.1135672042    0.4005729522    2.3497265859
 N    0.5136636892    0.0997520052    3.5386759312
 O    1.8195121473    1.3826813138    2.2095341711
 H    0.0563614182    2.0270105008    0.4371781972
 H   -1.2818043215    1.6204446351   -0.6589766662
 H   -1.4874051564    1.4472105890    1.0953987788
 H   -1.9817309202   -0.8245703693   -0.9540011588
 H   -1.0349803436   -2.1011126864   -0.1710265280
 H   -2.1122856319   -1.0676191103    0.7978954868
 H    2.2427627177   -1.4864285528   -0.2228037751
 H    2.5035924546    0.2623920425    0.0869832175
 H    0.5778925338   -1.5566778118    1.5966878742
 H   -0.0136007481   -0.7436778096    3.6781689928
 H    0.6893136159    0.6996219818    4.3282310897