18

 C   -0.2968551976    1.6048991599    0.0908258046
 C   -0.0821144065    0.1039415886   -0.0133898948
 O   -1.2991352451   -0.6111468031    0.1033747492
 C    0.7302896694   -0.4978826093   -1.1959818026
 C    1.9242113956    0.2559069935   -1.8469805692
 C    2.8709132337   -0.5354402224   -0.8912191290
 N    1.6771284257   -1.1478786417   -0.2212361472
 C    1.0970406702   -0.4482972536    0.8608877525
 O    1.4759205445   -0.2699414742    1.9840813627
 H    0.6276170896    2.1691674574   -0.0577399643
 H   -1.0357328068    1.9286574233   -0.6481583543
 H   -0.6687581402    1.8532115614    1.0908665090
 H   -1.6421292770   -0.4667482241    0.9927381170
 H    0.1515969751   -1.1645199369   -1.8366667586
 H    2.0619715554    0.0548142801   -2.9106698149
 H    1.9294602492    1.3374985354   -1.6956778523
 H    3.4879242966   -1.2896453033   -1.3846602673
 H    3.4942625781    0.0461319491   -0.2073205305