11

 N    0.2553805026    1.2882940301    0.0044414556
 C    0.0627752102    0.0376391249    0.0015075949
 N   -1.2047572854   -0.5262208771    0.0113819449
 C   -2.4109103502    0.1188085149    0.0254008721
 N   -2.6641480285    1.4009481465    0.0325968672
 O   -4.0371628594    1.4379200379    0.0459450716
 N   -4.5367725013    0.1617651569    0.0458510757
 N   -3.5694484904   -0.6440981652    0.0337386936
 H    1.2513693040    1.4963366192   -0.0042133557
 H    0.8308747076   -0.7435845682   -0.0087587812
 H   -1.2767953093   -1.5310810599    0.0083465513