21

 C   -0.1251680466    1.4134571908   -0.1523596085
 C    0.2206552875   -0.0603447091   -0.1425996089
 C    1.6575284765   -0.5257763614   -0.1240170569
 C    0.7694420875   -0.7699393764    1.0737983688
 C    1.0232884903   -0.0607573688    2.3862505864
 C    1.8420886695   -0.8863740322    3.3628117813
 O    1.8916299503   -2.0980410125    3.3329108253
 C    2.6143085353   -0.1446536181    4.4462455205
 O    3.2119606389   -1.0280679490    5.3450391856
 H    0.5943849537    2.0091290549    0.4174442938
 H   -0.1275016865    1.8024678229   -1.1763391021
 H   -1.1186296835    1.5963394097    0.2728653540
 H   -0.4535587063   -0.6653343780   -0.7439520805
 H    1.9514832789   -1.3703506757   -0.7370905642
 H    2.4231771687    0.2396947453   -0.0311703778
 H    0.4406681411   -1.7942300063    1.2138376927
 H    1.5087053090    0.9113908197    2.2469970637
 H    0.0741905148    0.1566164514    2.9018968788
 H    3.3626003775    0.4913009298    3.9399547005
 H    1.9268476338    0.5459142134    4.9616349792
 H    3.0315969797   -1.9104804902    4.9815468185