19

 O   -0.1918571018    1.6850134058    0.2203792053
 C   -0.1174944678    0.3027081952    0.1412800242
 C    0.1611766207   -0.6249020407    1.3586556589
 C   -0.6151652031   -0.2474030521    2.6216709931
 C   -2.0370718839    0.2560661037    2.2842229400
 O   -1.9671423629    1.6977742389    2.3118514554
 C   -2.5283133628   -0.2571221533    0.9054145188
 C   -1.3552797620   -0.6299139604   -0.0045775457
 O   -0.5942037918   -1.6660845301    0.6753566691
 H   -0.7829498718    1.9257889761    0.9546838262
 H    0.5932148157    0.0602062304   -0.6522309578
 H    1.1890773739   -0.9306132187    1.5725076514
 H   -0.6772541973   -1.1419550087    3.2492129055
 H   -0.1033736603    0.5280820201    3.2001679641
 H   -2.7374539318   -0.0575205186    3.0676135691
 H   -2.8343482771    2.0447352375    2.0748322826
 H   -3.1379259474   -1.1572785387    1.0401640501
 H   -3.1716649746    0.5000572902    0.4395586663
 H   -1.6777620337   -0.9383501867   -1.0031532166