23

 C   -0.2060317769    1.6041827256   -0.0664847564
 C    0.0494653372    0.1033988412   -0.0199600682
 C    1.1339884140   -0.6000417769   -0.8974478603
 C    2.4250678439    0.1364625765   -0.4966920903
 C    2.3723740965   -0.3114233494    0.9820166362
 C    2.5575566171   -1.8414731759    0.8208712625
 C    1.1568633312   -1.7802079266    0.1885495638
 C    0.2975329430   -2.9988733163   -0.0360337815
 C    0.8070383547   -0.5738242116    1.1316805258
 H    0.6846718126    2.1940172926    0.1665846213
 H   -0.5639239062    1.9143637707   -1.0552771574
 H   -0.9761074548    1.8812204637    0.6623396697
 H   -0.9044443977   -0.4205877410   -0.1530717022
 H    0.9589623129   -0.8050521124   -1.9548043391
 H    3.3188677514   -0.2383741220   -1.0043604997
 H    2.3748263836    1.2157140246   -0.6561981762
 H    2.9352401436    0.2598802495    1.7193903899
 H    3.4133318578   -2.1987366232    0.2362986847
 H    2.5175322843   -2.3764836829    1.7756546462
 H    0.2134136978   -3.5986834032    0.8772357866
 H   -0.7165079641   -2.7356121656   -0.3562033097
 H    0.7279902460   -3.6410807705   -0.8142119234
 H    0.4097337422   -0.7003573468    2.1397958377