16

 C    0.0171950868    1.5287335566   -0.0231031794
 C    0.0103587998    0.0259882051    0.0172378661
 C   -0.0120084423   -0.7310005881   -1.1584587172
 N   -0.0195755442   -2.0608293955   -1.2149708058
 N   -0.0050530979   -2.7523898215   -0.0786052585
 C    0.0165099607   -2.0910140919    1.0763029754
 C    0.0255785386   -0.6987768143    1.2081645048
 C    0.0502725667   -0.0439621400    2.5611336996
 H    0.9067910811    1.9373442395    0.4700010375
 H    0.0029668562    1.8954946871   -1.0522269577
 H   -0.8525045237    1.9460741971    0.4974269410
 H   -0.0248558191   -0.2328892084   -2.1253835830
 H    0.0274355159   -2.7209747246    1.9630126214
 H    0.9352502510    0.5916028975    2.6810125385
 H   -0.8240383612    0.6004466557    2.7088364732
 H    0.0591559916   -0.7895343844    3.3597919041