22

 C   -0.0347987711    1.5709461365    0.0075849377
 C    0.0007490897    0.0354081600    0.0001878261
 C    0.6433739599   -0.5112227005   -1.2859909745
 C    0.8815968808   -2.0229529172   -1.1844426080
 C    1.8023765342   -2.3519661692   -0.0195234619
 C    2.3341856777   -3.7372914451    0.0969416491
 N    3.2433901708   -2.6411578891   -0.2661700158
 C    1.5418305729   -1.5476652964    1.2014102195
 C    0.7169796516   -0.4999973146    1.2189118051
 H    0.9794325563    1.9845762371   -0.0145402888
 H   -0.5758130825    1.9546691384   -0.8637438281
 H   -0.5315910900    1.9520915794    0.9060140541
 H   -1.0437388685   -0.3156853978    0.0350417901
 H    0.0096136345   -0.2800322094   -2.1493342297
 H    1.6023644514   -0.0015515860   -1.4480930927
 H   -0.0822224463   -2.5277919166   -1.0324826052
 H    1.2994360939   -2.4212908508   -2.1170425143
 H    2.5113465914   -4.1739141779    1.0768685639
 H    2.0396829827   -4.4535470024   -0.6673722896
 H    3.4151290217   -2.6573147961   -1.2694855266
 H    2.0647038324   -1.8552877420    2.1030545489
 H    0.5483840865    0.0309324397    2.1539138805