16

 C   -0.0619239207    1.4323768676    0.0943069598
 N    0.0257799177   -0.0089347528   -0.0421358808
 C    0.6200361992   -0.6233192762   -1.0796226595
 C    1.2275436574   -0.0369424497   -2.1575100451
 C    1.7546166345   -1.0285673809   -3.0721974795
 O    2.3487833774   -0.8925836294   -4.1204110420
 C    1.4076324441   -2.4069758570   -2.4421268723
 O    1.6736363477   -3.4849190519   -2.8956803519
 C    0.6609467790   -2.1313417757   -1.1309145400
 H    0.9348080333    1.8868898862    0.1346129729
 H   -0.6083113754    1.8758746265   -0.7461442874
 H   -0.5908554718    1.6715186501    1.0178284379
 H   -0.3778111466   -0.5811267983    0.6798878152
 H    1.3170016629    1.0265088644   -2.3294215646
 H    1.1958247080   -2.5674032454   -0.2786289840
 H   -0.3398074566   -2.5793728874   -1.1505970186