25

 C   -0.0548065446    1.3671508318    0.2780652627
 C   -0.3656105254   -0.0388067036   -0.2527560920
 C    0.5722639579   -0.5000493514   -1.3915853759
 C    0.0121477373    0.0488201854   -2.7106489439
 C    2.1289419641   -0.4446563437   -1.1599393486
 C    1.9748066106   -1.5999639103   -0.1318791865
 C    1.0799657325   -2.0031883095   -1.3511084541
 C    0.2449861259   -3.2483838415   -1.5022615791
 C    2.2914112493   -1.5623761069   -2.2307088293
 H    0.9308514747    1.4013607421    0.7537315124
 H   -0.0591825332    2.1145651665   -0.5222940706
 H   -0.7943824354    1.6785791582    1.0226950768
 H   -0.3568271395   -0.7417119219    0.5845813510
 H   -1.3943535815   -0.0568785352   -0.6337604456
 H    0.6809050455   -0.0542678015   -3.5653897222
 H   -0.9288935737   -0.4548731261   -2.9627890759
 H   -0.2165738817    1.1155756862   -2.6111517917
 H    2.7464645301    0.4490610744   -1.0520919187
 H    2.8631442354   -2.2190167567    0.0221748002
 H    1.4921133416   -1.3841623250    0.8208262360
 H   -0.5264813844   -3.3058638151   -0.7260377255
 H   -0.2577343328   -3.2725532185   -2.4758366711
 H    0.8637427442   -4.1493802972   -1.4247048142
 H    2.1094060392   -1.3201304818   -3.2769677707
 H    3.1910669240   -2.1769945986   -2.1340093836