14

 C   -0.3002010502    1.4964174668   -0.0216166357
 C    0.0994982091    0.0414876651   -0.0108992597
 O    1.3307269640   -0.2060812900   -0.7738618616
 C    1.9969916614   -0.6853713977    0.3265217389
 N    3.1634310857   -1.1005269872    0.4862362985
 C    0.7936604744   -0.5464464046    1.2605467632
 C    0.9392360443    0.3154642036    2.4189261274
 N    1.0333400550    1.0159232200    3.3329906596
 H    0.4989824088    2.1296767793    0.3718376496
 H   -0.5273119358    1.8101666001   -1.0442048820
 H   -1.1935813805    1.6458417446    0.5924639107
 H   -0.6952827610   -0.6049211150   -0.3920760438
 H    3.7049965599   -1.0627084726   -0.3784186828
 H    0.3948706648   -1.5164712323    1.5672648778