18

 O   -0.0992556353    0.0213193578    0.0966313512
 C    0.0183014574    1.2225259302    0.1340781059
 C    1.3144608934    1.9475216131    0.0453286400
 C    2.6621156731    1.2891276486   -0.2904567465
 N    3.1138471006    2.6384182135   -0.7748830157
 C    2.7715120306    3.6469336040    0.3499325314
 C    1.8508908644    4.3710589042   -0.6538058564
 C    1.6712071145    2.9448850680   -1.1622759334
 C    1.7488553706    2.8664714670    1.2122916501
 H   -0.8775322707    1.8829571900    0.2191225874
 H    3.2436451431    0.8437208521    0.5216807918
 H    2.6206752516    0.6032945993   -1.1397451683
 H    3.6103008595    4.1340745654    0.8441451641
 H    0.9975829190    4.9328938571   -0.2687667997
 H    2.4105489306    4.9612748070   -1.3820891089
 H    1.3330392192    2.6712871963   -2.1622255201
 H    0.9587353966    3.5107327563    1.6075311701
 H    2.1814713018    2.2946109100    2.0365743570