15

 O   -0.0615316388   -0.0292560124    0.0332687912
 C   -0.0283868753    1.1775947902    0.0949434336
 C    1.2150849091    1.9687358447    0.0339034512
 C    1.1652510819    3.3000294101    0.1089984287
 C    2.3784157919    4.1584040588    0.0539324793
 O    3.6222157749    3.4746254477   -0.0859499647
 C    3.7578491150    2.1247691700   -0.1691304984
 O    4.8593847601    1.6675003811   -0.2851100074
 C    2.5196342968    1.2461682011   -0.1129231575
 H   -0.9564406854    1.7817353329    0.2042596422
 H    0.2151414130    3.8187188694    0.2155665550
 H    2.3015541585    4.8636859841   -0.7856798262
 H    2.4470666745    4.7704224176    0.9644258193
 H    2.6630190326    0.5333492569    0.7070118108
 H    2.5198423213    0.6248591576   -1.0156538671