23

 C   -0.1497282556    1.5081268433   -0.1092045285
 C    0.0503011406    0.0055824667    0.0321758768
 O    0.7570056854   -0.4082053273   -1.1384544488
 C    0.8834040900   -1.8140425040   -1.2481055514
 C    1.6533858349   -2.4061985940   -0.0668716254
 C    0.9754875916   -1.9926398602    1.2463583515
 C    0.7765259124   -0.4829153033    1.2866717644
 C    1.8623233288    0.3461649827    1.9271278481
 C    0.5365378725    0.1574614727    2.6285187877
 H    0.8102965334    2.0284901612   -0.1624315896
 H   -0.6892962893    1.7096263221   -1.0379793588
 H   -0.7318731056    1.9175205419    0.7201423948
 H   -0.9435068795   -0.4813597895    0.0256467939
 H   -0.1170419699   -2.2791688982   -1.3108047042
 H    1.3977110443   -2.0009837472   -2.1957350369
 H    1.6997327765   -3.4973934060   -0.1603886949
 H    2.6821759058   -2.0279098825   -0.0883581490
 H   -0.0030417106   -2.4892618356    1.3216813661
 H    1.5616259089   -2.3223117372    2.1114807960
 H    2.7297577278   -0.1742930705    2.3202967756
 H    2.0856222842    1.3261523484    1.5220976841
 H   -0.1268218765    1.0124283736    2.6952235309
 H    0.5011470000   -0.4944825772    3.4959158676