18

 C    0.0735789856    1.4913568344    0.2952242286
 O    1.1491374816    2.1767612784   -0.3354350030
 C    2.1887372885    1.3894293168   -0.8770061250
 C    2.3415765650    0.0482548856   -0.1613545452
 N    1.1278320644   -0.7742022188   -0.2752600883
 C   -0.0862607880    0.0434806168   -0.1151277805
 C    0.3027816469   -0.4577643670   -1.4609682657
 C    0.8173929552    0.4457734282   -2.5727265263
 O    2.0024380841    1.1645026479   -2.2562676891
 H    0.2067824742    1.5308647060    1.3881159660
 H   -0.8406340096    2.0514451481    0.0633676460
 H    3.0980773617    1.9937284139   -0.8141760019
 H    3.1822587725   -0.4929287171   -0.6050058983
 H    2.5565514640    0.2000538541    0.9023446220
 H   -0.9011582233   -0.4587637095    0.4055045793
 H   -0.2466617016   -1.3189480718   -1.8368255902
 H    1.0590657500   -0.1668043480   -3.4478657103
 H    0.0237476388    1.1466049120   -2.8732150881