20

 C   -0.0130404471    1.4214817642    0.0618617480
 N    0.0767527789   -0.0276999578    0.0069083228
 C   -0.1563238837   -0.7347481317    1.2543027287
 C    0.0254240991   -0.6445864545   -1.2023548744
 C   -0.0349120332   -0.0491711323   -2.4285922482
 C   -0.0112991862   -1.0357832267   -3.4950241387
 O   -0.0579617207   -0.8473551189   -4.6946511638
 C    0.0838046633   -2.4258658791   -2.8336208042
 C    0.0676420875   -2.1598163454   -1.3186044317
 H    0.6749878940    1.8671257803   -0.6613981302
 H   -1.0271952396    1.7852987734   -0.1572395070
 H    0.2685786115    1.7619166648    1.0608984755
 H   -1.2057480717   -0.6704905801    1.5794370719
 H    0.1058849731   -1.7872571873    1.1546200032
 H    0.4677572603   -0.3041181035    2.0439056841
 H   -0.1045394125    1.0096608903   -2.6304956649
 H   -0.7491773800   -3.0505187940   -3.1672465744
 H    1.0029263859   -2.9194505177   -3.1625044184
 H    0.9516819297   -2.5640446766   -0.8118981613
 H   -0.8039199085   -2.6108444074   -0.8303598370