18

 C    0.0248414697    1.5174062878    0.1463093621
 C    1.3262194992    0.7723554439    0.0148301403
 C   -0.0027819489    0.0214244554   -0.0049682872
 C   -0.0797667953   -0.6136214318   -1.4153462610
 C    1.4124691324   -0.8722514758   -1.7226217156
 C    1.9376210744    0.5269953267   -1.3726899692
 O    1.4503751847    1.4591857531   -2.3739654150
 C    0.1934970101    1.2048740364   -2.8198733394
 N   -0.6094546717    0.3009986029   -2.4394179560
 H   -0.2015157321    1.9055162920    1.1344291413
 H   -0.3238427597    2.1488345883   -0.6612580295
 H    1.9994509875    0.7319665446    0.8639725077
 H   -0.3253884053   -0.5840580288    0.8347377287
 H   -0.6970696569   -1.5132327992   -1.4129006675
 H    1.8398605276   -1.6101028793   -1.0375690660
 H    1.6063170158   -1.1765258505   -2.7553013593
 H    3.0213613873    0.6424257855   -1.3899748400
 H   -0.0798866389    1.9158217887   -3.5974286144