21

 C    0.0467231510    1.5275370548    0.0020314693
 C   -0.0084357117    0.0290112740    0.0967998730
 C    1.1600318310   -0.8682033403   -0.2169612297
 C    0.5226419451   -0.9602675145    1.1516233391
 C    1.2988186149   -0.7307167129    2.4134526736
 O    2.0106907024   -1.8869722284    2.8401579411
 C   -0.7515338611   -1.8078948761    1.0273761171
 C   -1.3025529581   -0.8034660929   -0.0369349105
 O   -2.4920504073   -0.1365274499    0.3218391991
 H    0.9862263716    1.9201854144    0.4035230359
 H   -0.0314920527    1.8558473156   -1.0412044828
 H   -0.7786007042    1.9925525455    0.5506060926
 H    1.0589751281   -1.6865884771   -0.9280789340
 H    2.1229201203   -0.3648389928   -0.2569973067
 H    1.9761078662    0.1294547594    2.2808369052
 H    0.6254395487   -0.4868896063    3.2435861483
 H    2.5486228864   -2.1785399809    2.0961982611
 H   -0.6220498977   -2.8517355975    0.7238855198
 H   -1.3732750814   -1.7855516410    1.9282914263
 H   -1.4919628333   -1.2096254699   -1.0361536695
 H   -2.4026802782    0.1694312669    1.2313349316