16

 C   -0.3387398322    1.1411198235   -0.1279142592
 C    1.1288394725    1.0669275293    0.2522718219
 C    0.3524422494   -0.1813667144    0.0019920957
 O    0.0916375127   -0.9662043306    1.1509312412
 C   -0.9129714746   -1.8448657010    1.0480617053
 N   -1.6313591144   -2.0040093907   -0.0408212149
 O   -2.5427128650   -3.0171265122    0.2797565247
 C   -2.3278625178   -3.4128023079    1.5422060028
 C   -1.3094261801   -2.7193697563    2.1028156446
 H   -1.0387378338    1.4078932718    0.6551953217
 H   -0.6145184252    1.4770639175   -1.1207932519
 H    1.8800573013    1.3572727995   -0.4730975395
 H    1.3833303203    1.2826039997    1.2837138083
 H    0.5358621741   -0.7760435817   -0.8866517193
 H   -2.9767332731   -4.1953854255    1.9049150032
 H   -0.8928095341   -2.7984819112    3.0917758455