22

 C   -0.0807317174    1.5603278860    0.0561561904
 C   -0.0076503860    0.0220665926    0.0384972758
 C    0.7352400025   -0.4816909934    1.2895608567
 C   -1.4433477660   -0.5431767865    0.0480991516
 C    0.7400404293   -0.4902221947   -1.2530839714
 C    2.2146975821   -0.0708846710   -1.3413124010
 O    0.7622151899   -1.9146134058   -1.3103082257
 C    0.0376632684    0.0187566297   -2.4607340356
 N   -0.5220990229    0.3904183263   -3.4015873643
 H    0.9116318053    2.0174341847    0.1038843186
 H   -0.5962619671    1.9530360819   -0.8253139946
 H   -0.6338649835    1.8917464013    0.9406198227
 H    0.1367582636   -0.2748036198    2.1822177504
 H    0.9079137373   -1.5595607178    1.2353154670
 H    1.6999385452    0.0160398997    1.4212886406
 H   -1.9956765486   -0.2662577088   -0.8554740941
 H   -1.4528919003   -1.6341293128    0.1450454284
 H   -1.9925233401   -0.1458594911    0.9067394301
 H    2.7677520756   -0.5083435529   -0.5087259019
 H    2.6393258750   -0.4510839071   -2.2724260427
 H    2.3275055669    1.0138138899   -1.3226976591
 H   -0.1401918891   -2.2342034303   -1.4158869518