19

 C   -0.3064446615    1.2586427234   -0.0405250776
 O    0.2337518073   -0.0455004603    0.1105224301
 C    0.7982562299   -0.5468430679   -1.0352453733
 C   -0.0287346526   -1.0687022860   -2.1720686989
 C    0.9007622075   -2.0303652119   -1.4350340119
 C    2.3421859950   -1.7881922051   -1.9260802166
 C    2.2448065382   -0.2939597110   -1.4752936136
 C    0.4331607592   -3.2018280928   -0.7808161627
 C    0.0650373998   -4.2030321793   -0.2226030991
 H    0.4701468556    1.9934818445   -0.2945704046
 H   -1.0814162240    1.2830569279   -0.8187358374
 H   -0.7502162863    1.5300015298    0.9195090355
 H   -1.0778181850   -1.2083565682   -1.9346632426
 H    0.1823756161   -0.8051273883   -3.2067175088
 H    3.0809587325   -2.3533339079   -1.3565037701
 H    2.5007346709   -1.9651189307   -2.9939808547
 H    2.3969119396    0.4716349433   -2.2425438638
 H    2.8946194901   -0.0832589238   -0.6234023395
 H   -0.2670234621   -5.0815610059    0.2718871096