16

 C    0.0374390993    1.5025519939    0.0067749057
 C    0.0226876481    0.0477331783    0.0355708759
 C    0.0129267536   -1.1568374647    0.0514453242
 C    0.0017997476   -2.5868126488    0.0790783664
 C   -0.4785367847   -3.3732326889    1.2855440871
 O   -1.2888341040   -2.6712846577    2.2089156805
 C   -2.4073814043   -2.3319602954    1.5114609126
 N   -2.5231531337   -2.7274428404    0.3082942830
 C   -1.2940826043   -3.4161679595    0.0090531028
 H    0.8917257711    1.8763675940   -0.5685165695
 H   -0.8722035675    1.9010177898   -0.4561587283
 H    0.1095506479    1.9228296616    1.0161739251
 H    0.8312885225   -3.0756262582   -0.4259962687
 H    0.1109874730   -4.1572826188    1.7424058844
 H   -3.1275505371   -1.7451762866    2.0668061562
 H   -1.3461609876   -4.2466248187   -0.6837517573