16

 N    0.0133391720   -0.9136953735    0.6874581524
 C   -0.0685638943    0.1971061524    0.3791283431
 C   -0.1201884841    1.5904391746    0.0216146665
 N   -1.2202045496    2.2398895355   -0.0513584100
 C   -0.8695017965    3.6343287262   -0.3729973979
 C    0.6747909123    3.6880233417   -0.3560628899
 C    1.4445758341    3.9795429109    0.9596192617
 C    2.0131767866    2.5362629515    0.8679735574
 N    1.0835058642    2.2439172330   -0.2774068802
 H   -1.2747899113    3.8867970666   -1.3590980450
 H   -1.3415575255    4.3078548442    0.3519071577
 H    1.0944002360    4.1856909376   -1.2327063032
 H    2.1746306153    4.7896477887    0.9254688272
 H    0.7840911401    4.1293965450    1.8175171338
 H    3.0545455990    2.4807866374    0.5440958915
 H    1.8724189717    1.8852020483    1.7340892249