20

 C    0.2757636255    1.5021762014    0.2949222829
 C    0.1623568371   -0.0152077868    0.1226043074
 C    0.8955743634   -0.7572300548    1.2431960981
 O   -1.2314018630   -0.3876208154    0.0859924909
 C    0.7113020117   -0.4137334727   -1.2733718498
 O    2.0218957883    0.0575456536   -1.4228313874
 C    0.7249227369   -1.9344351434   -1.5480928303
 N   -0.4505127611   -2.5878077916   -1.4343439702
 O    1.7723403100   -2.4611447727   -1.8987204606
 H    1.3186164740    1.8182552983    0.2309037181
 H   -0.2949818460    2.0161936813   -0.4837105799
 H   -0.1212164584    1.8053230536    1.2708944003
 H    0.5633308422   -0.4044314853    2.2260020781
 H    0.7139698058   -1.8340839136    1.1854377188
 H    1.9708773248   -0.5798942215    1.1629553037
 H   -1.6118636087   -0.1946283993    0.9488346058
 H    0.0413552383    0.0468408870   -2.0181800119
 H    2.5224889186   -0.7285437125   -1.7118940298
 H   -1.2153693240   -2.1274952700   -0.9611229319
 H   -0.4502365654   -3.5880386454   -1.5536927521