21

 C    0.1791019364    1.5306715603    0.1319624589
 C    1.3785428745    0.6409149445    0.0449490430
 O    1.6220632054   -0.0133793886    1.2886089133
 C    0.3372925748   -0.7344736588    1.1724511747
 C    0.5934203094   -2.2348325483    0.9967986491
 C    0.6647971946   -2.7561099959    2.4377203134
 C   -0.4961908957   -2.0129076336    3.1263346855
 C   -0.5152408076   -0.6141824086    2.4563709807
 C    0.0040080480    0.0414694932   -0.1010774810
 H   -0.0872352545    1.9851269660    1.0815335414
 H   -0.0135128847    2.1443353676   -0.7431266373
 H    2.2073231765    0.7591279361   -0.6432617135
 H   -0.2667444631   -2.6831974525    0.4799100070
 H    1.4866108507   -2.4229657961    0.3970711905
 H    0.5848301182   -3.8439768023    2.5122362505
 H    1.6218652153   -2.4607119109    2.8829413747
 H   -1.4372283820   -2.5389369627    2.9283932762
 H   -0.3839102928   -1.9584174369    4.2122958974
 H   -0.0617852308    0.1457935046    3.0969534060
 H   -1.5301952211   -0.2793693530    2.2229281943
 H   -0.5033385516   -0.3692179241   -0.9643875347