21

 C   -0.0641479916    1.5625269887    0.0062593769
 C    0.0462845710    0.0365318063   -0.0481524219
 C    0.6811166226   -0.5539591884    1.2162692717
 C    0.7710972470   -2.0976408195    1.2128067761
 C    1.6709541915   -2.5987626902    2.3666540846
 C    1.8071706851   -4.0500838134    2.3978869145
 C    1.8946813738   -5.2486843046    2.3960716900
 C   -0.6284873036   -2.6701608434    1.3528074070
 O   -1.3081462961   -3.0716165058    0.4452987610
 H    0.9195315765    2.0294320485    0.1297124692
 H   -0.5080204913    1.9596822759   -0.9114811829
 H   -0.6905359136    1.8856022368    0.8452465809
 H   -0.9456566249   -0.4025600429   -0.2034669617
 H    0.6448802249   -0.2597591017   -0.9188305626
 H    1.6944942604   -0.1500394979    1.3402778784
 H    0.1175943738   -0.2270494301    2.1026055828
 H    1.1737918224   -2.4405611682    0.2544390240
 H    2.6591240588   -2.1328392869    2.2721593064
 H    1.2608494695   -2.2469450005    3.3235753806
 H    1.9761813999   -6.3074415927    2.4016583021
 H   -1.0198432461   -2.6518165401    2.3992331728