17

 C   -0.0915438313    1.5153425761    0.0512496947
 C    0.1517776077    0.0440189373   -0.0077357679
 O   -0.7547226721   -0.8316381994    0.6909470976
 C    0.6397220975   -0.9392836763    0.9759232977
 C    1.2588179352   -1.8375340341   -0.1070023918
 C    0.7742380937   -3.1996405682   -0.2054592274
 N    0.3689785591   -4.2752444609   -0.3341096774
 C    0.6807673181   -0.7803260392   -1.1944882914
 N   -0.3116349204   -1.1395643953   -2.1601319195
 H    0.8051439513    2.0680090942   -0.2462494593
 H   -0.9012387650    1.7931904732   -0.6311357601
 H   -0.3730486439    1.8163677642    1.0633572049
 H    0.9566826156   -0.8243506552    2.0056984531
 H    2.3516858084   -1.8233131916   -0.0895576204
 H    1.5268376075   -0.2954505889   -1.6890295705
 H    0.0540191324   -1.7736240655   -2.8622738564
 H   -1.0904369139   -1.6023174904   -1.7008670060