17

 C   -0.1353538514    1.4522425152    0.0404362660
 N    0.0204747076    0.0135037513   -0.0025860099
 C    0.0582546426   -0.7846216127   -1.1450032289
 N   -0.0514605555   -0.1715726021   -2.4145916930
 C    0.2381864081   -2.0914676793   -0.7461780295
 C    0.2984549089   -2.0938620503    0.6777583594
 O    0.5286882053   -3.1346218998    1.5584943661
 C    0.1555473934   -0.7930761091    1.0919051604
 O    0.1501008011   -0.2484473975    2.3368595995
 H    0.6693197287    1.9069404100    0.6253351644
 H   -0.0979293970    1.8171194363   -0.9857582788
 H   -1.0917695733    1.7355196530    0.4931194942
 H    0.6973300425   -0.4581277716   -3.0345266378
 H   -0.9298439950   -0.3871065120   -2.8753609393
 H    0.3205672450   -2.9472403084   -1.3992108373
 H   -0.1579005394   -3.7985468384    1.4371053904
 H    0.2939043583   -0.9799905546    2.9492013241