20

 C    0.0153762472    1.5424997203    0.0140447254
 C    0.0341407382    0.0414443306   -0.0274694555
 C    0.0409883552   -0.6625829893   -1.1625057663
 C   -0.0008429206   -2.1446296652   -1.1574826516
 C    1.2367798091   -2.9758337823   -1.0783980260
 N    0.3457799067   -2.8563252764    0.0776249343
 C    0.8169874919   -2.0139283702    1.1867215402
 C    0.0305053421   -0.7046478305    1.3017767018
 O    0.6602011721    0.0271214547    2.3504010973
 H    0.8881014429    1.9328507195    0.5483130732
 H    0.0038483763    1.9663093978   -0.9932574704
 H   -0.8725892509    1.9169219463    0.5430758816
 H    0.0195776609   -0.1608209959   -2.1280268368
 H   -0.8539284309   -2.5788065199   -1.6810937682
 H    1.2731982798   -3.9560935883   -1.5475576216
 H    2.1875535511   -2.4475585602   -1.0392665973
 H    0.7192405670   -2.5793668267    2.1191609812
 H    1.8748944100   -1.7391866282    1.0805015565
 H   -1.0118984631   -0.9334686181    1.5796388548
 H    0.0579257649    0.7159200422    2.6449757373