20

 C   -0.6805361216    1.2022748293    0.3634975213
 N   -0.0413609754   -0.1070581738    0.2470225550
 C    1.1784028423   -0.2905153763   -0.5606361528
 C    1.9175784082    0.8165666058   -1.2133700089
 O    1.9810229349    1.9683267416   -0.8388190939
 C    1.1672517428   -0.4179771854    0.9622518994
 C    1.8839951142    0.5334522421    1.8628317249
 C    1.6903369342    0.3978579035    3.3582767100
 C    3.0006749136    0.0045779633    2.7322984141
 H    0.0027947384    2.0555347582    0.3395496863
 H   -1.3922204038    1.3066267255   -0.4608665198
 H   -1.2441217555    1.2137897597    1.3011980331
 H    1.1804060086   -1.2079591888   -1.1469060002
 H    2.4455320620    0.4989854247   -2.1405360064
 H    1.1951970700   -1.4496351598    1.3191622579
 H    2.0110301632    1.5359219840    1.4758759667
 H    1.6460986409    1.3069382509    3.9472119258
 H    1.0423203506   -0.3958813924    3.7154225764
 H    3.2341930814   -1.0537357960    2.6714944581
 H    3.8644811308    0.6405952537    2.8881418731