23

 C    0.1961614001    1.6752733012   -0.0001022398
 C    0.0242403220    0.1486153064    0.0258486777
 C    0.6115029308   -0.4527026283   -1.2713701032
 C    0.9380569618   -1.9477332912   -1.2938020155
 O   -0.1524173933   -2.8418814176   -1.2027258153
 C   -0.8720968430   -2.9497048124    0.0174129349
 C   -0.1002362401   -2.7716666373    1.3351972998
 O   -0.1642765753   -1.4795841449    1.9065103060
 C    0.6075366478   -0.4384952920    1.3329606001
 H    1.2553180501    1.9528187181    0.0680665518
 H   -0.1938839540    2.0999213508   -0.9308675827
 H   -0.3293033396    2.1507838678    0.8342409595
 H   -1.0500025027   -0.0632365557    0.0631293972
 H   -0.0598775337   -0.2218741820   -2.1072174195
 H    1.5594726799    0.0613801865   -1.4899952148
 H    1.3994708120   -2.1826992333   -2.2590205373
 H    1.6958830058   -2.1732339113   -0.5296837891
 H   -1.7232561569   -2.2525437219    0.0368734940
 H   -1.2867428527   -3.9642584525   -0.0014782108
 H   -0.5758732351   -3.4189263053    2.0796597101
 H    0.9397426071   -3.1167942476    1.2291437201
 H    1.6535500036   -0.7570073634    1.1946972735
 H    0.6136302055    0.3420282061    2.1008357933