14

 C   -0.0225503612    1.4223855230   -0.0333519239
 N   -0.0261114683   -0.0334253125    0.0050633201
 N   -0.0764583834   -0.6398549056   -1.2279353432
 C   -0.0819718347   -1.9084830540   -1.2570092154
 O   -0.0432455076   -2.7476142621   -0.1936372383
 C    0.0087754377   -2.2156687846    1.0883088363
 N    0.0461016164   -2.9514589548    2.1063730302
 C    0.0186587494   -0.7059520319    1.2083232861
 O    0.0626009431   -0.1516223675    2.2827333704
 H    0.8474084941    1.7761257886   -0.5931002685
 H   -0.9310133543    1.7822796874   -0.5237077762
 H    0.0187409990    1.7809474099    0.9930209676
 H   -0.1207292524   -2.4350406658   -2.2008505425
 H    0.0323557322   -3.9384706201    1.8423530374