16

 N    0.1625839212   -0.6073990518    1.2508754020
 C    0.0667539065    0.3279837049    0.5785531498
 C   -0.0404111990    1.5216925499   -0.3014062996
 O   -1.0761941046    2.3842497429    0.1345530564
 C   -0.7563207355    3.3694795470    1.0819413951
 C    0.1012711760    3.1378798698    2.2834247046
 C    0.6268429064    3.9692906348    1.1006101708
 C    1.5872077473    3.3325477310    0.1770448579
 C    1.3025711288    2.1981484070   -0.4622101276
 H   -0.3766706938    1.1506256142   -1.2775240019
 H   -1.6110393283    4.0285011922    1.1783156446
 H   -0.1637789825    3.6650394596    3.1935604413
 H    0.5555075083    2.1666902439    2.4385036868
 H    0.7285539984    5.0385382769    1.2489707103
 H    2.5442557603    3.8201525177    0.0169320357
 H    2.0074354605    1.7165690898   -1.1301263162