20

 C   -0.1065578691    1.3908038563   -0.0040112990
 O    0.0815852148   -0.0023743068    0.0625611462
 C    0.6125580742   -0.5435192762   -1.1244229258
 C    0.7588589991   -2.0496255349   -0.9452830822
 C    1.3609537050   -2.7387936327   -2.1625858593
 C    1.3404537731   -4.2969284201   -2.1779274705
 C    0.4882837210   -4.1669591555   -3.4644007822
 O    0.0059183200   -4.9184407367   -4.2669549441
 N    0.5009713006   -2.7951211404   -3.3588458600
 H    0.8414082435    1.9239572865   -0.1802569205
 H   -0.8101409269    1.6709877632   -0.8042064944
 H   -0.5184019416    1.7116627274    0.9557255860
 H   -0.0521257578   -0.3206569803   -1.9783624794
 H    1.5923643054   -0.0863227275   -1.3531695836
 H    1.3996122743   -2.2373988902   -0.0755924394
 H   -0.2242581853   -2.4812935003   -0.7265945557
 H    2.3539143286   -2.3263972842   -2.3838714257
 H    2.3052492203   -4.7833070241   -2.3299811909
 H    0.8211703522   -4.7609320809   -1.3371092651
 H    0.1978597285   -2.0837666526   -4.0078377546