18

 C    0.1669855669    1.3844231913    0.1949245215
 C    0.0823025054   -0.0911269472    0.0212564353
 N   -0.1463824901   -0.7307415329   -1.0579863921
 C   -0.0847266517   -2.1335655194   -0.7303569714
 C    1.2350681875   -2.6814547257   -0.1871395015
 C    2.5686284001   -1.9746249893   -0.3215209787
 O    3.2995553367   -1.9569317672    0.8967614684
 C    0.1780929902   -2.1922927149    0.7634050979
 O    0.2761495819   -0.8294396872    1.1640029243
 H    1.1812016526    1.6817022848    0.4807142048
 H   -0.0998717579    1.8749473379   -0.7405438669
 H   -0.5065705752    1.7117963858    0.9926917343
 H   -0.7523998946   -2.7885679029   -1.2764058907
 H    1.2877227545   -3.7664253670   -0.2179943762
 H    3.1948327716   -2.5130080639   -1.0391107652
 H    2.4275436123   -0.9614550359   -0.7196230710
 H    2.7622443894   -1.4765647649    1.5360430022
 H   -0.3010796695   -2.8167476514    1.5063022650