16

 C   -0.0930804466    1.5023983514   -0.0353470258
 C   -0.0230888379   -0.0108622213   -0.0481116677
 C    0.7749812990   -0.7120820693   -1.0853830564
 N    1.2527937160   -0.6782978210    0.3067573947
 C   -1.2159824331   -0.6886156376    0.5246850124
 N   -1.7461633371   -1.7643687706    0.0047119078
 O   -2.8048854994   -2.0625917374    0.8714914303
 C   -2.7912016276   -1.1145799284    1.8080929969
 N   -1.8541813183   -0.2351287165    1.6658323429
 H    0.8192687627    1.9270368925   -0.4652229043
 H   -0.9436206248    1.8633565807   -0.6229458498
 H   -0.2104901303    1.8756219414    0.9857946088
 H    0.4651654512   -1.6903854725   -1.4367264179
 H    1.2704303029   -0.0905826850   -1.8268909095
 H    1.9764711239    0.0297334357    0.4134719854
 H   -3.5482741106   -1.1707343523    2.5766632524