17

 C   -0.0893001185    1.6489714789    0.1150069800
 C    0.0209546030    0.1331377908    0.0340402392
 C   -1.3434664722   -0.5416945760   -0.2212469912
 C   -1.9363147127   -0.1526910569   -1.5000966543
 N   -2.3806749888    0.1675940492   -2.5177969122
 C    1.1391731288   -0.4624953146   -0.8599437479
 O    1.6073991750   -1.2990258250    0.2182072273
 C    0.7887622407   -0.5923958902    1.1686545911
 H    0.8900918997    2.1005492447    0.2976095089
 H   -0.4880160257    2.0671883329   -0.8147901737
 H   -0.7564891806    1.9524617809    0.9299557790
 H   -1.2231996871   -1.6309301766   -0.2124469392
 H   -2.0454252658   -0.2886710810    0.5823949411
 H    0.8257385156   -1.0445184020   -1.7336607397
 H    1.8966155789    0.2698747104   -1.1693676372
 H    1.3808466501    0.0822367034    1.8020793114
 H    0.2143149498   -1.2719848090    1.8100187373