20

 C   -0.0273889567    1.5584020450   -0.1797782303
 C    1.3827661755    2.1202819498    0.0455519910
 O    2.0340319533    1.4939966540    1.1506064355
 C    1.5670176180    1.8156634400    2.3933607124
 N    1.1747675393    0.9831971498    3.2527804648
 C    1.0559749027   -0.4256795368    2.8282737764
 C   -0.3592795827   -0.6841969329    2.3547072782
 C   -0.8295612086   -0.4987277064    1.1191855755
 C   -0.0819289800    0.0004748975   -0.0962989012
 H   -0.7110212438    1.9869825255    0.5606054543
 H   -0.3702012410    1.9110138614   -1.1593223445
 H    2.0263166966    1.9090761055   -0.8133258468
 H    1.3505637168    3.2109351919    0.1877945479
 H    1.5907739771    2.8854869192    2.6223932556
 H    1.7798280440   -0.6809372339    2.0485452399
 H    1.2673041313   -1.0467044678    3.7031535645
 H   -1.0606501519   -0.9948428230    3.1254342905
 H   -1.8921709008   -0.6787674758    0.9613679140
 H   -0.5725966817   -0.3906596649   -0.9926226905
 H    0.9392382625   -0.3919632481   -0.1037983771