15

 N   -0.0135611544    1.3030510140    0.3067436754
 C    0.0369405284   -0.0019429743   -0.1004879760
 O    1.0652959585   -0.5492156011   -0.4523780156
 C   -1.2515882844   -0.6714987177   -0.0936494960
 C   -2.2903513999   -1.2876067695   -0.1091050048
 C   -3.5128000471   -2.0272325998   -0.1322895238
 C   -3.7424647797   -3.0726191767   -1.2180624509
 C   -3.5004309964   -3.5176184363    0.1889684780
 H    0.8581011447    1.7961509565    0.4118267233
 H   -0.8509410223    1.6936198056    0.7020463745
 H   -4.3923513226   -1.4794673274    0.1920659995
 H   -4.7457949634   -3.1422304288   -1.6223181003
 H   -2.9478402547   -3.2086680628   -1.9413369674
 H   -2.5402678210   -3.9581477784    0.4279473044
 H   -4.3347807859   -3.8980017435    0.7670085797