19

 C    0.0430328239    1.4482617226    0.0519522786
 C   -0.0304130494   -0.0483615916   -0.0017822165
 O    0.9672825818   -0.6338453833   -0.8184299530
 C    0.4845107296   -1.9119340909   -1.2466574936
 C   -0.6582672548   -2.2062465100   -0.2906153936
 O   -0.0886645398   -2.2243556915    1.0554123187
 C   -0.4761104679   -0.8600113900    1.2123467375
 C   -1.3223975558   -0.8245476258   -0.0442252095
 C   -2.7117488960   -0.3818814822   -0.3876059612
 H    1.0354659872    1.7658554380    0.3860555677
 H   -0.1420758563    1.8875123905   -0.9336572846
 H   -0.6947484131    1.8493703747    0.7533074712
 H    0.1423044206   -1.8716012108   -2.2935269655
 H    1.2935532327   -2.6431524790   -1.1587744123
 H   -1.2723066157   -3.0841056484   -0.4998069240
 H   -0.6261060805   -0.4807756748    2.2184588255
 H   -2.8969766088    0.6374461609   -0.0343752831
 H   -2.8742643606   -0.3857797079   -1.4721091948
 H   -3.4661968172   -1.0335468806    0.0670161726