16

 O    0.0144175635    0.7067926305    0.7859546399
 C   -0.3228142368    0.2628780310   -0.5142628946
 C   -1.5773802157   -0.5888475592   -0.5292084540
 C   -1.6537978083   -1.8084271738   -1.3954525864
 C   -1.4871661459   -1.9709783672    0.1059238139
 O   -0.2407031757   -2.3075945830    0.6526554135
 C   -2.6639445945   -2.4341139409    0.8916287768
 O   -3.8131446142   -2.2634177113    0.5637869436
 H    0.2521695037   -0.0826249894    1.2859198510
 H   -0.4883322763    1.1628762828   -1.1157640846
 H    0.5056394441   -0.2931492946   -0.9751018334
 H   -2.5101222969   -0.0711725964   -0.3283394510
 H   -2.6155366184   -2.1000349858   -1.8020934543
 H   -0.7849158925   -2.0492225117   -1.9998525098
 H    0.0083303558   -3.1898345058    0.3583984746
 H   -2.3858253419   -2.9556707652    1.8347482449