17

 O    0.0592027202    1.4539721006    0.0133272864
 C    0.0016027747    0.0609488736   -0.0584242805
 C   -1.3291992238   -0.6954533396   -0.1228466324
 C   -1.7353890950   -0.8110478280   -1.6158256982
 C   -0.6446654769   -0.1546116932   -2.4342709362
 O   -0.7832573207    1.2473286229   -2.6418184411
 C    0.3785075825   -0.6791907191   -1.3820684796
 C   -0.7279516267   -1.7548509940   -0.9916464624
 O   -0.6971369182   -3.1090174005   -0.7994147733
 H   -0.3986073047    1.7850176648   -0.7731138279
 H    0.6019069067   -0.3295690853    0.7685870513
 H   -2.0770557775   -0.8257955008    0.6483718709
 H   -2.7617287930   -1.0044169220   -1.8973851053
 H   -0.5181307945   -0.6701943327   -3.3954636977
 H   -0.0224219947    1.5562680327   -3.1458122422
 H    1.4162289284   -0.8644712071   -1.6529919643
 H   -0.6473949768   -3.5435796022   -1.6583257374