16

 O   -0.0282945103    1.4794438193    0.2922425036
 C    0.0754928873    0.0934413985    0.0027222989
 C   -1.2894010709   -0.5331043755   -0.0033681899
 C   -1.9977731633   -1.1889126583    1.1842718895
 O   -3.2590021385   -0.8122675968    1.6296009324
 C   -1.8742368676   -1.9530857529   -0.0910920563
 N   -2.8355446863   -1.4858008760   -1.0979350110
 C   -2.3749245047   -0.1631679078   -0.9967999328
 O   -2.7143964344    0.8624138330   -1.5230943910
 H   -0.6311088474    1.8579610326   -0.3602457936
 H    0.5745593844   -0.0777645294   -0.9637122263
 H    0.7097421628   -0.3445025779    0.7806401463
 H   -1.2988344925   -1.4915627611    1.9682374391
 H   -3.1943756612    0.0676947499    2.0169052612
 H   -1.3651291987   -2.9001993104   -0.2147894653
 H   -3.8233018886   -1.7092136871   -1.0438231348