14

 N    0.1996388955    1.4112598723   -0.0008049160
 C   -0.0059291946    0.0155304852   -0.0027089715
 C   -1.1025294100   -0.8294845281   -0.0302336135
 N   -2.4990280446   -0.8580844028   -0.0856532388
 C   -2.7659621946   -2.1188098395   -0.0785960118
 O   -1.7023360269   -2.9967299405   -0.0250081527
 C   -0.6232114064   -2.1539861480    0.0082713327
 C    0.7462007761   -2.1684535943    0.0542425207
 N    1.0879922240   -0.8243836565    0.0505365067
 H   -0.0030396480    1.8220652547   -0.9079378175
 H   -0.4117253701    1.8658020899    0.6694260660
 H   -3.7397199980   -2.5841657435   -0.1092414850
 H    1.4881389934   -2.9461420487    0.0846976124
 H    2.0261914041   -0.4655034001    0.1102442085