17

 C   -0.0722763863    1.5439656365   -0.0224562636
 C   -0.0053132619    0.0487367944    0.0038437163
 C   -0.0823366194   -1.0249669167   -1.0110001586
 O    1.0595525261   -1.7382207189   -0.5635762821
 C    1.0914581414   -0.8764238821    0.6244536024
 C    0.4488256309   -1.6473919558    1.7650198186
 C   -1.0054045923   -1.8192733998    1.2807978225
 O   -1.8523419637   -2.4979096744    1.8036357109
 C   -1.1724070492   -0.9374473044    0.0831391824
 H    0.8563159352    1.9755478181   -0.4114989212
 H   -0.8931412848    1.8848825140   -0.6608528191
 H   -0.2417318978    1.9535661424    0.9798130868
 H   -0.3285270643   -1.0462286410   -2.0661851496
 H    2.0854368470   -0.4619979368    0.7959190197
 H    0.9198478476   -2.6137767290    1.9583720499
 H    0.4512355475   -1.0667177845    2.6960618466
 H   -2.1651789960   -0.6508194920   -0.2418381320