20

 C    0.1622331737    1.3288823082   -0.0690487873
 N   -0.0793197830   -0.0963569183   -0.1087914363
 C   -1.3245847312   -0.6276924423    0.0152990493
 O   -2.3529447111   -0.0049972090    0.1689902582
 O   -1.2508407136   -1.9830349325   -0.0589364229
 C   -2.5068202901   -2.6655658498    0.0590922944
 C   -2.2257882911   -4.1552716425   -0.0505662104
 C   -3.4966209099   -4.9884438175    0.0613222754
 O   -3.1254014828   -6.3530300969   -0.0521024163
 H    0.8223751389    1.6025763218    0.7621635262
 H    0.6102801009    1.6877455792   -1.0029017508
 H   -0.8017502489    1.8194944745    0.0704494277
 H    0.6850096009   -0.7385296330   -0.2318415546
 H   -2.9698610702   -2.4082069876    1.0180937966
 H   -3.1824974905   -2.3194162776   -0.7307688877
 H   -1.7409895151   -4.3710397620   -1.0087091134
 H   -1.5292128045   -4.4597652314    0.7379098822
 H   -3.9919020349   -4.7880163056    1.0256173641
 H   -4.2046323650   -4.6997103440   -0.7328231378
 H   -3.9216589123   -6.8875974838    0.0167038834