15

 O   -0.0581756895    1.3232618128    0.0519091557
 C    0.9762142487    2.2218098025   -0.0246278838
 N    2.0353344838    2.2074596318   -0.6933815075
 C    2.6971753664    1.2302573317   -1.3995992126
 C    3.2709619000    0.1094771503   -0.9121235867
 C    3.1433970787   -0.4366698483    0.4227541246
 C    2.0062200863   -0.7785178179    1.0653890790
 N    0.7416199591   -0.8785369388    0.5338810250
 C   -0.0524373465   -0.0489045249    0.0335095490
 H    0.6824339909    3.1177078968    0.5176392387
 H    2.9606631539    1.5507573343   -2.4051476277
 H    3.9919800828   -0.3728654631   -1.5687718809
 H    4.0680702540   -0.7036506761    0.9301080031
 H    2.0862343480   -1.2555320640    2.0397237887
 H   -0.9941747666   -0.3820994370   -0.3967299148