17

 C    0.0372018933    1.4349183471    0.0052174444
 N   -0.0847009901   -0.0046052940    0.0179935947
 C   -1.2853711505   -0.6272887929    0.0363500404
 N   -2.3946802011    0.0219895942    0.0335475646
 C   -1.1386920731   -2.1472678788    0.0574341975
 O   -0.0392687869   -2.6573550219    0.0544930338
 C   -2.4075374746   -2.9856257765    0.0840380950
 C   -2.1169478703   -4.4770176635    0.0628913031
 O   -2.6455650680   -5.2639216672    0.8017287993
 H    1.0952738639    1.7024114217    0.0114624532
 H   -0.4370409051    1.8628208613   -0.8854063163
 H   -0.4523026867    1.8776171066    0.8800324582
 H    0.7274162346   -0.5990490943    0.0241940140
 H   -3.1926542639   -0.6069060639    0.0562150313
 H   -3.0150699072   -2.7467779463    0.9629050925
 H   -3.0118508696   -2.7364140365   -0.8005499587
 H   -1.3870595347   -4.7969800351   -0.7076819370