27

 C    0.0478797732    1.4268038513    0.2378331708
 C    0.1442700634   -0.0845656660   -0.0000954347
 C    0.7001336656   -0.5459616368   -1.3756220611
 C    0.6703993663   -2.0857881623   -1.3959614104
 C   -0.1402476889    0.0063730299   -2.5599665355
 C   -1.6295085127   -0.3575878138   -2.5829517177
 C    2.1229330434    0.0027190227   -1.5522473468
 C    3.3341434620   -0.5404558015   -0.8365198825
 C    3.2122790805   -0.6891013407   -2.3345508942
 H    1.0249552002    1.9149442997    0.1754005364
 H   -0.6167831822    1.9160612079   -0.4813628488
 H   -0.3515692185    1.6271483981    1.2372383723
 H    0.7807015647   -0.5237457555    0.7785161324
 H   -0.8487047014   -0.5276219983    0.1436050698
 H   -0.3349536197   -2.4556529951   -1.1751597618
 H    0.9595200874   -2.4861451428   -2.3726379416
 H    1.3380455695   -2.5149365844   -0.6421496239
 H   -0.0463074341    1.0990411395   -2.5771864328
 H    0.3275989836   -0.3427393922   -3.4892112533
 H   -2.1147312245    0.0908240550   -3.4559557561
 H   -1.7897912121   -1.4383773967   -2.6426306394
 H   -2.1556262851    0.0076769493   -1.6952369391
 H    2.1308102664    1.0837862117   -1.6662517179
 H    4.0558231463    0.1656553701   -0.4399931092
 H    3.2255771749   -1.4370209446   -0.2359384440
 H    3.0264766203   -1.6842949720   -2.7218573434
 H    3.8505316413   -0.0839944723   -2.9694020875