22

 C    0.2770845587    1.3709032269   -0.2062195212
 C    0.0166446175   -0.1220164275    0.0226938249
 N   -1.3932897664   -0.4744091516    0.0945079562
 C   -2.1171206248   -0.7150820570    1.3405290903
 C   -2.3828790135    0.5643371330    2.1443324817
 C   -3.4145797916   -1.4127536555    0.8502165075
 C   -3.5658984455   -0.9744089749   -0.6140808727
 C   -2.1456604782   -0.6059806202   -1.0413627646
 O   -1.7352560232   -0.4393107352   -2.1738201899
 H    1.3535861628    1.5582565240   -0.2756560375
 H   -0.1872269823    1.6875715933   -1.1431421776
 H   -0.1230632646    1.9838589507    0.6067592583
 H    0.4502818009   -0.6885671978   -0.8079166018
 H    0.4958102520   -0.4637147127    0.9465679832
 H   -1.5297255763   -1.3987514437    1.9674308165
 H   -2.9860005000    1.2730950899    1.5672009103
 H   -2.9209411913    0.3252023537    3.0677081141
 H   -1.4485457723    1.0612366510    2.4218460804
 H   -3.2875545564   -2.4978025887    0.9033144640
 H   -4.2716766346   -1.1508877719    1.4747232617
 H   -3.9721488245   -1.7439594408   -1.2727776879
 H   -4.1992556565   -0.0872130452   -0.7258421859