18

 C   -0.0095922656    1.5524098941    0.1499848492
 N   -0.0114541495    0.1068025788    0.1146353138
 C   -1.2636800632   -0.6020814531    0.4708007273
 C   -0.4083342354   -1.6069435412    1.2369240372
 C    0.7548415563   -0.6176051174    1.1496455547
 N   -0.8449876339   -2.4405814960    2.3302773629
 C   -0.3415185543   -3.0885446444    1.0909734080
 C   -1.3121628443   -3.8068269022    0.3023072547
 N   -2.0761937792   -4.3678758749   -0.3596783822
 H    0.9969720132    1.9273195880   -0.0625165286
 H   -0.6810662167    1.9400598356   -0.6226763379
 H   -0.3326416549    1.9655567799    1.1247814299
 H   -1.9212140967   -0.0359827832    1.1496950102
 H   -1.8474753941   -0.9679440196   -0.3794283314
 H    1.7345899632   -0.9896529114    0.8291856221
 H    0.8755701636   -0.0516578899    2.0901964503
 H   -0.1363076780   -2.5036642537    3.0584948097
 H    0.6445867096   -3.5451083596    1.1085000800