16

 O   -0.1297379036    0.0295433045   -0.2705770237
 C    0.0154849735    1.1425950871    0.1665130501
 C    1.2948468071    1.9115262269    0.0562858040
 C    2.6757520532    1.2891237850   -0.2982295334
 C    3.0007767862    2.7969778785   -0.6136819388
 C    1.5364012918    2.8906479615   -1.1452371356
 C    2.8359703355    3.3715453964    0.8003204458
 O    3.5737168878    4.0464690208    1.4665717347
 N    1.5863875174    2.8375575393    1.1757376314
 H   -0.8164434425    1.6922789486    0.6610184435
 H    3.2250972440    0.8009044591    0.5099503023
 H    2.6509119032    0.6604057167   -1.1890816504
 H    3.8695142414    3.1247600974   -1.1778373693
 H    1.4060704707    2.4023980612   -2.1117468248
 H    1.0252424119    3.8537033037   -1.1029846337
 H    1.4989604224    2.5140665334    2.1308090680