16

 C   -0.0052781839    1.4815884019    0.0938412554
 C    0.0117009550   -0.0051760727    0.0039483763
 C   -0.0016503797   -0.7776798295   -1.1013918485
 C   -0.0352076037   -0.3628543633   -2.4502713610
 C   -0.0638003400   -0.0175745018   -3.6036181043
 C    0.0251494118   -2.2326853942   -0.7009385732
 O    0.0227208525   -3.2119941833   -1.4104100703
 N    0.0536177677   -2.2123100379    0.6749278393
 C    0.0486062119   -0.8832018319    1.2318673253
 H    0.8812851219    1.8549581926    0.6213947211
 H   -0.0319472337    1.9309017989   -0.9008272762
 H   -0.8779996629    1.8326386466    0.6584921649
 H   -0.0888319320    0.2725284437   -4.6247165214
 H    0.0758911551   -3.0607129966    1.2136651128
 H    0.9433416015   -0.6770155128    1.8388169911
 H   -0.8247567015   -0.6992862997    1.8759671387