22

 C   -0.0419658723    1.5969774567   -0.1592594503
 C   -0.0641576110    0.0764845548    0.0497863751
 C    0.6751831512   -0.3815604570    1.2720388255
 N    0.3791012112   -1.6732496157    1.9415898819
 C    0.3097785579   -0.3916180817    2.7037440475
 C    1.7418508829    0.0410004789    3.1156007942
 C    2.8517333113   -0.8616299280    2.6326129831
 C    2.9743676274   -2.3823093125    2.6974081950
 C    2.1385183132    0.0262763913    1.6354106558
 H    0.9786588600    1.9690884284   -0.2902209203
 H   -0.6117071728    1.8738236991   -1.0513823471
 H   -0.4796185639    2.1176905405    0.6983340641
 H   -1.1053690271   -0.2647316210    0.1263708535
 H    0.3564883758   -0.4214367654   -0.8352662577
 H   -0.5827427537   -1.9135478951    1.6969401476
 H   -0.6047473286   -0.0908995816    3.1995621052
 H    1.9085183206    0.8309875610    3.8380308824
 H    3.7992014370   -0.3766351759    2.8708191322
 H    2.2146077441   -2.8276722668    3.3387322220
 H    2.8684798174   -2.8385735386    1.7109849037
 H    3.9608328688   -2.6516016069    3.0920113940
 H    2.6662223806    0.7975673155    1.0872118728