16

 C    0.2602473746    1.5509915427    0.0549610254
 C   -0.0536594626    0.0496097645   -0.0613793838
 C    0.6700933976   -0.6417474657   -1.2340564307
 O    0.9247346084    0.1749075911   -2.3404863830
 C    1.9371556609   -1.1391074902   -0.5697074270
 N    3.0208902273   -1.3250145950   -1.1770893271
 O    1.7087393976   -1.3186033591    0.7729026418
 C    0.5097369168   -0.6953240955    1.1431005756
 O    0.1051413183   -0.7658219322    2.2580270941
 H    1.3372323753    1.7308808933    0.1243417848
 H   -0.1068671142    2.0707330022   -0.8311867129
 H   -0.2190482161    1.9650103555    0.9449797198
 H   -1.1348810376   -0.0986231695   -0.0865473902
 H    0.0877740675   -1.5305309866   -1.5320917352
 H    1.8142086431   -0.0543247975   -2.6462437935
 H    3.7716537133   -1.6381975982   -0.5622364781