16

 C   -0.2509677229    1.6179249200    0.0139680959
 N   -0.0042511171    0.1918986500   -0.0015417139
 C   -1.0047637250   -0.5778399141    0.0740751578
 N   -0.9094379914   -1.9566678249    0.0694167881
 C    0.2630689924   -2.6844118498   -0.0159924248
 C    1.5980720108   -2.3481165349   -0.1160872247
 N    2.3233171299   -3.5019496005   -0.1672620534
 N    1.5362006626   -4.5287631198   -0.1064134007
 N    0.2680296517   -4.0420843528   -0.0133263905
 H    0.2813402181    2.0762590827    0.8553612253
 H    0.1482196481    2.0723128683   -0.9001428437
 H   -1.3180191000    1.8834043366    0.0942409536
 H   -2.0473476210   -0.2397341257    0.1509589271
 H   -1.7747707791   -2.4650220554    0.1348684412
 H    2.0382468531   -1.3698981812   -0.1513606651
 H   -0.5028368302   -4.6871492785    0.0471127778