19

 C   -0.0539829896   -1.1670746848   -0.4445026759
 C   -0.0369428001   -0.0004750754   -0.1574167921
 C    0.0029109896    1.4151910562    0.1993193890
 C    1.4099731943    1.9810884995    0.2349721962
 C    2.4634399203    1.4038108070    1.1673303964
 C    3.6339029224    2.4119386255    1.0828395367
 C    2.9829020108    3.7764487130    0.7435338414
 C    1.7286657962    3.3938141928   -0.0156838023
 O    1.9531581610    2.3967882321   -1.0281943026
 H   -0.0750729217   -2.1958004098   -0.7062911515
 H   -0.5880742606    1.9950734783   -0.5185497137
 H   -0.4629794973    1.5556505911    1.1840761189
 H    2.0461564328    1.3567224999    2.1813694354
 H    2.7548978614    0.3880652267    0.8867785954
 H    4.2231223361    2.4468675332    2.0020683089
 H    4.3045858138    2.1202181181    0.2723286462
 H    2.6940696906    4.3240203446    1.6496817353
 H    3.6462305444    4.4272110886    0.1655059921
 H    0.9681191255    4.1340455234   -0.2554841637