15

 N    0.0516056055    1.4218192442    0.0925229575
 C   -0.0097376041    0.0350324494    0.0193291507
 C   -1.1704217865   -0.6735464492   -0.0191409695
 N   -2.4190579057   -0.0081268080   -0.0633365642
 C   -1.1417287230   -2.1308808820   -0.1274031932
 O   -2.1732362464   -2.7738420107   -0.2623481167
 N    0.1216059291   -2.7587374258   -0.0920913330
 C    1.1729079573   -2.0275627319    0.0006549585
 N    1.1826518356   -0.6610068015    0.0407789073
 H    0.8070524628    1.8302536929   -0.4459677523
 H   -0.8392153566    1.8178371014   -0.1922017915
 H   -2.6668437295    0.3932825816    0.8372201069
 H   -3.1169081031   -0.7182851797   -0.2798551154
 H    2.1586973771   -2.4866790450    0.0555880788
 H    2.0481416076   -0.1694821758    0.2013930263