19

 C    0.1667864773    1.2853462529   -0.2551453679
 C    0.0398105123   -0.2289675470   -0.0633877121
 C   -1.3916795915   -0.6506434846    0.2013913896
 O   -2.2855638972   -0.3433584998   -0.9150155195
 C   -2.6659835691   -1.7181759477   -1.0539494937
 C   -2.3279641189   -2.2767380670   -2.4145035489
 O   -2.0974970133   -3.4485399508   -2.6043471844
 C   -1.7414969718   -2.1614095535    0.1147889303
 O   -0.6620139702   -2.9927850981   -0.2041364112
 H    1.2006072231    1.5664531991   -0.4752915007
 H   -0.4619475958    1.6223293322   -1.0842983140
 H   -0.1440959718    1.8294292294    0.6437085768
 H    0.4090425510   -0.7628048830   -0.9441239642
 H    0.6540862235   -0.5646027899    0.7813686454
 H   -1.7747643953   -0.1760730852    1.1142655447
 H   -3.7399441213   -1.8779383498   -0.8713848887
 H   -2.2926639521   -1.5253243172   -3.2320034396
 H   -2.2929270446   -2.5388003303    0.9848277242
 H   -0.9742078743   -3.6490529296   -0.8425955462