15

 C   -0.0379129709    1.3668617404    0.0740793993
 N   -0.0046254881   -0.0675492942   -0.1047918546
 C    0.6694744755   -0.6364874468   -1.1405656034
 N    1.2592727204    0.0652477909   -2.0370644220
 C    0.6350938637   -2.1198556748   -1.1116158699
 N    1.1982807068   -2.8969494331   -2.0318691481
 N    0.9014355012   -4.0981542506   -1.5661022288
 N    0.2048055501   -4.1059659078   -0.4382946376
 N    0.0274299054   -2.8481674423   -0.1365626619
 H    0.9661823976    1.7764549384    0.2382703302
 H   -0.4479506949    1.8553706874   -0.8156030627
 H   -0.6669903046    1.6012653268    0.9348539039
 H   -0.3784469251   -0.6764742746    0.6025026345
 H    1.6886857563   -0.5425417328   -2.7313666250
 H    1.1816290566   -4.9497179568   -2.0309223240