23

 C    0.2588469288    1.4743550768    0.1267771550
 C   -0.1911499231    0.0305320083   -0.1295850064
 C    0.5934999082   -0.6203833217   -1.2526013892
 C    1.9470984853   -1.2663485856   -1.0962515186
 C    2.0563984710   -2.0982942156    0.1588755159
 C    2.2109245747   -3.5546652649   -0.2028169588
 C    0.8352346068   -2.9363993612   -0.2707330720
 C   -0.3192380227   -3.4652333451    0.5382544747
 C    0.7197321103   -2.1002822477   -1.5291370859
 H    1.3170112622    1.5110015548    0.4064305161
 H    0.1332556320    2.0938015421   -0.7684449910
 H   -0.3197797235    1.9349053855    0.9336700993
 H   -0.0835279837   -0.5522351793    0.7897566692
 H   -1.2598497429    0.0192805545   -0.3814427372
 H    0.5315586311   -0.0546561449   -2.1838056961
 H    2.7898036352   -0.9833797722   -1.7184536548
 H    2.2908229760   -1.7318052086    1.1527377753
 H    2.7407513052   -3.8344394199   -1.1101528106
 H    2.3717191497   -4.2313089527    0.6325993072
 H    0.0158991000   -3.8402179062    1.5111464508
 H   -1.0786473256   -2.6974850600    0.7163965311
 H   -0.8095730173   -4.2982052250    0.0194951764
 H    0.5211231623   -2.5018063115   -2.5183269506