19

 O   -0.0157827972   -0.0044027895   -0.2557096362
 C    0.0189691500    1.1893385590   -0.2973099435
 O    0.9815604797    1.9140759777    0.2944975513
 C    0.9453044501    3.3487187131    0.1672816373
 C    1.0758231212    3.9996906888    1.5592401206
 C    1.7747386085    5.3525401294    1.3086731897
 C    2.6172863794    5.1287670343    0.0571704160
 C    3.4618638676    3.8842103776   -0.0003611585
 C    2.0992640703    3.8925111110   -0.6499542433
 H   -0.7326754379    1.8158690161   -0.8184700911
 H   -0.0039223108    3.6281787163   -0.3088039395
 H    0.1100533489    4.1018487390    2.0593595742
 H    1.6903659999    3.3452108292    2.1834995931
 H    1.0338520503    6.1356138490    1.1101710634
 H    2.3633726429    5.6789886513    2.1724555743
 H    2.9395373363    5.9946187488   -0.5101321348
 H    4.3146553830    3.8950323252   -0.6694787396
 H    3.6156067656    3.2947854428    0.8971012081
 H    2.0331683322    3.8351700806   -1.7304165614