18

 C   -0.1036436273    1.7454662307   -0.2818126812
 C    0.0121241774    0.2335806015   -0.1537388088
 C   -1.3485552685   -0.4379677418    0.0961360960
 C   -1.9739247465   -0.0129354137    1.4085012444
 O   -3.1073687707    0.3783617238    1.5304674186
 C    0.8930279435   -0.4761802284   -1.2148854592
 C    1.7791031602   -0.8726997973   -0.0190038876
 O    0.9509178895   -0.1324859392    0.9015985425
 H    0.8823633261    2.1910036625   -0.4380107663
 H   -0.7470269913    2.0125103242   -1.1270546482
 H   -0.5355973778    2.1832790226    0.6239253481
 H   -2.0493523823   -0.2292204611   -0.7180803730
 H   -1.1910380863   -1.5240295632    0.1480212594
 H   -1.2937119791   -0.0981503012    2.2829520967
 H    0.4148858049   -1.2969882313   -1.7519966052
 H    1.3618373543    0.1984638638   -1.9334190934
 H    1.7999415215   -1.9434281983    0.2187009276
 H    2.8084246925   -0.4968949135   -0.0337124406