17

 O   -0.0480263750    1.3302708485    0.0211398060
 N    0.0425913744   -0.0691309465    0.0633868187
 C   -1.1027624129   -0.6317864692    0.0244990589
 C   -2.4530543989    0.0496981875    0.0079615474
 O   -3.3156026375   -0.5690426009    0.9513755873
 C   -3.6466371673   -1.9069503537    0.6223431941
 C   -2.4273807717   -2.7824472284    0.3491893161
 N   -1.9224538204   -2.7455738810   -1.0300236386
 C   -1.1280976296   -2.1127278743    0.0535594883
 H    0.8733101663    1.5947415922    0.1110861324
 H   -2.3533842951    1.0926176788    0.3058974010
 H   -2.8808357980    0.0072588509   -1.0062797943
 H   -4.2011116424   -2.2895440374    1.4838858658
 H   -4.3063367860   -1.9341091914   -0.2590765512
 H   -2.3891891614   -3.7301559342    0.8804894517
 H   -1.4978812669   -3.6345632994   -1.2816907809
 H   -0.2010920076   -2.5865193414    0.3603005373