15

 C   -0.2880535428    1.3805266796    0.0722161003
 N    0.0250158175   -0.0346716167   -0.0462890944
 C   -0.0144913354   -0.8578136496    1.1455994099
 C   -1.3617376985   -1.0253091470    1.6960172938
 C   -2.4744897156   -1.1491974949    2.1481280598
 C   -3.7320081362   -1.2937899411    2.6614346900
 N   -4.8005639454   -1.4154731205    3.0996422126
 C    0.3140899004   -0.5842606643   -1.2675455291
 O    0.3588201224    0.0228586573   -2.3119737772
 H    0.4119695965    1.8744915311    0.7562016965
 H   -0.1988000600    1.8191627814   -0.9212184550
 H   -1.3071472495    1.5265044285    0.4461388770
 H    0.3983556567   -1.8440888727    0.9020806842
 H    0.6332689129   -0.4295017279    1.9239860619
 H    0.5164316270   -1.6708913730   -1.1895923403