23

 C   -0.0513010121    1.5648233932    0.0485207362
 C    0.0494644348    0.0324266874    0.0852883159
 C    0.7286424295   -0.4359277562    1.3796916700
 C   -1.3330568551   -0.6141852648   -0.0935699366
 C   -2.0500981717   -0.2846461439   -1.4141235904
 O   -3.0151477916   -1.3152116619   -1.6219998460
 C   -2.7290640532   -2.4177094452   -0.7708456083
 C   -1.3628794466   -2.1527215382   -0.1295494901
 O   -0.2835018585   -2.5874575586   -0.9495056151
 H    0.9364086976    2.0208927726    0.1719459079
 H   -0.4655438088    1.9266395307   -0.8976771322
 H   -0.6909249287    1.9381020269    0.8577917702
 H    0.6720861946   -0.2926432929   -0.7561278350
 H    0.8956950043   -1.5163527843    1.3722907347
 H    1.7020341668    0.0501558258    1.5036026287
 H    0.1222995974   -0.1872349152    2.2594773481
 H   -1.9802943701   -0.3021321795    0.7384181341
 H   -2.5744065675    0.6757307985   -1.3912370909
 H   -1.3322953764   -0.2679536513   -2.2476263238
 H   -3.5093250184   -2.5100298072    0.0004094819
 H   -2.7273456418   -3.3457753761   -1.3590258505
 H   -1.2952415671   -2.5999521049    0.8715531270
 H   -0.3831298674   -3.5318251652   -1.1028646156