16

 C   -0.0371604115    1.5171887112   -0.0061890919
 C   -0.0111704619    0.0140790351    0.0076448516
 C   -0.0292382663   -0.7223404424   -1.1776152930
 N   -0.0083850281   -2.0543979003   -1.2563742656
 C    0.0329558460   -2.7291009831   -0.1047804553
 C    0.0545827324   -2.1160066269    1.1406298080
 C    0.0323932971   -0.7174194101    1.2115961682
 C    0.0537380367   -0.0553646360    2.4726944927
 C    0.0717142251    0.5068015333    3.5376578803
 H    0.8469949263    1.9344507673    0.4876603297
 H   -0.0696730956    1.8975517626   -1.0301917049
 H   -0.9088512555    1.9044726315    0.5322366383
 H   -0.0626789773   -0.1904349286   -2.1269107310
 H    0.0495808967   -3.8135038132   -0.1803337492
 H    0.0881809314   -2.7056557927    2.0490925373
 H    0.0876395043    0.9995003424    4.4784735147