22

 C    0.3256293775    1.1056110637   -0.5530939946
 C   -0.2834257245    0.0338722610    0.3614888734
 C    0.6841099110   -0.4403071083    1.4111552419
 C    1.8399761206   -1.4113709266    1.1359824977
 C    1.4211593108   -2.1367646770    2.4352798306
 N    0.2472215360   -1.2159440452    2.6572184271
 C    0.7837270877    0.1737544560    2.7524444928
 C    2.0346732389    0.5298250482    3.5174717204
 O    1.8235182957    0.4528151808    4.9207681259
 H    1.2155252299    0.7288340590   -1.0687604325
 H   -0.3908088862    1.4231460456   -1.3162631883
 H    0.6233319509    1.9902238362    0.0194460963
 H   -1.1790530245    0.4250922673    0.8571848563
 H   -0.6102457426   -0.8245915482   -0.2395668755
 H    1.6653103267   -2.0167643868    0.2435982934
 H    2.8470894228   -0.9895510058    1.0755065847
 H    1.0501281988   -3.1502025644    2.2721034908
 H    2.1448774415   -2.1635134654    3.2564517146
 H   -0.0378084588    0.8489846818    2.9883943816
 H    2.8930526681   -0.0836531856    3.2119012452
 H    2.2997724838    1.5721298510    3.3076641361
 H    1.3715764558   -0.3797943972    5.0955390022