19

 C   -0.2411221946    1.4790203358    0.0492880452
 C    0.0329005431   -0.0164196313   -0.0071653571
 C   -1.2404851547   -0.8894290423   -0.1170363219
 O   -0.9422299693   -2.1259983752    0.5112866964
 C   -0.1223671206   -1.8188031921    1.6340154716
 C    0.8444176634   -0.7471588493    1.1337872628
 C    1.8942041606   -1.2417690412    0.0913230488
 C    1.1406739647   -0.4522609038   -0.9858498603
 O    1.3505790187   -0.1986691606   -2.1371622831
 H    0.6808678005    2.0506810122    0.1924548185
 H   -0.6956867935    1.8196521002   -0.8868097268
 H   -0.9247621550    1.7231443056    0.8695216280
 H   -2.0711515975   -0.3780059212    0.3982305124
 H   -1.5429254672   -1.0949390742   -1.1473159025
 H   -0.7315400044   -1.4331723727    2.4683811956
 H    0.3616905863   -2.7450951660    1.9557656971
 H    1.2457807964   -0.1113709073    1.9234226831
 H    2.9273458015   -0.9183798863    0.2460397959
 H    1.8882958318   -2.3225079002   -0.0850010637