16

 O    0.1342459969    0.1105217024   -0.7706246930
 C    0.0036771449    1.2239898477   -0.2955253130
 N   -1.1993211742    1.8889937945   -0.4222720210
 C   -1.7143171814    2.9603334490    0.3295940317
 C   -1.2356923869    4.2079344086    0.3989676721
 C   -0.0787426353    4.7672883260   -0.2836681326
 C    1.1606672532    4.2573320827   -0.3720840231
 C    1.6839906572    3.0652884558    0.2872964050
 C    1.1573748410    1.8409536752    0.4183818661
 H   -1.8893449513    1.2804736060   -0.8442966336
 H   -2.6463268525    2.7280339849    0.8411604858
 H   -1.8275815149    4.9086721353    0.9837883335
 H   -0.2421869946    5.7517884291   -0.7194943856
 H    1.9113972596    4.8610940704   -0.8785538743
 H    2.6773213349    3.2054041312    0.7151644625
 H    1.7425239433    1.0799958211    0.9254122794