18

 O   -0.1154004042    1.4903520004   -0.0514422295
 C    0.0540279216    0.0741101697   -0.0610831622
 C   -1.3452189627   -0.5230165720    0.0901452210
 C   -1.3572303954   -2.0341107298   -0.2222521283
 C   -0.8829503502   -2.2937277849   -1.6733767970
 C    0.2992787841   -1.4405269005   -2.0487511208
 C    0.7168104217   -0.3988482539   -1.3330417179
 C   -0.5326816999   -2.7762814924    0.7400056381
 N    0.1115302364   -3.3602168809    1.5018646153
 H    0.7571041407    1.8963237687   -0.0338770773
 H    0.6701484891   -0.2315906993    0.8006956890
 H   -1.7295192483   -0.3290120683    1.0944564187
 H   -2.0061010724   -0.0184864233   -0.6224952963
 H   -2.3804983560   -2.4099667799   -0.1110582756
 H   -0.6436905724   -3.3545318502   -1.8048094797
 H   -1.7206074035   -2.0873933931   -2.3537311470
 H    0.8194313453   -1.7136878984   -2.9634195650
 H    1.5884707461    0.1676990081   -1.6552879956