16

 O   -0.6489760963    1.3833691638    0.7204581817
 C    0.1891994457    0.9570276056   -0.0323241599
 C    1.5265640979    1.6334961097   -0.2535196263
 O    2.3735499962    0.9007178643   -1.1572779547
 C    2.4135726506    1.9932521224   -2.1079166712
 C    1.4981432772    2.8290434988   -1.2193753538
 C    0.3409016575    3.7032956820   -1.5930051971
 C    1.5499482065    4.2882773762   -0.8984995339
 H    0.0342149912    0.0470701857   -0.6549271137
 H    2.0059141574    1.8269886817    0.7156647276
 H    3.4322983824    2.3788870313   -2.2398116737
 H    2.0075690108    1.6985491031   -3.0838565627
 H    0.1936568549    3.9254314987   -2.6451579887
 H   -0.5738749915    3.5991873961   -1.0192436057
 H    1.4476011096    4.5846247110    0.1403825014
 H    2.2271415998    4.9082034996   -1.4778639292