21

 C   -0.0760921946    1.5618836676    0.1288293820
 C   -0.0312301730    0.0473849879    0.0492066063
 C   -1.2756096025   -0.5812095840   -0.5571741386
 O   -1.4580674945   -0.2479475963   -1.9278223181
 C    1.2414438544   -0.7217089901   -0.2990278078
 C    2.4468860913   -0.0601148627    0.3463671429
 O    1.7873705452   -0.0354914271    1.6408629636
 C    0.6708069816   -0.7733546081    1.1087688040
 C    0.1081476955   -1.8242381858    2.0121942225
 H    0.7316948467    1.9465312092    0.7539174692
 H    0.0104536837    2.0234995728   -0.8619714701
 H   -1.0214373946    1.8942005896    0.5748523711
 H   -1.2073379611   -1.6731306640   -0.5377487837
 H   -2.1596707367   -0.2970458383    0.0362639655
 H   -1.5975250598    0.7023097965   -1.9841498001
 H    1.2631509860   -1.4625787017   -1.0877012776
 H    3.3339178663   -0.7026908272    0.3834129725
 H    2.7332853262    0.9409233324    0.0028648837
 H   -0.2711920040   -1.3605255305    2.9302700906
 H   -0.7169779289   -2.3642556490    1.5423282596
 H    0.8803668326   -2.5458648910    2.2961301327