20

 N    0.0394417520    1.1689617879    0.1654577721
 C   -0.0427302161   -0.0863747507    0.2674146283
 O   -1.1673424250   -0.7219917127   -0.1118207166
 C   -1.1420841190   -2.1505749984   -0.0710370076
 C   -2.5704433722   -2.6573431276   -0.2280170754
 C   -2.6100104630   -4.2107235443   -0.2274686245
 C   -3.3156202718   -4.5573408490    1.1064861337
 O   -3.2474043433   -3.3831841053    1.9010721203
 C   -3.4315054793   -2.3019714731    1.0003552539
 H    0.9429833534    1.4856465767    0.5110102287
 H    0.7325783074   -0.7609376134    0.6578577700
 H   -0.5061884831   -2.5313757437   -0.8814743586
 H   -0.7284945698   -2.4968397280    0.8864646883
 H   -2.9889054308   -2.2332758037   -1.1442447031
 H   -3.1527922202   -4.6077047558   -1.0879805857
 H   -1.5989079897   -4.6288535632   -0.2612766784
 H   -4.3661216195   -4.8351640530    0.9240633587
 H   -2.8386606140   -5.3687513970    1.6616330492
 H   -3.1208463030   -1.3800408884    1.4958918715
 H   -4.4916691131   -2.2079963373    0.7144822551