17

 C   -0.1052408212    1.6110300745    0.0457171592
 C    0.0001164695    0.0991583797   -0.0026659059
 O   -1.2642212052   -0.5385586167    0.0266787695
 C    0.8354149318   -0.6161356892   -1.1241884571
 C    2.2246278414   -0.0087919492   -0.8957889917
 O    2.2853529917   -0.0081105523    0.5645569252
 C    1.0379537141   -0.6110026280    0.9348135926
 C    0.9417656207   -1.7734050585   -0.0890398023
 O    0.9440652139   -2.9624032529   -0.0999290813
 H    0.8745596799    2.0831759927    0.1356902925
 H   -0.6103565527    1.9925421244   -0.8465909043
 H   -0.6950145713    1.9132689831    0.9193262425
 H   -1.7040427159   -0.3030163784    0.8512400828
 H    0.4665237644   -0.7429054388   -2.1389588056
 H    3.0328997547   -0.6250944283   -1.3043044183
 H    2.3341984859    1.0152908397   -1.2674136112
 H    0.9480195784   -0.6925997318    2.0161253936