18

 C   -0.0332319313    1.5272116877    0.0079085049
 C    1.3285125080    0.8344678434   -0.0232162559
 C    0.0649617339    0.0474163016   -0.0041455884
 C   -0.5342120232   -1.0322860867    0.9097831405
 O   -1.7305177068   -1.0487778807    0.0263754877
 C   -0.5682542616   -1.0219067937   -0.9068469497
 C    0.0914603939   -2.0904576970   -0.0174049208
 C    1.3132670643   -2.9042422425    0.0000366593
 N   -0.0453277033   -3.5177801456   -0.0805623921
 H   -0.3303371086    2.0196822621    0.9280333517
 H   -0.3672568943    2.0313737939   -0.8929985356
 H    1.8998663926    0.8780617651   -0.9449365169
 H    1.9349975732    0.8674211117    0.8763098207
 H   -0.6936687155   -1.0345074519    1.9888126154
 H   -0.7714735908   -1.0186039940   -1.9768566456
 H    1.9176688769   -3.0286706418   -0.8941869763
 H    1.8658945907   -2.9799022565    0.9337141373
 H   -0.3248767381   -3.9069222151    0.8164312038