17

 C   -0.0190944231    1.5689463059    0.0277785190
 C    0.0837880160    0.0588737450    0.0997801625
 C    1.3196194531   -0.7413614011   -0.2286416367
 C    2.5597969598   -0.1026744937    0.3469794676
 O    3.6501371484    0.0949224888   -0.1052718223
 C    1.9696527673   -0.0045330806    1.7725030495
 C    0.7112085551   -0.6972944906    1.2375537168
 C    0.0576993574   -1.8449533427    1.8834583501
 O    0.3469549309   -2.2669788602    2.9772068155
 H    0.8871551801    2.0689556365    0.3756603599
 H   -0.1918883631    1.8818481828   -1.0065495263
 H   -0.8582277657    1.9261563639    0.6330990274
 H   -0.8050741266   -0.4459177806   -0.2795281011
 H    1.2976643187   -1.5505084015   -0.9494602825
 H    2.5268135148   -0.6459354121    2.4608329030
 H    1.8567118797    0.9856870060    2.2195440577
 H   -0.7418877528   -2.3204426559    1.2694497500