19

 C    1.1331936935   -0.5274477615    1.2922574822
 O    0.2374039352   -0.2160499599    0.2382359237
 C    0.6707974282   -0.5324653831   -1.0552981533
 C    2.0668345083    0.0085275580   -1.4044474286
 O    2.1901843883    1.3784550025   -1.1013182492
 C    0.4016862574   -1.9913854239   -1.5711316204
 C   -0.5106784276   -1.4418605524   -2.7120484436
 C   -0.3410043263   -0.0372315566   -2.1181343549
 O   -0.7645932423    1.0537370181   -2.3752800396
 H    1.4532714825   -1.5792050749    1.2651000241
 H    2.0154943235    0.1227090843    1.2768638883
 H    0.5839866560   -0.3561522143    2.2207852334
 H    2.8339353724   -0.5190279757   -0.8264097696
 H    2.2691834281   -0.2045717678   -2.4678828892
 H    1.3986825987    1.8254929398   -1.4276174292
 H    1.2813657622   -2.5485784886   -1.8992366888
 H   -0.1433436178   -2.5784548207   -0.8306736214
 H   -0.1143905806   -1.5339130954   -3.7277234938
 H   -1.5438018096   -1.7994333381   -2.7173384502