19

 C   -0.1359981584    1.6300243209    0.0426500835
 C    0.0457934970    0.1219452554   -0.0075912594
 C    0.8045532468   -0.6011671442   -1.1514724089
 C    2.0374140401    0.1620411735   -1.6429783864
 C    3.0413887651    0.3406551296   -0.4706847823
 C    2.3734560781    0.2249892132    0.8997031873
 O    2.7837567102    0.7573683072    1.9022087869
 C    1.1057866515   -0.6190992137    0.8545314797
 O    1.2484532856   -1.6124042232   -0.1942874804
 H    0.8033462814    2.1774677362   -0.0746961141
 H   -0.8180564037    1.9614054525   -0.7476630338
 H   -0.5702072938    1.9316674311    1.0011990350
 H   -0.9131310106   -0.3827622065    0.1405452637
 H    0.2174349686   -1.0332282384   -1.9664256549
 H    2.5111437455   -0.3915992902   -2.4586530103
 H    1.7333652280    1.1310654650   -2.0539420269
 H    3.7818136536   -0.4668472210   -0.5062712679
 H    3.5958432811    1.2805690362   -0.5180186492
 H    0.8381291738   -1.0329712734    1.8285702384