13

 O    0.0523069740    0.0466953588    0.0007323140
 C    0.0409805385    1.2416549605   -0.0524261531
 N   -1.0164371345    2.1701263979   -0.0451042271
 C   -0.1018372415    3.3234807040   -0.0508956072
 C    0.8717367369    3.2416995812    1.0972976748
 C    1.0843205777    2.3511745834   -0.1204187505
 C   -0.3699039191    4.4914648577   -0.8172856015
 C   -0.6064291485    5.4929716293   -1.4393937190
 H   -1.8289948588    2.0978404283    0.5574715417
 H    1.5726916378    4.0655716960    1.1889657851
 H    0.5455992597    2.8064077978    2.0374034785
 H    1.9658772903    2.4045970823   -0.7421544188
 H   -0.8137353925    6.3695864826   -2.0017990069