17

 C   -0.1024264547    1.5072038807   -0.0131709770
 N    0.0986473606    0.0703252344    0.0323260350
 C    0.7306853907   -0.5427440297   -1.1633076394
 C    1.3764473473   -1.8951815126   -0.6940214248
 C    1.5444557589   -1.5767913458    0.7576224306
 C    0.8082791065   -0.4779016921    1.1032963120
 N    0.8888329926   -0.2414133510    2.4290395639
 N    1.6595819439   -1.1787770502    2.9461408080
 N    2.0417511870   -2.0028786477    1.9388228506
 H    0.8325525253    2.0640423547   -0.1998333994
 H   -0.8155115524    1.7548575478   -0.8051832692
 H   -0.5166266502    1.8394211645    0.9411344452
 H   -0.0040368041   -0.6839112374   -1.9605797804
 H    1.5254534249    0.1199639095   -1.5444291126
 H    0.6904924644   -2.7380411930   -0.8490714272
 H    2.2960165490   -2.1118707156   -1.2444881379
 H    2.6492054103   -2.7754721764    2.1573838728