21

 C   -0.0079139874    1.1552981923    0.6464448049
 O   -0.0928527582    0.1150766202   -0.3131388268
 C   -1.3216726500   -0.6017616227   -0.2825013591
 C   -1.6166246421   -1.1391236360   -1.7014191643
 C   -1.3441560078   -2.6172495352   -1.6018355531
 C   -1.1154260371   -3.0299525980   -0.3549007153
 C   -0.8199923401   -4.4147856020    0.1248087611
 C   -1.1880781863   -1.8767388772    0.6294046974
 O   -0.0699836851   -1.8123363722    1.5000897656
 H    0.9589114000    1.6442602058    0.5007886216
 H   -0.8058288472    1.8975615977    0.4961149077
 H   -0.0675359593    0.7713148802    1.6721595554
 H   -2.1158790008    0.0640742914    0.0754865994
 H   -2.6551998301   -0.9369040220   -1.9939786122
 H   -0.9789350992   -0.6289759863   -2.4318808198
 H   -1.3587216821   -3.2656968975   -2.4724315373
 H   -0.7090740852   -5.1181188377   -0.7048002830
 H    0.0978654608   -4.4237127133    0.7223171281
 H   -1.6194486126   -4.7839550793    0.7808312409
 H   -2.0610591839   -1.9807064087    1.2868552566
 H    0.6457498436   -1.4479850797    0.9617845920