17

 O   -0.0218440083    1.4645488523   -0.0016739966
 C   -0.0174367570    0.0567253548    0.0450780366
 C    0.5528016105   -0.5662644530    1.3694501158
 O   -0.0858722860   -1.8502574956    1.3397768679
 C   -1.4318913048   -1.3574143188    1.3925091479
 C   -1.3820989210   -0.3630199985    2.5408928939
 C   -0.1440877600    0.1301130765    2.5267838319
 C   -1.4730905583   -0.5242012312    0.0616048626
 O   -2.4394644282    0.4998678810    0.0244102444
 H    0.8605286909    1.7527263019   -0.2529284549
 H    0.5291110565   -0.3653185037   -0.8071490009
 H    1.6368568832   -0.6735865573    1.4133666766
 H   -2.1437063564   -2.1806751668    1.4574636160
 H   -2.2230216762   -0.0611616914    3.1482675734
 H    0.2707861604    0.9323024336    3.1196764307
 H   -1.5953562343   -1.2139260468   -0.7825618294
 H   -3.2846423510    0.0978743931   -0.1967873458