21

 C    0.1387033595    1.5875823489    0.0048698769
 C    0.2030213065    0.0603707076    0.0910289603
 C    0.6760022603   -0.5752785250   -1.2258143990
 N    2.0441462521   -0.1438174499   -1.5551755858
 C    2.7761024797   -1.1825819761   -1.4467130781
 N    4.1427259747   -1.2313755500   -1.5189946984
 O    2.1990968910   -2.3830615811   -1.1767708424
 C    0.7678935584   -2.1369915094   -1.2430440040
 C    0.0779951494   -2.9304724314   -0.1481402631
 H    1.1174401544    1.9963840817   -0.2573668878
 H   -0.5738720906    1.9083449261   -0.7638564070
 H   -0.1788173589    2.0243231461    0.9568193794
 H    0.8856822537   -0.2340953472    0.8977577319
 H   -0.7863194211   -0.3372779234    0.3501982317
 H   -0.0072933757   -0.2470373081   -2.0196464316
 H    4.5569727883   -0.4081395026   -1.9274463881
 H    4.5256224759   -2.1049850591   -1.8461609341
 H    0.4360150054   -2.5058859866   -2.2224078315
 H    0.4114792211   -2.6189819001    0.8446096411
 H   -1.0064113957   -2.7970561286   -0.2090522547
 H    0.2936320615   -3.9965152720   -0.2632960256