18

 C   -1.1974061499    0.0442678285   -0.0794619965
 O   -0.4407415067   -1.0657431353    0.4043128659
 C    0.5646863941   -0.7975465362    1.3445794487
 C    0.0659032690   -0.2755829019    2.6987060680
 O   -0.3589898377    1.0690345612    2.6288493242
 C    1.5787159696   -1.9642622763    1.3702148819
 O    2.6395703008   -1.0632108827    0.8991223847
 C    1.7758586511   -0.0023218944    0.8522018089
 N    1.9601128415    1.2125897529    0.5818076836
 H   -0.5427408201    0.8214398568   -0.4894820734
 H   -1.8278310088   -0.3563498201   -0.8765376205
 H   -1.8219142583    0.4854407685    0.7020213725
 H   -0.7961799533   -0.8713950396    3.0175738398
 H    0.8655851518   -0.4091753948    3.4464053943
 H    0.3444705058    1.5741031389    2.1949757700
 H    1.8363503453   -2.3852949553    2.3438133796
 H    1.3667997400   -2.7418276680    0.6362656996
 H    2.9302808360    1.4090357980    0.3272486588