19

 O   -0.1145669137    0.0633687777    0.6121543541
 C    0.3850646294    0.7101634203   -0.2747397821
 C    1.2250874353    1.9479053519   -0.1262116650
 C    0.7244671143    3.2009216081   -0.9202118027
 C    0.8782401961    4.0555380835    0.3747610089
 O   -0.3130932671    4.5802469550    0.9156501093
 C   -0.9828922923    3.5239567375    1.6050182003
 C    0.1284257228    2.6586245459    2.2170182349
 C    1.2699445079    2.7815048512    1.1930331209
 H    0.2415387213    0.4110700448   -1.3412496708
 H    2.2328917722    1.6648060903   -0.4557682340
 H    1.3456671080    3.5036245344   -1.7651781777
 H   -0.3144439991    3.1376152767   -1.2559968463
 H    1.6036232286    4.8685447790    0.3034449660
 H   -1.6470505153    3.9805795366    2.3429163580
 H   -1.6018573181    2.9343238897    0.9106857062
 H    0.4580142102    3.0983083253    3.1633506228
 H   -0.1843803670    1.6308401821    2.3936546365
 H    2.2499988164    2.7854398902    1.6709130908