20

 C    0.2200637715    1.6665538904    0.1373595197
 C    0.1027647784    0.1390442963    0.1073428885
 C    0.6195209482   -0.4804561293   -1.1794661607
 C    0.3800994950   -1.9990313187   -1.4526503724
 C   -0.1647162950   -1.6060649779   -2.8525904879
 C   -1.6894844059   -1.4994163782   -3.0762697921
 C   -1.5349039902   -0.0886200160   -2.4577827888
 O   -2.2827534518    0.7514184647   -2.0434955367
 N   -0.1176383304   -0.1518762061   -2.4646713283
 H    1.2529982436    1.9889495578   -0.0340925924
 H   -0.4135205834    2.1121017527   -0.6333580679
 H   -0.0971987575    2.0611088494    1.1071731202
 H    0.6791827698   -0.3028292400    0.9311889251
 H   -0.9415336348   -0.1540828669    0.2648166371
 H    1.6709272236   -0.2085185757   -1.3233112920
 H    1.2649849212   -2.6381891430   -1.4407058422
 H   -0.3802660668   -2.4355227468   -0.7972183293
 H    0.4469598361   -1.8974800790   -3.7083159140
 H   -2.0144519754   -1.5195067900   -4.1195952808
 H   -2.3258381161   -2.1664709235   -2.4901432453