19

 C   -0.2921890143    1.4956146618   -0.1555559696
 C    0.1923294645    0.0663995042    0.1148088450
 C    0.8092228077   -0.5744414589   -1.1119784800
 C    0.9255057789   -2.0585659351   -1.3142398705
 C    0.4412819196   -3.0789835336   -0.3082460130
 C   -0.0537394076   -1.2584537867   -2.1774214289
 C   -1.4658726669   -1.3954919422   -1.9657876809
 N   -2.6054381770   -1.5037765104   -1.7910682454
 H    0.5266206505    2.1321707175   -0.5088852011
 H   -1.0780943194    1.5043671364   -0.9169404100
 H   -0.6997832691    1.9488574279    0.7526762404
 H    0.9410975016    0.0733685382    0.9171089063
 H   -0.6448558784   -0.5364127934    0.4791405878
 H    1.6182716953    0.0116957516   -1.5424583843
 H    1.8072365494   -2.3747135972   -1.8655396961
 H   -0.5067432903   -2.7923964506    0.1514710829
 H    0.2898455230   -4.0494749977   -0.7912576870
 H    1.1795285010   -3.2129709581    0.4893615785
 H    0.2144629915   -1.0981067036   -3.2161344844