15

 O    0.0595395325    1.3690395872    0.0126580379
 C    0.0314197076   -0.0099988500    0.1055728267
 C   -0.4249038660   -0.7337468185    1.3594932631
 N   -1.1833752611   -0.0165214987    2.3301174483
 C   -2.2410114605    0.4217618524    1.7584908532
 N   -2.3912476168    0.1256750072    0.4041066295
 C   -1.2884663272   -0.7458098612    0.0302725139
 C   -1.5466237327   -1.8478761295   -0.8315736858
 C   -1.7614552528   -2.7818158200   -1.5600841561
 H   -0.8481519423    1.6667936504   -0.1374130109
 H    0.8537220099   -0.4880427453   -0.4185961618
 H    0.1399370679   -1.5931996798    1.7024775724
 H   -2.9890465118    1.0325456921    2.2526070649
 H   -3.3069978437   -0.0904235668    0.0360673881
 H   -1.9454257232   -3.6082428395   -2.2011112033