20

 C    0.5010204680    1.6309537363   -0.2494384199
 C    0.0388743631    0.2167638471    0.0684870590
 C    0.6105916113   -0.9685156666   -0.7603923513
 N    0.9346954975   -1.7404169864    0.4839109849
 C    2.3598106881   -1.5867756608    0.9150979030
 C    2.0423038114   -0.3329302017    1.7619463685
 C    0.5699697573   -0.5223704576    1.3259407211
 C    2.7852981789   -2.8217619907    1.6832788935
 O    3.2497559964   -2.8171584093    2.7940080674
 H    1.5925821174    1.7064572884   -0.2876633691
 H    0.1169202938    1.9520406520   -1.2237395777
 H    0.1418634685    2.3449445851    0.4997051362
 H   -1.0550243554    0.1878204026    0.0697100784
 H   -0.1014644709   -1.4898545342   -1.4064792855
 H    1.4971369924   -0.7187544965   -1.3577315141
 H    3.0589814292   -1.4551854514    0.0764370814
 H    2.2332498655   -0.4779761336    2.8265791605
 H    2.5222979916    0.5927222522    1.4402202289
 H   -0.1486714775   -0.6764801719    2.1355238004
 H    2.6008391034   -3.7671158430    1.1259663744