18

 N   -0.0160024555    1.3992515573    0.1828267384
 C    0.0020477021    0.0058730029    0.0436313351
 C   -1.1990386889   -0.7088346236    0.0122752470
 C   -1.1810197504   -2.1048467112   -0.0621421844
 N   -2.3830631977   -2.8156190703   -0.1551474919
 C    0.0393125170   -2.7861548967   -0.1012881932
 C    1.2410185543   -2.0719104176   -0.0752157556
 N    2.4608872044   -2.7496468878   -0.1816784411
 C    1.2217072700   -0.6759304463   -0.0007273570
 H    0.8071619597    1.8590761760   -0.1797021081
 H   -0.8549797532    1.8368826994   -0.1708221319
 H   -2.1468450519   -0.1794222624    0.0465518743
 H   -3.1753838249   -2.3451100044    0.2582822455
 H   -2.3243499909   -3.7718164422    0.1644543925
 H    0.0536713150   -3.8701280559   -0.1701741240
 H    2.4318695635   -3.7071754336    0.1380426827
 H    3.2446287269   -2.2577695297    0.2231460375
 H    2.1550447805   -0.1208329537    0.0233926142