16

 C   -0.0858690101    1.6125780370   -0.0197201080
 C    0.0744048839    0.0916074262    0.0372138088
 C    0.7586102711   -0.4967590671   -1.2159288737
 C    0.6500912378   -2.0339967211   -1.4005623176
 O   -0.2352148144   -1.8475639875   -2.5483410143
 C   -0.1534942295   -0.4873563303   -2.4790258541
 O   -0.6740427812    0.3250734541   -3.1660956103
 C    2.0899798975    0.0511655435   -1.4300905128
 N    3.1526833357    0.4774536340   -1.5879923257
 H    0.8870799202    2.1100505359   -0.0676199387
 H   -0.6648184332    1.9133028176   -0.8968189509
 H   -0.6043114240    1.9689399891    0.8743293776
 H    0.6624944501   -0.2013819943    0.9140973786
 H   -0.9053146393   -0.3904196249    0.1326527455
 H    1.5658340975   -2.5476931414   -1.6937050545
 H    0.1375030780   -2.5621315808   -0.5950360898