19

 C    0.0615694644    1.3880439572   -0.5858979884
 C    1.4694744315    1.5751153349    0.0034528044
 O    1.4377519725    2.0542010690    1.3683713840
 C    1.6656630836    0.7182660524    1.8995486449
 C    0.6831169931    0.3265635918    2.9933926940
 C   -0.6822005937   -0.0461577686    2.4812420679
 C   -0.9776719973   -0.2178943776    1.1938076741
 C    0.0039062165   -0.0431742885    0.0763576964
 C    1.4991130292    0.1067395962    0.4997142574
 H   -0.6805053973    2.1138766533   -0.2468892723
 H    0.0611183704    1.3449692106   -1.6789768512
 H    2.2447289640    2.0669567403   -0.5905948684
 H    2.6958338392    0.6452073770    2.2751621450
 H    1.1040838555   -0.5070062489    3.5747469256
 H    0.6058322128    1.1657795167    3.6978182835
 H   -1.4575971321   -0.1810303019    3.2315466651
 H   -1.9960531192   -0.4726644631    0.9079200556
 H   -0.1385443737   -0.8259780850   -0.6735463993
 H    2.1989568606   -0.6594024260    0.1706958218