18

 O    0.5306443741    0.8891551408   -0.8304655178
 C    0.1501130206   -0.1951465923   -0.0384196631
 C    0.2033053230   -0.0927789409    1.5131523842
 C   -1.2110424494   -0.7258637639    1.6189341827
 C   -2.3540166466    0.2964513868    1.8010312602
 C   -2.3634981447    0.5679420116    0.2686971171
 C   -1.3611528818   -0.6093344996    0.0416192955
 C   -1.8030444564   -1.6898554852   -0.8036288682
 N   -2.1472860385   -2.5695883254   -1.4727264746
 H    0.1527483324    1.6944881265   -0.4616980571
 H    0.7326281573   -1.0466630697   -0.3984871491
 H    1.0169635286   -0.6501227529    1.9801808190
 H    0.2435387474    0.9383426798    1.8814145357
 H   -1.2804516859   -1.6832339657    2.1322668522
 H   -3.2832610133   -0.1687942403    2.1377776631
 H   -2.1360416068    1.1455532596    2.4546474480
 H   -3.3279335907    0.4279781437   -0.2195873633
 H   -1.9700613593    1.5382858070   -0.0475101644