14

 N   -0.0119858110    1.4433231654    0.1469296041
 C   -0.0604690691    0.0783720869    0.0247988242
 N    1.0017422967   -0.6834911293    0.0073044580
 H    1.9284207212   -0.2601293166    0.0138052635
 C    1.0839034391   -2.0573674384   -0.0108876759
 C    2.3218842053   -2.7292194870   -0.0481723876
 O    3.4852390047   -2.3761669549   -0.0688017102
 O    1.9096670905   -4.0986525096   -0.0587177660
 C    0.5543571724   -4.0769500343   -0.0289325708
 N    0.0019222234   -2.9064296806   -0.0006856286
 H    0.8576634584    1.9059388395   -0.0789817139
 H   -0.8206759563    1.9377030991   -0.1978035853
 H   -1.0242494460   -0.4118119656    0.0245340508
 H    0.0492860706   -5.0309933847   -0.0317282023