14

 N    0.4352431602    0.2851604625   -1.0461184370
 C   -0.0069693798    0.1586052066    0.2318417006
 O    0.6104844779    0.4918200425    1.2239680520
 C   -1.3578567550   -0.4787611554    0.3464990360
 C   -2.3129658726   -0.4389330121    1.5442345846
 C   -2.7051428268   -1.8975512203    1.1638167741
 O   -3.3545766657   -2.7499753757    1.6849855586
 C   -1.7558366959   -1.8689196048   -0.0404169395
 O   -2.1525747143   -0.7197899580   -0.8152881196
 H    1.3171267315    0.7427383092   -1.2068763747
 H   -0.1878621184    0.1080440732   -1.8160359593
 H   -1.8014784166   -0.4147234403    2.5093873541
 H   -3.0912655910    0.3247260872    1.5046078557
 H   -1.2066896535   -2.6540352047   -0.5471889358