19

 C    0.0625285512    1.4032172597   -0.3172175227
 C    0.0047473842   -0.0422745727    0.1955453932
 C   -1.4056257955   -0.5893005891    0.1392554648
 C   -1.9723117586   -1.2182827215   -1.0785018614
 C   -1.7210988093   -2.1178508068    0.1411558920
 C   -0.5845785713   -3.0859842997    0.0391076956
 O    0.3307091659   -2.9928086378   -0.7434663024
 C   -2.8354221581   -2.5606976796    0.9296426027
 C   -3.7541293596   -2.9568767602    1.5979231139
 H    1.0826241294    1.7941542096   -0.2593102720
 H   -0.2629776793    1.4651423893   -1.3607024783
 H   -0.5824769748    2.0639267546    0.2724401708
 H    0.6716004356   -0.6749230512   -0.3945176345
 H    0.3651150224   -0.0779275380    1.2311196121
 H   -2.1188832893   -0.0492695059    0.7569927681
 H   -3.0092647619   -1.0470697316   -1.3409268359
 H   -1.2955181530   -1.4085272255   -1.9054004391
 H   -0.6463788280   -3.9285250721    0.7586825696
 H   -4.5702185901   -3.3008676114    2.1837305833