17

 O    0.0734872606    1.2478444297   -0.4102487760
 C    0.0056613510   -0.1202215046   -0.0424606634
 C   -1.4520602862   -0.4523999331    0.2035280531
 C   -2.3515487877   -0.4604910579   -1.0699123739
 N   -2.5587844807   -1.8956244333   -0.8527270722
 C   -1.7711225963   -1.9678714796    0.3761136415
 C   -3.2870062332   -2.8457958306   -1.4739255679
 O   -3.3723591367   -3.9999226301   -1.1033533327
 H    0.9883370864    1.4654416640   -0.6113605251
 H    0.4008862686   -0.7715592813   -0.8397014338
 H    0.5901944968   -0.3252974694    0.8690005749
 H   -1.8418151349    0.1794033528    1.0032529715
 H   -3.2649409712    0.1395841935   -1.0000445863
 H   -1.8302576074   -0.2085783626   -1.9996608688
 H   -0.9120610412   -2.6457209152    0.3119733324
 H   -2.3598719840   -2.2342403169    1.2595680886
 H   -3.8015142538   -2.4496489055   -2.3744226419