16

 C   -0.1012692645    1.6223132008   -0.0387813250
 C    0.0692692154    0.1086647627   -0.0387599956
 C    0.7266441866   -0.6149240316   -1.2312996777
 C    2.1608204512   -0.2599481634   -1.3435575048
 C    1.7633957408   -1.3037557902   -0.2888644613
 C    2.2884268765   -2.6264566475   -0.2956702157
 N    2.7024920019   -3.7072692785   -0.2872842070
 C    1.1257814205   -0.5657140965    0.8779193525
 O    1.2877942939   -0.6008833084    2.0590002770
 H    0.8198628120    2.1391439257   -0.3228781446
 H   -0.8886463612    1.9277101033   -0.7346130955
 H   -0.3817370123    1.9649065825    0.9614978863
 H   -0.8841357689   -0.3757107086    0.2084053391
 H    0.1907880410   -1.1167392707   -2.0257294976
 H    2.7044614170   -0.6813502019   -2.1820102619
 H    2.5318084703    0.7033740923   -1.0085076082