15

 O   -0.0702505972   -0.1021409093    0.0014418258
 C   -0.0145481436    1.1016896067    0.0051916804
 O    1.1248482271    1.8170037076   -0.0025938656
 C    2.3397061705    1.0439546073   -0.0160647831
 C    3.4934903888    2.0479148241   -0.0214685964
 C    4.7854441370    1.3746818913   -0.0353491517
 C    5.8360721320    0.7922684336   -0.0467118993
 C   -1.1686754160    1.9738962754    0.0184010791
 C   -2.1620123313    2.6493632003    0.0295856328
 H    2.3728621703    0.3976821561    0.8651281206
 H    2.3580497128    0.4052830589   -0.9032231671
 H    3.3952103755    2.7008726066   -0.8967560201
 H    3.4100513170    2.6932185556    0.8610121033
 H    6.7714307777    0.2898435080   -0.0564647591
 H   -3.0411440707    3.2466019880    0.0395701006