19

 C    0.5385392026    0.9761938099    0.7844753022
 N    0.1513343840   -0.3068638096    0.2278334573
 C    0.4834726890   -0.6975351674   -1.0286771721
 O    1.1348122731    0.0096255773   -1.7917835517
 C   -0.0331971656   -2.0744821617   -1.4411683534
 C   -1.0726620111   -1.9164175439   -2.5726946420
 C    1.0869316843   -3.0337286188   -1.9006085421
 N    2.0144509404   -2.4780281538   -2.7191120649
 O    1.0645908977   -4.2083255607   -1.5844165034
 H    1.0896492654    1.5136078164    0.0126024065
 H   -0.3400506474    1.5624039269    1.0740088560
 H    1.1813800212    0.8490342938    1.6621560451
 H   -0.3701291514   -0.9461061810    0.8042297347
 H   -0.5005276012   -2.5825009797   -0.5936292988
 H   -1.4063517715   -2.9005216980   -2.9113174126
 H   -1.9450146915   -1.3564816860   -2.2220469639
 H   -0.6359227792   -1.3794289301   -3.4174256668
 H    2.0537061943   -1.4700573919   -2.8029605365
 H    2.7902441071   -3.0508589017   -3.0083570836