21

 C    0.0031667328    1.5879319221    0.1139483600
 C    0.0402331260    0.0541282559    0.0518911572
 C    0.8043115604   -0.5026003535    1.2616637037
 C   -1.3945737358   -0.5240103199   -0.0583475102
 C   -2.1446041328   -0.1269224876   -1.3513357906
 C   -2.6464279273   -1.4396755643   -1.9744459318
 O   -3.3267966589   -1.5398993341   -2.9687060054
 C   -2.1354442976   -2.5361333811   -1.1207115343
 C   -1.4599649060   -2.0372523057   -0.0795913488
 H    1.0169984698    1.9995444334    0.1433571537
 H   -0.5082475936    2.0242501280   -0.7487730933
 H   -0.5186521521    1.9265857350    1.0171852481
 H    0.5798104378   -0.2417792227   -0.8592672253
 H    0.2669397848   -0.2967099925    2.1954412683
 H    0.9614151522   -1.5827028961    1.1948369430
 H    1.7904535564   -0.0342735529    1.3409218489
 H   -1.9467551950   -0.1701564348    0.8259599884
 H   -2.9877818983    0.5479893606   -1.1824444165
 H   -1.4865018349    0.3667062991   -2.0743210359
 H   -2.3229825173   -3.5798713713   -1.3386467656
 H   -1.0059761906   -2.6361080674    0.7022680265