19

 C   -0.5133812122    1.2073793059   -0.4567870098
 O    0.4530451140    1.7705853960    0.4279842938
 C    0.4446051720    0.3463366208    0.2513326826
 C    0.0336423496   -0.4670002765    1.4474233953
 C   -0.2487375550   -1.9654675951    1.3226663193
 C    1.0741268785   -2.7224605032    1.5432868344
 C    2.1673390170   -1.6877477091    1.7946350859
 C    1.0746163494   -0.8730944658    2.5410451872
 C    0.2675408599   -2.2255948080    2.7173385737
 H   -1.5464493755    1.2555963079   -0.1129685397
 H   -0.3678233623    1.4264588239   -1.5139901427
 H    1.2918331483   -0.0270010844   -0.3243206758
 H   -0.8136660055    0.0287206102    1.9334913302
 H   -1.0836619395   -2.4457444118    0.8277744590
 H    1.1826833609   -3.7441813370    1.2021731208
 H    2.9121424079   -2.0718141999    2.4971853428
 H    2.6804796627   -1.2208047577    0.9465058850
 H    1.3412087656   -0.1687331562    3.3255001747
 H   -0.1719409456   -2.7271430599    3.5665972833