13

 C   -0.0466498987   -1.2093597405   -0.1337513266
 C    0.0015525485   -0.0135951415   -0.0336278283
 C    0.0543737330    1.4409278378    0.0955036275
 C    1.4513063177    1.9914703209    0.0215743759
 N    2.0490873977    2.5274144158    1.0747185193
 N    3.2537613897    2.8829913518    0.5667265813
 C    3.3246957768    2.5551235155   -0.7382609004
 N    2.1989723375    1.9886521024   -1.1214087086
 H   -0.0854979917   -2.2660985863   -0.2273266550
 H   -0.5477036405    1.8980629859   -0.6991575310
 H   -0.3821253384    1.7481855672    1.0513560480
 H    3.9363316612    3.3280775951    1.1577933144
 H    4.1922403770    2.7461689060   -1.3519950766