21

 C   -0.0854776266   -1.2509356272   -0.0909606779
 C   -0.0559595817   -0.0529111707    0.0048070222
 C    0.0153412620    1.3987968015    0.1141925845
 C    1.4362145073    1.9553932269   -0.1189544396
 C    1.4913811032    3.4744514251    0.0081761177
 C    1.3056631960    4.1482398988    1.4169070061
 C    2.6403399088    4.8784065163    1.2230910427
 C    3.7486445214    3.8818882828    1.0460376394
 C    2.8498654914    4.1812842431   -0.1235183808
 H   -0.1237352195   -2.3085613253   -0.1736875363
 H   -0.6765302415    1.8536599404   -0.6073254388
 H   -0.3388722170    1.7070779547    1.1066584992
 H    2.1217559389    1.4854201507    0.5944704179
 H    1.7761044184    1.6566012338   -1.1178376978
 H    0.7772612619    3.9177192844   -0.6951810208
 H    0.4387382791    4.8111502273    1.4547878375
 H    1.2625583177    3.4719566000    2.2787627328
 H    2.8342251003    5.9098966974    1.4904569240
 H    4.7463545277    4.3026329498    0.9704072631
 H    3.7145873830    2.9217381643    1.5557121710
 H    3.2473008092    4.5873521559   -1.0465563662