15

 N   -0.0157831196   -1.1456988637   -0.1833500065
 C   -0.0525398083    0.0052258606   -0.0942238720
 C   -0.0926444613    1.4371542393    0.0188028384
 N   -1.1385128190    2.1375562158   -0.1630561698
 C   -0.7255410262    3.5304446294    0.0499233890
 C   -1.0625005609    4.0858681677    1.4629326908
 C    0.4293419316    3.8898091586    1.8877996190
 C    0.7786841134    3.4348467326    0.4524088014
 O    1.0912139678    2.0246705038    0.3321134465
 H   -1.0247865289    4.1428270419   -0.8030099819
 H   -1.3872112009    5.1284004130    1.4518097236
 H   -1.7982468633    3.4934106219    2.0090105292
 H    0.9438574393    4.7969234501    2.2111743466
 H    0.6013489509    3.1094773959    2.6318783124
 H    1.5425481252    3.9914294633   -0.0898421168