22

 C   -0.2833801721    1.5027834724    0.2872365058
 C   -0.0774456310    0.0063771172    0.0438930099
 N    0.7233559450   -0.1863017558   -1.1740264093
 C    0.4578186791   -1.3762124865   -1.9756901601
 C    0.0515390695   -0.0269346107   -2.4567543407
 C    0.6994517979   -0.6425599747    1.1803364456
 O    2.0034082425   -0.1436510351    1.2962128746
 C    0.0353006893   -0.9861673502    2.4724194930
 C    0.4746745780   -2.0954544294    1.5313531206
 H    0.6809242759    1.9928908258    0.4401728512
 H   -0.7868663009    1.9749157217   -0.5614756102
 H   -0.8947087891    1.6602194519    1.1801572962
 H   -1.0606420773   -0.4892953793   -0.0459503052
 H    1.3283148529   -1.8739742167   -2.3928657762
 H   -0.3343362808   -2.0457304226   -1.6465464864
 H   -1.0130854906    0.2011300198   -2.4471021668
 H    0.6174096239    0.4809267641   -3.2325648048
 H    2.3430262453   -0.1202895592    0.3900603051
 H    0.6212091787   -0.8309507509    3.3710708723
 H   -1.0268502548   -0.7930980662    2.5835634544
 H   -0.2914822923   -2.6593832453    1.0096474729
 H    1.3525241108   -2.6647743204    1.8139661481