17

 C   -0.1687339477    1.5646372237    0.8000151512
 C   -0.1268667306    0.0778194348    0.4973242899
 C    1.0362768835   -0.4860978399   -0.3685762524
 O    1.9696031899   -0.2123404326    0.7503250348
 C    0.7774952258   -0.8459129061    1.3630682063
 C    0.8222493089   -1.9084625412    0.2264414883
 C   -0.3388456774   -2.8202510589   -0.1364576712
 H    0.8314243812    1.9381740474    1.0270188230
 H   -0.5666513724    2.1238589451   -0.0539431266
 H   -0.8219718416    1.7686311482    1.6555743004
 H   -1.1196652294   -0.3167523249    0.2669821502
 H    1.3592131098   -0.1941599632   -1.3700761913
 H    0.7889432599   -0.9870813498    2.4458708939
 H    1.7684947915   -2.4552518485    0.2542487392
 H   -1.3028043832   -2.3072470307   -0.1753191932
 H   -0.1676930800   -3.2799553294   -1.1159095932
 H   -0.4244929782   -3.6330981539    0.5928583207