16

 C    0.0705496910    1.2534239569   -0.2305625449
 O   -0.0690330223   -0.0739007171    0.2680996804
 C   -1.3266940712   -0.5659555202    0.1763352656
 C   -2.6649350270   -0.2712790451    0.9325094959
 C   -3.0644975456   -1.7004081366    0.8071603191
 N   -3.4678933111   -0.7170066255   -0.2593384641
 C   -2.1765644522   -1.0145496431   -1.0141060070
 C   -1.7385558329   -2.0232085306    0.0441866153
 O   -0.9116077600   -3.1047713861    0.0033817945
 H    1.1244772382    1.5176216860   -0.1276106826
 H   -0.2237996269    1.3106674740   -1.2859787954
 H   -0.5377635745    1.9623077971    0.3460330192
 H   -3.0040031492    0.5092262371    1.6050145569
 H   -3.7864596448   -2.2946659356    1.3573611157
 H   -2.0537540916   -0.9619545404   -2.0886530682
 H   -1.3021812899   -3.7731382509   -0.5722707403