18

 C    1.8884431734   -3.8782060855    1.6054095834
 C    1.0406637793   -2.8186711030    0.9357614016
 N    0.0778653313   -1.9765486397    1.6322495981
 C   -0.1324551306   -2.0795697707    3.0691969854
 C    1.2945748341   -1.3363761116    1.1046989084
 C    2.4040257192   -0.7929941838    1.9923185563
 C    1.0348876386   -0.4822493480   -0.0433768002
 N    0.8618150266    0.1986709765   -0.9617838305
 H    2.2897506492   -3.5755578155    2.5732316749
 H    1.2948463713   -4.7856825873    1.7593638163
 H    2.7313687996   -4.1421351750    0.9588937492
 H    0.6813308214   -3.1251582999   -0.0461166718
 H    0.7578960360   -2.3055911371    3.6704776753
 H   -0.5557099971   -1.1368193498    3.4278018568
 H   -0.8705612946   -2.8671813365    3.2483642765
 H    3.3094189079   -0.6350601927    1.3993576485
 H    2.1128736320    0.1714817445    2.4192625994
 H    2.6506205425   -1.4686787949    2.8106020623