18

 C   -0.0484315916    1.5502986827    0.0175795067
 C    0.0699164595    0.0264903048    0.0581278959
 C    0.6766064478   -0.5401959656   -1.2343929216
 C    1.0230275560   -2.0229171172   -1.0285101403
 O    1.8220098308   -2.2167309874    0.1286903893
 C    1.5920500334   -1.3748142794    1.1728622033
 N    0.8399260148   -0.3642368912    1.2404665241
 C   -0.2424512060   -2.8701797206   -0.9615012719
 O   -0.6277068345   -3.4558596676    0.0122345871
 H    0.9391932014    2.0092765913   -0.0964568593
 H   -0.6792656584    1.8738832179   -0.8168292717
 H   -0.4832211064    1.9161129330    0.9508718654
 H   -0.9408061748   -0.3888324428    0.1846870177
 H   -0.0073750607   -0.4271410311   -2.0825980988
 H    1.5965901483    0.0000300632   -1.4824823847
 H    1.6142451503   -2.3942503073   -1.8756329247
 H    2.1971825325   -1.6843834024    2.0221097005
 H   -0.8063187225   -2.8873727202   -1.9239929872