22

 C    0.1761784794    1.2904093631   -0.9108513849
 C    0.0134536517    0.0040736798   -0.1254613875
 C    1.2095878662   -0.8590006841    0.0454188374
 N    0.6958047214   -0.0874627379    1.1938012798
 C   -1.3806221266   -0.6380114680   -0.1168569392
 C   -2.2880196547   -0.0003192735    0.9552145496
 O   -1.9138795635   -0.3639907788    2.2640339697
 C   -2.0540766487   -0.6054985435   -1.4943846589
 O   -1.2272999760   -1.0789545733   -2.5486921503
 H    1.1861472364    1.6939412186   -0.7833056442
 H    0.0174811188    1.1085525991   -1.9769611844
 H   -0.5337124546    2.0570925844   -0.5811123157
 H    1.0998550123   -1.9364394612    0.1355271640
 H    2.1447955873   -0.5376189797   -0.4048752188
 H    1.2721693081    0.7355732961    1.3478524910
 H   -1.2640474297   -1.6889848289    0.1827234397
 H   -2.2958127237    1.0968904678    0.8230579781
 H   -3.3219538871   -0.3389102550    0.8099930090
 H   -0.9430387465   -0.3215955567    2.2838795696
 H   -2.9974110634   -1.1701351760   -1.4448361781
 H   -2.3129790341    0.4228141204   -1.7690309710
 H   -0.9890945729   -1.9902688227   -2.3502943549