15

 C   -0.3901559032    1.4508752141    0.0788064885
 C   -0.0173563740   -0.0038457796   -0.0621493557
 N   -0.2710412691   -0.5867326428   -1.1889483025
 C    0.0234691118   -1.9071813611   -1.4668082899
 O    0.6295224289   -2.2870799881   -2.4415225853
 C   -0.5741594230   -2.8738080950   -0.4807825433
 N   -0.2430163048   -2.9117315061    0.7548339460
 C    0.5398022195   -1.9627162430    1.3689435958
 C    0.6178038055   -0.6380050967    1.0762927041
 H   -1.0747164547    1.5975232573    0.9213257614
 H    0.5040635505    2.0501791985    0.2863864267
 H   -0.8552805992    1.8105005857   -0.8387684687
 H   -1.2798500274   -3.6162071616   -0.8562918765
 H    1.0351881345   -2.3283380957    2.2649769992
 H    1.1017733747    0.0100854339    1.8018106702