21

 C    0.4726070674    1.1086429046    1.0837618473
 C    0.0957149671   -0.0675957048    0.2116008489
 C   -1.1491719176   -0.8448515932    0.6105951908
 C   -2.4555438512   -0.1117304650    0.3424816238
 C   -3.7633994934   -0.7526697816    0.8598490648
 C   -3.9583360990    0.5838469576    1.6017425053
 O   -2.6562876240    1.0498482957    1.1899133481
 C    0.5396557512   -0.1170521422   -1.1910265814
 O    1.2013850886   -0.8944703519   -0.1910403609
 H    1.3703302745    1.5997639067    0.7002120743
 H   -0.3476303868    1.8288282575    1.1359323751
 H    0.6790386189    0.7680899266    2.1046112695
 H   -1.1613576775   -1.7857031524    0.0475332318
 H   -1.0980673526   -1.1025639482    1.6761208544
 H   -2.5063007642    0.1820386581   -0.7162472386
 H   -4.5100031435   -1.0071449351    0.1065315435
 H   -3.6028242610   -1.6125812682    1.5138063653
 H   -4.7612819430    1.2193624265    1.2065352301
 H   -4.0503643711    0.5355003870    2.6926231346
 H   -0.0306230366   -0.6872593132   -1.9247235284
 H    1.1188682239    0.7085345655   -1.6030356282