19

 C   -0.1024933726    1.4386329153   -0.2395855374
 C    0.0167739723   -0.0574248328    0.0554611915
 C   -1.3381087097   -0.7003012956    0.3417929631
 C    0.8184595091   -0.8041086633   -1.0379042985
 O    2.1538922978   -0.7953067647   -0.5474377696
 C    2.0178430044   -0.9355869616    0.8482088502
 O    0.8688357994   -0.2023734766    1.2195175154
 C    1.9056657912   -2.3524949399    1.2515936863
 C    1.8313657479   -3.5040988351    1.5870398662
 H    0.8768209665    1.8537157746   -0.4939169038
 H   -0.7881909909    1.6197312246   -1.0740007611
 H   -0.4823478372    1.9665461624    0.6395166447
 H   -1.9811357181   -0.6578034483   -0.5441199791
 H   -1.2107831323   -1.7464819693    0.6316499707
 H   -1.8463165338   -0.1762726633    1.1561664380
 H    0.4571788404   -1.8340470231   -1.1638652172
 H    0.8114139747   -0.2967057801   -2.0043293449
 H    2.8974141247   -0.4816859327    1.3174668139
 H    1.7681806360   -4.5214960705    1.8861209615