15

 C    0.0710044180    1.4375196376   -0.1892486832
 N    0.0446131404   -0.0108791564   -0.1153615381
 C   -1.0550643157   -0.5917335049    0.1324666109
 N   -2.2993574566    0.0120625437    0.3531373504
 C   -3.4195765603   -0.7255259526    0.6125868643
 N   -3.4836142868   -2.0035548336    0.6859887056
 C   -2.2933625120   -2.7279844118    0.4818218768
 O   -2.2357656780   -3.9309919886    0.5272885374
 N   -1.1468028586   -1.9685873189    0.2160428323
 H    1.0900229554    1.7639326774   -0.4083016163
 H   -0.5735701894    1.8378743429   -0.9885988242
 H   -0.2249978168    1.9205992510    0.7561374358
 H   -2.3542436039    1.0164464464    0.3165571924
 H   -4.3221237578   -0.1348980722    0.7654347172
 H   -0.2878045581   -2.4793282597    0.0681504688