13

 C   -0.0193807977    1.4397422648    0.1184775916
 C   -0.0196415336   -0.0346223685   -0.0543844686
 N   -0.0260503233   -0.7324517836   -1.1384473685
 C   -0.0013951349   -2.0630988555   -0.7188266097
 C    0.0097575463   -2.0892329859    0.6386221975
 N   -0.0575447934   -3.0737239668    1.6121991458
 O   -0.0026094554   -0.8034781770    1.0876087914
 H    0.8743113851    1.7804133231    0.6530672923
 H   -0.0400842485    1.9057958287   -0.8671127841
 H   -0.8917516266    1.7760311968    0.6893334073
 H    0.0054328012   -2.8853749444   -1.4151454766
 H    0.1639834651   -3.9899532299    1.2469827997
 H    0.5156595259   -2.8681134217    2.4216569818