15

 N   -0.1551793149   -1.1322660183   -0.2509394595
 C   -0.0847325031    0.0068582498   -0.0727697299
 C    0.0211382365    1.4511136532    0.1630065541
 C    1.4336590428    1.9497823434    0.1000978719
 C    1.9408172398    3.3846071052   -0.1135924566
 C    3.2021716080    3.0339499652    0.7134465183
 C    2.7161799569    1.6444801679    0.9216187195
 N    3.5973672841    1.9543200216   -0.2596049794
 C    2.3377299729    2.2783945320   -1.0606127762
 H   -0.5877139011    1.9717057827   -0.5862493008
 H   -0.4286774769    1.6745385295    1.1388739741
 H    1.3726250896    4.2904124955   -0.2719888797
 H    3.9322473923    3.6313019366    1.2455352355
 H    2.9688560349    0.8839315046    1.6504315548
 H    2.2311681283    2.1504826212   -2.1305178561