21

 C    0.9722237446    0.0229927463    0.3401407062
 O    0.0499519356   -0.9617683554   -0.0750073732
 C   -1.3221816194   -0.6292737376    0.0947494573
 C   -2.1035926187   -1.6924302136   -0.6987109091
 C   -1.9076430316   -1.5479389273   -2.2083355145
 O   -1.7394405247   -2.9895731906   -0.2436448003
 C   -1.7270126748   -0.6398413116    1.5568868858
 C   -1.8082309965    0.5886852436    2.3580943699
 O   -2.9865856879   -0.0206542850    1.8329469546
 H    1.9663853548   -0.3306100667    0.0561332872
 H    0.7828925648    0.9856383879   -0.1582256877
 H    0.9515928276    0.1831873717    1.4261724070
 H   -1.5320815734    0.3701329038   -0.3196503296
 H   -3.1640656967   -1.5764422057   -0.4504247428
 H   -0.8440342797   -1.5909459861   -2.4617597139
 H   -2.4240427848   -2.3596805339   -2.7267014393
 H   -2.3080479262   -0.5943978822   -2.5693985633
 H   -0.7762038504   -3.0267896685   -0.2954897383
 H   -1.5680044577   -1.5915614812    2.0619814088
 H   -1.6962297064    0.5368701369    3.4402343955
 H   -1.5388626286    1.5444153451    1.9090463895