23

 C   -0.7864636526    1.9214208679    2.2429735458
 C   -1.0212457922    0.4996549582    1.7086733540
 C   -1.2240593145    0.5071448995    0.1863089404
 C    0.1458922833   -0.3986362882    2.0936624446
 C    0.2704067132   -1.1171575086    3.3997627202
 C   -0.7604622942   -1.0491002775    4.5091568212
 C    0.0604595973   -1.9324802093    2.1150135151
 C   -1.2069154961   -2.6425641013    1.8469884181
 O   -1.2742832617   -3.6951311822    1.2552037519
 H    0.1267346716    2.3527685395    1.8159335258
 H   -1.6193896773    2.5811578967    1.9793348647
 H   -0.6799832916    1.9279489188    3.3320317729
 H   -1.9418811898    0.1213426146    2.1672308696
 H   -0.3290489036    0.8819133732   -0.3242253383
 H   -1.4280204680   -0.4974299474   -0.1967403347
 H   -2.0617570675    1.1537208953   -0.0942399149
 H    1.0869563450   -0.0443536252    1.6752615377
 H    1.2860244700   -1.2021733516    3.7783991065
 H   -1.7794122914   -0.9088331452    4.1429343151
 H   -0.7483237492   -1.9659240168    5.1075953227
 H   -0.5361371821   -0.2128918544    5.1800451111
 H    0.9204877091   -2.4734057589    1.7337049057
 H   -2.1305974077   -2.1536327972    2.2264562147