21

 C   -0.0410255868    1.2636945728   -0.2082937808
 O    0.3788672978   -0.0806987090   -0.1193059511
 C    0.2008089045   -0.6287130455    1.1875134409
 C    0.6185286274   -2.0911582766    1.1637039970
 C    1.8277967523   -2.4985852773    0.2661109216
 O    2.8069997349   -1.4670372485    0.2061297816
 C    2.2428043061   -3.5089635454    1.3572870741
 C    1.4277292488   -2.6710905243    2.3814308260
 O    2.2040333960   -1.7112690093    3.0635861221
 H    0.5103833985    1.9108262556    0.4908469422
 H    0.1481268788    1.5999385940   -1.2305321760
 H   -1.1155162040    1.3621785265    0.0069340059
 H    0.8133250478   -0.0742513796    1.9124545988
 H   -0.8504189275   -0.5189921998    1.4943509825
 H   -0.2301975440   -2.7438954026    0.9374705548
 H    1.6012847893   -2.8833294122   -0.7349752792
 H    2.3509442771   -0.7123633992   -0.1947646092
 H    1.8081166114   -4.4971203335    1.1856413032
 H    3.3139341287   -3.6052473525    1.5484864657
 H    0.8573099926   -3.2081193785    3.1427476508
 H    2.7910068402   -1.3206118951    2.4001689691