19

 O    0.0335670619    1.5223673613    0.1667640696
 C    0.0617130202    0.1012027705    0.1868185373
 C   -1.3363723525   -0.5128101276   -0.0198954112
 C   -1.9730785226   -0.2482193356   -1.3725125545
 C   -2.4700687710   -1.3601105334   -1.9272609650
 C   -2.1707058961   -2.5733645005   -1.1124632847
 C   -0.6932102521   -2.8753842380   -0.9696064029
 O    0.2685364723   -2.3873813398   -1.8558255918
 C   -1.3702764288   -2.0412614793    0.0903185341
 H   -0.0252615442    1.8047201816   -0.7502503331
 H    0.7677817813   -0.3060883927   -0.5462409314
 H    0.4266873316   -0.1771726232    1.1808717805
 H   -1.9773556630   -0.0700806209    0.7564033632
 H   -2.0379771288    0.7457785031   -1.8025323297
 H   -3.0024064137   -1.4061013027   -2.8711434785
 H   -2.8952899398   -3.3776346557   -1.0446243996
 H   -0.4431528166   -3.8903184592   -0.6764961846
 H   -0.1515922873   -1.6946544564   -2.3824419121
 H   -1.4875419207   -2.4816057715    1.0742613043