19

 C    0.2633035531    1.5819970616   -0.2580958237
 C    0.0140652134    0.0951615127    0.0218210260
 N    0.4937720125   -0.7627077512   -1.0668263975
 C    1.7417938534   -1.2925799717   -0.8595649415
 N    2.4886018432   -1.8426013496   -1.7323679623
 C    2.0322861084   -1.0865565362    0.6174954790
 O    3.0699506192   -1.3678835478    1.1591823542
 C    0.7858028219   -0.4734269051    1.2461112800
 C    1.0681820688    0.4500517571    2.4266767507
 H    1.3325482825    1.7935490247   -0.3642890815
 H   -0.2299795976    1.8766897102   -1.1900273217
 H   -0.1372178950    2.2090599123    0.5438765306
 H   -1.0629053086   -0.0603187395    0.1515245297
 H    0.1687804459   -0.6251960841   -2.0119257842
 H    3.3391436847   -2.1629847175   -1.2642591935
 H    0.2114773093   -1.3411728681    1.6040705947
 H    1.6335235467    1.3347794438    2.1227838397
 H    0.1421073052    0.7819883016    2.9050490914
 H    1.6682775429   -0.0842681433    3.1674652400