17

 O    0.0104301504    0.0193629850    0.1813098650
 C   -0.0360533013    1.2113595275    0.0161511316
 C   -1.3062669123    2.0468743506   -0.1746788856
 C   -0.8748323138    3.3561501469   -0.8722264794
 C    0.6305926398    3.5280004601   -0.5680696988
 C    1.0496120472    4.1469989867    0.7849814738
 O    0.3719279670    3.4356167090    1.8299840554
 C    1.5569153310    2.8559272640    1.2727431574
 C    1.1671186520    2.1512576787   -0.0540818380
 H   -2.0659958335    1.4765086378   -0.7142264129
 H   -1.6904421884    2.2500762357    0.8310611171
 H   -1.0149462933    3.2652341294   -1.9542955404
 H   -1.4629552743    4.2173403366   -0.5434405116
 H    1.1990357218    3.9497897017   -1.3988638880
 H    1.3589335858    5.1623966528    1.0051779565
 H    2.3550042972    2.6011593648    1.9593030613
 H    2.0136972648    1.7112623227   -0.5815723636