14

 C   -0.0410303388    1.5448387514    0.0608076073
 C   -0.0055672150    0.0547593958    0.0176161525
 C    0.0025223662   -0.7864392834   -1.0553578110
 O    0.0171503957   -2.0790246424   -0.6676253632
 N    0.0322922380   -2.1168318064    0.7221703462
 C    0.0083389140   -0.8613446205    1.1195255761
 N   -0.0707159175   -0.5254969824    2.4555039808
 C   -0.0104313381   -0.5065155759   -2.4429814512
 N   -0.0206600324   -0.2398508761   -3.5695400259
 H    0.8658896632    1.9556077327    0.5209816400
 H   -0.1209001700    1.9642005815   -0.9445215311
 H   -0.8947651316    1.8987301995    0.6491017528
 H    0.1237077079   -1.2993985559    3.0766300713
 H    0.4378019684    0.3076711421    2.7141432055