22

 C   -0.6081529486   -0.3725296965   -0.9086117048
 C   -0.1077158866    0.4633892786    0.2693229348
 O   -1.1472500533    0.6410715634    1.2342252180
 C    1.0599205697   -0.0784905582    1.0955080898
 C    1.1218308421   -1.5213624108    1.6614429971
 C    2.5462587461   -1.5715474107    1.0915738877
 C    3.7597538518   -2.0267018213    1.8451998527
 C    2.4882281238   -1.3959611905   -0.3683299274
 N    2.4295104314   -0.1757046544    0.4758119388
 H   -0.8770811948   -1.3866581220   -0.5984447256
 H   -1.5052899245    0.0950115030   -1.3330527648
 H    0.1321490152   -0.4252792887   -1.7109082809
 H    0.2210494798    1.4421046541   -0.1205379322
 H   -1.9258580378    0.9706737724    0.7747972425
 H    1.1611452716    0.6285771929    1.9235484782
 H    1.0657930953   -1.5548474780    2.7506859987
 H    0.4291441849   -2.2648160376    1.2567750017
 H    3.7649263077   -3.1183980016    1.9503877931
 H    4.6742136393   -1.7318173705    1.3224611583
 H    3.7880617049   -1.5937131081    2.8510931082
 H    3.4220517875   -1.4513191573   -0.9203708807
 H    1.6211190147   -1.7329203180   -0.9267958831