16

 C    0.1946046136    1.3973747786    0.1250102229
 C    0.0035344154   -0.1189185025    0.0274866132
 N   -1.3732989135   -0.6133690320    0.0628377519
 C   -2.0238867229   -0.5185619581    1.3653826016
 C   -3.3669562847   -1.1050376373    1.3183327786
 N   -4.4338876771   -1.5449967363    1.2777191677
 C    0.6662661915   -0.7040310234   -1.2210876680
 O    1.4630279227   -0.1194616314   -1.9058334250
 H    1.2529693011    1.6508157838    0.0312993332
 H   -0.3370916824    1.9043063451   -0.6868837509
 H   -0.1733955707    1.7870240965    1.0780835612
 H    0.5261075316   -0.6069119178    0.8672155792
 H   -1.9364945838   -0.1373331611   -0.6354477459
 H   -1.4284646608   -1.0819473898    2.0943590175
 H   -2.1202197700    0.5061552101    1.7624175559
 H    0.3397791700   -1.7432626244   -1.4425361131