17

 C    0.1069390453    1.5455660765   -0.1199808580
 C   -0.1724293279    0.0717787651   -0.3486373231
 O    1.0448869873   -0.5491560698   -0.7765880608
 C    0.9423363130   -1.8786633132   -1.0849260270
 C    1.3098108755   -2.3972138112   -2.3115358498
 O    1.7807263229   -1.8034925984   -3.4261386185
 N    1.1361349900   -3.7330487754   -2.2368897817
 N    0.6600830953   -4.1314140074   -1.0272454222
 C    0.5498422810   -3.0061618135   -0.3271151736
 H    0.8823636139    1.6761999965    0.6399891215
 H    0.4475429396    2.0233354514   -1.0432941466
 H   -0.8006182992    2.0541193020    0.2181985606
 H   -0.5248338745   -0.4048515635    0.5762438879
 H   -0.9484493900   -0.0759010907   -1.1130059826
 H    1.8567399654   -0.8618887801   -3.2248535177
 H    1.3214967585   -4.4135584248   -2.9531816926
 H    0.1902857438   -3.0417222935    0.6906348341