17

 C    0.0273592282    1.5417297444   -0.0442909044
 C    0.0178078833    0.0279782080    0.0536223680
 O    0.6488017286   -0.4775623821   -1.1497054707
 C    1.1182666087   -1.7459406580   -1.1033427876
 N    1.2012178676   -2.5405160119   -0.1216897422
 C    0.7539286653   -2.0587182842    1.1864963592
 C    0.7452003529   -0.5310299792    1.2851826779
 O    2.0582236889   -0.0009046785    1.4029170558
 H    1.0520655535    1.9140236552    0.0147056369
 H   -0.4212433332    1.8656509622   -0.9867760268
 H   -0.5470330100    1.9727153126    0.7814552717
 H   -1.0149873461   -0.3472844884    0.0600012506
 H    1.4678918581   -2.0458317998   -2.0902664071
 H   -0.2450758806   -2.4634997447    1.3938229706
 H    1.4233088087   -2.4668988532    1.9510655666
 H    0.2136319757   -0.2062939126    2.1861993660
 H    2.6114494404   -0.4266508098    0.7381984258