18

 C    0.1102980562    1.5002321564   -0.2253944592
 C    0.0261578850    0.0173844035    0.0184492816
 O    1.2701257097   -0.7131120087    0.0224206156
 C    0.5429696995   -0.6343138357    1.2268304049
 C    1.0557152346   -0.0035251484    2.5250011123
 C    0.1221821602   -1.0009247440    3.2944211696
 C   -0.0191003070   -1.8428312721    1.9799050847
 C    0.6623787134   -1.6634292734    4.4675001007
 N    1.1047411682   -2.1952351850    5.3941552942
 H    0.9172029764    1.9508165135    0.3578756071
 H    0.3022003072    1.7024322257   -1.2840297474
 H   -0.8334569868    1.9876224631    0.0428781360
 H   -0.7732005645   -0.4993179740   -0.5167818423
 H    2.1118553411   -0.2287504985    2.6911312212
 H    0.8808218166    1.0601766667    2.6953386306
 H   -0.8252099839   -0.5243448502    3.5575709753
 H   -1.0199995820   -2.1959377670    1.7258368986
 H    0.6789306559   -2.6834517019    1.9634483763