13

 O   -0.0530986311    1.3133739950    0.0096315236
 N    1.3452602923    1.7706361081   -0.0009421547
 N    2.0960841951    0.7787399416   -0.0137124786
 C    1.3605185526   -0.3968854249   -0.0133900758
 C    0.0146244933   -0.0190757096    0.0014634291
 C   -1.0133264058   -0.9596971587    0.0058569083
 C   -0.6194180880   -2.2913170380   -0.0053929747
 C    0.7362576265   -2.6779919727   -0.0203884747
 C    1.7522067214   -1.7353958942   -0.0246577036
 H   -2.0547219841   -0.6650613923    0.0173598207
 H   -1.3820918025   -3.0628606643   -0.0025519302
 H    0.9824481524   -3.7335353158   -0.0286871597
 H    2.7990982578   -2.0123543444   -0.0361212899