10

 O    0.1098350254    1.3364155948   -0.0913922079
 C    0.0718711919    0.0031032702   -0.0356442041
 C   -0.0102020508   -0.7426038404   -1.2272708486
 N   -0.0490074440   -2.0609763087   -1.1970103087
 N   -0.0094883191   -2.6910091061   -0.0139044590
 C    0.0675543212   -1.9386694883    1.0758936121
 N    0.1116219416   -0.6001781344    1.1362211114
 H    0.1650306808    1.6569884278    0.8217951814
 H   -0.0436821543   -0.2594256521   -2.1978809279
 H    0.0984045772   -2.4739474327    2.0206352313