14

 O   -0.3259965056   -0.2496111021    0.2199204591
 C    0.3036962553    0.3528859779   -0.6124477239
 C    1.1972261297    1.5035283391   -0.2529788467
 N    2.2065527915    1.8633373148   -1.2430780246
 C    1.1397053730    2.8354291264   -0.9742557297
 C    0.1741537967    3.0977531870   -2.0837627261
 O   -0.2409470336    2.2740118909   -2.8653248004
 C   -0.3259727921    4.5431676781   -2.2185448328
 O    0.0051416945    5.4342014708   -1.4816312077
 H    0.2896363091    0.0962361078   -1.6868595174
 H    1.4276302555    1.5654600808    0.8086796931
 H    3.0677239111    2.1609953905   -0.7917288350
 H    1.3686181258    3.7084428973   -0.3712219088
 H   -1.0267828610    4.6735777307   -3.0684816491