21

 C    0.0234798183    1.5747451494    0.0625726577
 C    0.0075316244    0.0741728211   -0.0170281075
 C   -0.0248183265   -0.5940898773   -1.1747833663
 C   -0.0430915735   -2.1077521316   -1.2154686161
 C   -1.4170383478   -2.6434824636   -0.7628583231
 O   -1.4013942073   -2.5404604046    0.6654810300
 C   -0.0751297963   -2.1973308428    1.0973457615
 C    0.8238308170   -2.6431532930   -0.0597777062
 C    0.0272326327   -0.6768193234    1.3000893102
 H    0.9123539764    1.9338030077    0.5980961285
 H    0.0165172817    2.0330500721   -0.9301549621
 H   -0.8447257045    1.9512879989    0.6189071039
 H   -0.0623158820   -0.0535052609   -2.1173762792
 H    0.2436862362   -2.4895790884   -2.1976692891
 H   -2.2550988975   -2.0584468586   -1.1560904122
 H   -1.5537663243   -3.6943760216   -1.0594303354
 H    0.1115738250   -2.7265070949    2.0365883831
 H    0.9104720172   -3.7337412138   -0.0904276921
 H    1.8223373518   -2.2023065851   -0.0307130470
 H    0.9389902119   -0.4266334688    1.8642201039
 H   -0.8138462329   -0.3532828406    1.9276036676