21

 C    0.0788793542    1.4837482390    0.1931082114
 C    0.0395354426   -0.0068124635    0.0076510445
 C    0.8483407787   -0.7773798588   -1.0728691969
 C    0.7374472643   -1.8479026756    0.0342231074
 O    0.7876921908   -0.7708151676    1.0213598354
 C   -0.7563108886   -2.2182191893    0.0092981181
 C   -1.4338001204   -2.4525628591    1.3873755660
 C   -1.9900566269   -0.9974298051    1.3680902753
 C   -1.3174278536   -0.7508865891   -0.0108586991
 H    1.1100080266    1.8426102511    0.2533450866
 H   -0.4159139041    1.9827019362   -0.6467654263
 H   -0.4399507619    1.7735699499    1.1127582302
 H    0.3892129581   -0.9669284886   -2.0475780103
 H    1.8629482024   -0.3892473017   -1.1748340669
 H    1.4824589708   -2.6270591790    0.1991112727
 H   -1.0207256373   -2.9033205281   -0.7984492216
 H   -2.2068013892   -3.2245103699    1.3713490915
 H   -0.7384516915   -2.6670785026    2.2019495424
 H   -3.0807065858   -0.9375603024    1.3421179918
 H   -1.6225392343   -0.3565941636    2.1729210876
 H   -1.9665124449   -0.4382824722   -0.8312543598