18

 C   -0.1939215597    1.5288778959    0.0229489506
 C    0.0951526310    0.0295563924    0.0052078940
 C    0.9709495284   -0.4100191696   -1.2074968510
 N    1.9631969272   -1.2795858111   -0.5660966732
 C    2.8222843505   -2.1074840648   -1.2197422460
 O    3.6383222023   -2.8470260181   -0.6978013642
 C    1.8186487744   -1.1146015981    0.8405262597
 N    2.7477807236   -1.6837678085    1.6470333577
 N    0.8247715050   -0.3961607855    1.2041253569
 H    0.7399397433    2.0997087953    0.0572894278
 H   -0.7560511067    1.8329159412   -0.8670003714
 H   -0.7809133896    1.7869132563    0.9079396122
 H   -0.8653111224   -0.5050753728   -0.0249728677
 H    0.4102463035   -0.9513833055   -1.9732601253
 H    1.4628605125    0.4499929171   -1.6773881867
 H    2.6998634152   -2.0464441531   -2.3165683858
 H    3.3334084373   -2.3965171955    1.2329183837
 H    2.5080589641   -1.7375488056    2.6226224790