18

 N    0.1499348090    1.0407312670    0.7561810350
 C   -0.0706242560    0.2830750488   -0.3599452376
 O    0.7129963356    0.2559904921   -1.2896182434
 C   -1.3706454935   -0.5302454863   -0.3412965941
 C   -2.0391815838   -0.5986172639   -1.7024305452
 C   -2.2624133239   -1.8538878193   -2.0930975222
 C   -1.7339722115   -2.8455871496   -1.1138742817
 C   -0.2298575330   -2.8133952903   -0.9181798683
 C   -1.1183010254   -2.0117802635   -0.0022514395
 H    1.0379381223    1.5083203234    0.8412816657
 H   -0.4458014355    0.9902141755    1.5634592830
 H   -2.0534552022   -0.0910925386    0.3999982552
 H   -2.2558098209    0.2931629173   -2.2779002980
 H   -2.7308996937   -2.1419467324   -3.0273437787
 H   -2.2751957934   -3.7634003296   -0.9121262679
 H    0.2367675732   -3.6935785951   -0.4876807218
 H    0.3674244690   -2.2793720675   -1.6476848079
 H   -1.1986374763   -2.3191842880    1.0335158773