22

 C    0.0356086611    1.3457466445    0.1021818111
 O   -0.0991002561   -0.0422082015   -0.0939007661
 C    0.6350969986   -0.5681769953   -1.1934810385
 C    2.1362984063   -0.6633795911   -0.9043459210
 C    0.0224692778   -1.9203064930   -1.4840330157
 C   -0.0607708468   -3.1762388016   -0.5810707287
 N   -0.7930079660   -3.6478888517   -1.8517676663
 C   -1.4486769795   -2.2544541032   -1.8175761662
 C    0.3477402031   -2.9369543867   -2.6027759350
 H    1.0507950654    1.6366692958    0.4089583823
 H   -0.2243373248    1.9116253035   -0.8065598855
 H   -0.6576781125    1.6256533287    0.8995497970
 H    0.4787016455    0.0795865889   -2.0749478916
 H    2.5745878734    0.3215978014   -0.7227233302
 H    2.3142437620   -1.2875527908   -0.0233342214
 H    2.6614507385   -1.1064268956   -1.7564261305
 H    0.8580704765   -3.7346485258   -0.3802802364
 H   -0.7021524397   -3.1287482382    0.3019510516
 H   -2.1914119109   -2.1386388233   -1.0251628960
 H   -1.8429610664   -1.9363325745   -2.7874573945
 H    0.0914619992   -2.6707606522   -3.6327256070
 H    1.2992577554   -3.4745347684   -2.5560294817