25

 C    0.4279630402    1.0597677823    0.5134620423
 O    0.2753062310   -0.2933410085    0.1648137440
 C    0.5422864367   -0.5776837937   -1.2046567797
 C    2.0644717980   -0.6899540430   -1.4814794265
 C    2.4060063821   -2.2118897400   -1.4875126211
 C    3.6624838559   -2.5705922591   -0.6940896263
 C    1.1181759223   -2.8944553300   -0.9849756150
 C   -0.0069016366   -1.9864126036   -1.5056336861
 C   -1.4027646456   -2.2713545007   -0.9574212539
 H    1.4608791321    1.4176793939    0.3832162495
 H   -0.2336721809    1.7092838820   -0.0821233122
 H    0.1596081386    1.1564156672    1.5688218221
 H    0.0608197860    0.1926271784   -1.8265707743
 H    2.3341482502   -0.2173201514   -2.4310009806
 H    2.6201226496   -0.1645557694   -0.6982751553
 H    2.5617891708   -2.5212655940   -2.5292691050
 H    3.5570399699   -2.2752337442    0.3563702856
 H    3.8566874353   -3.6485943753   -0.7195035095
 H    4.5478420065   -2.0649264608   -1.0951784439
 H    1.0277257129   -3.9305807029   -1.3262306206
 H    1.0976762330   -2.9030485839    0.1121152579
 H   -0.0304036161   -2.0779085738   -2.6014975346
 H   -1.4234502217   -2.1599066013    0.1289337425
 H   -2.1438592624   -1.5825979610   -1.3779904931
 H   -1.7167715478   -3.2901373172   -1.2076596563