12

 C   -0.0156856589    1.4767078020    0.0631392967
 C   -0.0047289695   -0.0090598987   -0.0639048651
 N   -0.1089007293   -0.6096735656   -1.2070944621
 C   -0.0802467671   -1.9792906896   -1.1297494452
 N    0.0362113920   -2.7185088593   -0.0707067076
 C    0.1476948019   -2.0839870495    1.1447534917
 O    0.2625336136   -2.5756023681    2.2206898054
 O    0.1207914513   -0.6406326980    1.1007701112
 H    0.9104718647    1.8151445270    0.5380964670
 H   -0.1199811566    1.9293724884   -0.9215428975
 H   -0.8416958853    1.7873797720    0.7105769445
 H   -0.1673001768   -2.4945564505   -2.0848798889