18

 C    0.0042655154    1.5126534798    0.0214858517
 C   -0.0407308191    0.0156334622    0.0560795590
 N    1.1546013483   -0.7673948013   -0.2860601801
 C    0.5589460077   -0.9705067371    1.0416766771
 C    1.3762301488   -0.7435755342    2.2765242167
 C   -0.6992775476   -1.8173028439    0.9372964423
 N   -1.8405775500   -0.9555498475    1.3484284169
 C   -1.2874394248   -0.8502076538   -0.0289699683
 H    0.9757593748    1.8781169221    0.3641095656
 H   -0.1510147468    1.8889934763   -0.9965613012
 H   -0.7773018836    1.9303941195    0.6634581707
 H    0.9461250692   -1.5327377748   -0.9249370897
 H    2.0562082136    0.1012759243    2.1400942535
 H    0.7237005922   -0.5381321079    3.1306217353
 H    1.9851036144   -1.6238307091    2.5144021326
 H   -0.7836611995   -2.8983674459    0.9551203326
 H   -2.6873032522   -1.5261599370    1.2929026268
 H   -1.9098886509   -1.0465999917   -0.8950662817