20

 O   -0.0374618606   -0.0159911207   -0.0885720275
 C   -0.0217883068    1.1769794506   -0.0094245459
 C   -1.0940814227    2.2834055519   -0.0284164642
 C   -1.6839943394    2.6302961195    1.3474438908
 C   -0.6680272567    3.2411760301    2.3306462483
 C    0.6455644130    2.4529252773    2.4939746817
 C    1.6455398664    2.5889629154    1.3273592536
 C    1.0628501196    2.2681405444   -0.0544836462
 N   -0.0157769562    3.2487289440   -0.4429749381
 H   -1.8894994756    2.1256848851   -0.7644824294
 H   -2.5114615660    3.3359095081    1.2114222861
 H   -2.1184594050    1.7133682324    1.7668280027
 H   -0.4338494939    4.2606506819    2.0074033256
 H   -1.1566415623    3.3241398343    3.3080371645
 H    1.1497267025    2.7913597691    3.4060930998
 H    0.4163760375    1.3907146295    2.6560433440
 H    2.0349244522    3.6132789298    1.2898796906
 H    2.4974694638    1.9233070752    1.5090909344
 H    1.8560667474    2.1370614588   -0.7973609766
 H   -0.0253112072    3.3523256931   -1.4534071642