19

 O    0.1884829103    0.0343850868   -0.2391304637
 C    0.0233069716    1.2163562091   -0.1053743327
 C   -1.1896425322    2.1587658110    0.1192659498
 C   -0.1377424588    3.3042067064    0.1886987917
 C    0.0214436276    4.0096954066    1.5279874129
 N    1.2617286027    4.7773617533    1.5388080337
 C    1.1683806574    6.1727852948    1.1140393409
 C    1.3710043242    5.8249967228    2.5470694147
 N    0.8834328438    2.2882964690   -0.0880605490
 H   -1.8906770572    2.2050656992   -0.7153301468
 H   -1.7336061903    1.9680220407    1.0469730380
 H   -0.2252006419    4.0435302597   -0.6162997408
 H   -0.8678413823    4.6385348980    1.7200298755
 H    0.0780026721    3.2602911622    2.3268521342
 H    1.9936418860    6.5423004937    0.5126469735
 H    0.1891185223    6.5552802754    0.8295181426
 H    0.5270288429    5.9750641469    3.2185803894
 H    2.3469620031    5.9353038189    3.0105711450
 H    1.8899163287    2.3469976654   -0.0413892288