13

 C    0.0161171859    1.5584627293    0.0495967230
 C    0.0837429018    0.0488017183    0.0578687907
 C    1.3186622668   -0.7438061004   -0.1692303468
 O    2.4759677297   -0.0366313467    0.3548507645
 C    1.9709890616   -0.1619598692    1.6490641283
 O    2.5131312537    0.1353447845    2.6617839979
 C    0.6836091280   -0.8001678432    1.2017067226
 H    0.9612488902    2.0013091086    0.3698790628
 H   -0.1997438129    1.9207702184   -0.9608114762
 H   -0.7768621903    1.9154059067    0.7133225913
 H   -0.8019237170   -0.4468289331   -0.3382562718
 H    1.5100498389   -1.5172145369   -0.8997238498
 H    0.1352072037   -1.5742607762    1.7179675836