14

 N    0.0944797544   -1.1065233639    0.1443408747
 C    0.0125042571    0.0445638058    0.0687758084
 C   -0.0498281252    1.4703694446   -0.0274500719
 N   -1.1289092630    2.1473567888    0.0873119990
 C   -0.6960656658    3.5226340029   -0.0039929864
 C    0.5127176348    3.9900827626    0.8584062885
 C    1.3572095667    2.8048701202    1.2653577632
 N    1.1861667735    2.2160823473   -0.1561402366
 C    0.6782628218    3.5794165085   -0.5808739806
 H   -1.4488688899    4.2673656684   -0.2233584059
 H    0.4996311331    4.9770420803    1.3018893973
 H    2.4080386448    3.0629575917    1.4016316690
 H    1.0240730925    2.1477767014    2.0752947142
 H    1.0358625653    4.0736280415   -1.4751267329