20

 C    0.5500958327    1.4984998053    0.1975446774
 C    0.0291106999    0.0905423211   -0.0034366291
 C    0.4710410804   -0.6935094387   -1.2587690343
 C    1.0124363380   -1.7371369132   -0.2506767132
 C    0.2457592592   -3.0511354084   -0.1855745007
 C    2.5382257399   -1.9506928014   -0.3267265472
 C    3.0697919739   -2.7345464081    0.7862756433
 N    3.4863516120   -3.3628684126    1.6619113645
 O    0.6778919030   -0.8752755222    0.8646830600
 H    1.6283209576    1.5493030788    0.0164859456
 H    0.0484115027    2.1921226504   -0.4862022798
 H    0.3599272641    1.8312573049    1.2225770933
 H   -1.0574588641    0.0674283734    0.1556735528
 H   -0.3219894646   -1.0439799588   -1.9207969706
 H    1.2399327762   -0.1913223612   -1.8512091126
 H    0.4506611769   -3.6681194610   -1.0674822440
 H    0.5295774392   -3.6162583918    0.7065620792
 H   -0.8293042160   -2.8579801240   -0.1421789146
 H    2.7889115192   -2.4583762827   -1.2659013489
 H    3.0368261100   -0.9766946098   -0.3360814912