12

 O   -0.1229496611    1.4525794854    0.0041329166
 C   -0.0340549371    0.0863662203    0.0742813735
 C   -0.2497745144   -0.8364237591   -1.1383586179
 C   -1.1575742594   -0.9239366536    0.0565438221
 N   -0.5133233254   -1.6501398080    1.1576061949
 C    0.5865707987   -0.7639074917    1.1892393010
 O    1.5893577148   -0.7514329960    1.8420300791
 H    0.6966085258    1.7929517618   -0.3720058512
 H   -0.6476448107   -0.3078560256   -2.0006662414
 H    0.4393659382   -1.6451444438   -1.3644803550
 H   -2.2239518120   -0.7452832291    0.0538113549
 H   -0.3901522774   -2.6572043207    1.1547070633