21

 C   -0.1637688666    1.4988355081   -0.0567280772
 C    0.0413012997   -0.0016975430    0.0649041485
 O    0.9099961584   -0.4965268816   -0.9936577198
 C    1.9165848931   -1.2041976114   -0.2498555901
 C    1.0955394319   -1.9907782566    0.8049058269
 C    0.8074419476   -0.5326108661    1.2973741125
 C    2.2684925031   -0.2411793177    0.8883127049
 C    3.4878524713   -0.2719237977    1.7494985681
 C    3.1388364750    0.9670488334    0.9389336759
 H    0.7774058890    2.0434028576    0.0394267321
 H   -0.5955896252    1.7362869859   -1.0337453247
 H   -0.8574867678    1.8522545186    0.7142660327
 H   -0.9318061609   -0.5052799912   -0.0222261784
 H    2.6437512909   -1.6465702323   -0.9297298874
 H    0.2538761697   -2.5807420001    0.4334801956
 H    1.7101174624   -2.5620872225    1.5007780442
 H    0.4063006462   -0.3055698227    2.2849958167
 H    3.3661420262   -0.2219638985    2.8274075029
 H    4.3366774985   -0.8679920959    1.4278830110
 H    3.7471221572    1.2000551042    0.0704904401
 H    2.7927565001    1.8395049894    1.4839576056