18

 C   -0.0662360664    1.5074575991   -0.0780024507
 C    1.4668912617    1.4373379652    0.0111258469
 C    1.2311457679    0.1124083243    0.8437793076
 C    1.8398469904   -1.0564122328    0.0460080928
 C    3.2576965249   -0.8383490592   -0.4570336595
 O    3.1460443934    0.2579782219   -1.3763510260
 C    1.8111211395    0.7349115424   -1.3173853053
 C    0.8831415312   -0.4884756332   -1.0320405938
 N   -0.0696592652    0.0056805629    0.0498216884
 H   -0.5530653639    1.9429459846    0.7991564691
 H   -0.5227552671    1.9086061847   -0.9899631249
 H    2.1056341453    2.2625897662    0.3262207099
 H    1.1772546297    0.1594669880    1.9317399030
 H    1.6049829636   -2.0424873879    0.4440146650
 H    3.9552274196   -0.5834830041    0.3524317406
 H    3.6575165108   -1.7112661399   -0.9888992245
 H    1.6239388261    1.3212769027   -2.2175864483
 H    0.4704081385   -1.0635080452   -1.8585797105