16

 C   -0.0447067225    1.4729441379    0.0220131377
 N    0.0313084626    0.0193856244    0.0288666002
 C    0.8246718424   -0.4759914975    1.1459513722
 C   -1.3035144559   -0.5684801615   -0.0084381552
 C   -1.2844381023   -2.0069971027   -0.2531063244
 C   -1.2918002774   -3.1988332537   -0.4489327162
 C   -1.2972318520   -4.5460975870   -0.6707632340
 N   -1.3022735806   -5.6926739778   -0.8574006911
 H    0.9667031000    1.8870913918   -0.0129679314
 H   -0.5828706634    1.8153903224   -0.8674525131
 H   -0.5521231613    1.8879970508    0.9138049085
 H    0.3979552889   -0.2070603701    2.1311477815
 H    0.9044506476   -1.5647351801    1.0934649933
 H    1.8328981576   -0.0570459218    1.0864045742
 H   -1.8800224173   -0.3827248759    0.9219893445
 H   -1.8684645666   -0.0908642493   -0.8189702966