21

 C   -0.7715830198    1.1168108455   -0.5334484021
 C    0.4960301740    0.2825169032   -0.6099209370
 O    0.1255652543   -1.0470181595   -0.9482529085
 C    1.1699476003   -1.9931474774   -0.9158969317
 C    2.0115287789   -2.0476097248   -2.1836244210
 O    2.8669374163   -0.9156150995   -2.2350507804
 C    3.6557101283   -0.8455319855   -3.4066240748
 C    4.6708903736   -1.8992138538   -3.5011850361
 C    5.4992226613   -2.7672732472   -3.5717243861
 H   -1.2897624852    1.1179452007   -1.4969386586
 H   -1.4542727151    0.7136886382    0.2201953767
 H   -0.5307589823    2.1510526449   -0.2691369317
 H    1.1920459375    0.6912374723   -1.3529180991
 H    1.0197859215    0.2860485875    0.3606423045
 H    1.8321156148   -1.8243502633   -0.0520746509
 H    0.6928151079   -2.9722694119   -0.7898269931
 H    2.6060168710   -2.9741389428   -2.1864215529
 H    1.3478144596   -2.0648137097   -3.0630595847
 H    3.0183908551   -0.8733703333   -4.3058727253
 H    4.1429904428    0.1349016618   -3.3824042790
 H    6.2362554751   -3.5292513355   -3.6375323782