19

 O    0.1920157182   -0.2144598970    0.1430074176
 C    0.1351476916    0.9824478803    0.0264477405
 C    1.3258648986    1.9093943223   -0.0299295494
 C    1.3218285496    2.7687114139   -1.3093103532
 C    2.4265201376    3.8223885992   -1.3020012377
 C    2.5100471772    4.8824957596   -2.4483415865
 C    2.6855675354    6.0231013288   -1.3993885439
 C    2.2824136912    5.0048092182   -0.3231411292
 O    1.8761425739    5.0948925689    0.8008636921
 H   -0.8497785818    1.5019376557   -0.0542702591
 H    1.2741600542    2.5817353586    0.8368522483
 H    2.2391629309    1.3120814429    0.0492138753
 H    1.4359130418    2.1261147884   -2.1908215439
 H    0.3493894730    3.2686689713   -1.4113623983
 H    3.4030362910    3.3446288643   -1.1477153039
 H    3.3225237338    4.7527791059   -3.1637461511
 H    1.5675321730    4.9667429346   -2.9951292164
 H    3.7253241246    6.3442536316   -1.2779846065
 H    2.0559866362    6.9120163325   -1.4829743649