23

 C    0.0090295028    1.5159372245   -0.2986925428
 C   -0.0187858847    0.0519341240    0.1616935365
 C   -1.4127756932   -0.5396625126    0.1793171876
 C   -2.0000731833   -1.0877350916   -1.1024442765
 C   -1.6975499360   -2.0388002143    0.0455382139
 C   -0.6512550695   -3.1200761468   -0.0966453060
 C   -2.8765868252   -2.2804617326    0.9351414414
 C   -3.2888548202   -1.1682201504    1.5445995499
 C   -2.4171200048    0.0182474074    1.1985969867
 H    1.0313127122    1.9069218055   -0.3102682574
 H   -0.4030209929    1.6160949736   -1.3084070318
 H   -0.5829353981    2.1543667566    0.3654507860
 H    0.6257821075   -0.5416261311   -0.4969469349
 H    0.4202420013   -0.0213550030    1.1661127749
 H   -3.0388308147   -0.8884220298   -1.3478025735
 H   -1.3327535915   -1.1225992594   -1.9599233284
 H    0.1780123598   -2.8014881460   -0.7346302845
 H   -0.2355725557   -3.4079604834    0.8757798494
 H   -1.0824318565   -4.0202705803   -0.5509113607
 H   -3.3356228620   -3.2593716166    1.0294077687
 H   -4.1523162795   -1.0892882255    2.1955373869
 H   -1.9013522411    0.4094124249    2.0882126173
 H   -3.0019647147    0.8550013170    0.7946007771