17

 C    0.0608259468    1.5673291452   -0.0032566695
 C    0.0171578571    0.0389832941    0.0299730242
 O    0.5638480734   -0.4594870934    1.2393356956
 C   -1.4203005612   -0.5371276921   -0.0017110345
 C   -2.2418695611   -0.0454816721   -1.2216794307
 C   -3.6275284562   -0.5076382161   -1.1965464523
 N   -4.7293469102   -0.8523571315   -1.1687030011
 C   -1.3636633609   -2.0028959284    0.0131360158
 N   -1.3208449605   -3.1564818154   -0.0198954698
 H    1.0906876478    1.9029464013    0.1550166015
 H   -0.2652999489    1.9755958761   -0.9643404792
 H   -0.5567648201    1.9911647575    0.7949195273
 H    0.5629140199   -0.3634536422   -0.8378446023
 H    1.5135008439   -0.3053930293    1.2358564680
 H   -1.9189090042   -0.2093455260    0.9178458632
 H   -2.2506943108    1.0476586816   -1.2358185621
 H   -1.7707884646   -0.3820708492   -2.1514861641