15

 O    0.1790025430    1.3569277383   -0.1827863726
 C    0.1010658538   -0.0132972809    0.0163167762
 C    0.2000530546   -0.5222057606    1.4767890053
 N   -1.2763896551   -0.6247120242    1.5241969135
 C   -1.3907917700   -0.6149393389    0.0422867671
 C   -2.4480771223    0.2270153538   -0.4930480068
 C   -3.2900800390    0.9667107973   -0.9246752534
 C   -1.4222942911   -1.9583945973   -0.5557653688
 N   -1.4091382756   -3.0346502586   -0.9787488744
 H   -0.4634888027    1.7926348905    0.3907649068
 H    0.7589028323   -0.4833592953   -0.7134654966
 H    0.7358487101   -1.4769601697    1.5488028603
 H    0.6212874932    0.1856815180    2.1966656010
 H   -1.6754345253   -1.4346476625    1.9862486627
 H   -4.0453409459    1.6062968203   -1.3115154303