19

 C    0.0511864621    1.5687048080    0.0214689697
 C    0.0571955344    0.0417032572   -0.0114609556
 C    0.8700436092   -0.5764674955   -1.1798652036
 C    1.3519511337   -1.9098220599   -0.6220250623
 C    2.5649196293   -1.9281384643    0.2612188211
 C    3.4044525106   -0.7628181327    0.3476364947
 N    4.0717849051    0.1792977076    0.4318131278
 N    1.1990555832   -1.9388776105    0.8392461184
 C    0.6660659875   -0.6149541579    1.2510532655
 H    1.0715705452    1.9598446770    0.0975714508
 H   -0.4029374336    1.9829793255   -0.8844249858
 H   -0.5190159149    1.9443079237    0.8775335775
 H   -0.9761430087   -0.3152471410   -0.1023669638
 H    0.2610107955   -0.7192159329   -2.0754338482
 H    1.7096444888    0.0706106669   -1.4555437759
 H    1.1083518716   -2.8283095552   -1.1488853667
 H    3.1037781768   -2.8611534722    0.4035792138
 H    1.4560623582    0.0088922924    1.6842166044
 H   -0.0846621041   -0.7830143963    2.0273964383