20

 C   -0.1549556410    1.4560747944   -0.4941563490
 C    0.0945456301    0.0095443126   -0.1268945092
 O    1.2866478407   -0.5618524608   -0.7540158362
 C    1.7285977287   -1.0494634402    0.5114898741
 C    2.0331061580    0.0928250988    1.4450641201
 C    0.6012784186   -0.3970301218    1.2646692495
 N   -0.3122693740   -0.8702928622    2.2516876719
 C    0.1845245027   -1.3312597510    3.5439066362
 C   -0.5354715276   -0.0350652898    3.4368682674
 H    0.6738801480    2.1004577169   -0.1890778833
 H   -0.2817053661    1.5535110642   -1.5770896668
 H   -1.0719411091    1.8120042035   -0.0123403997
 H   -0.7714503543   -0.6129836363   -0.3824764250
 H    2.1783403223   -2.0346962383    0.5566078358
 H    2.5053476656   -0.1982644661    2.3783370552
 H    2.3732976512    1.0424883388    1.0416197684
 H   -0.3159780080   -2.2106922505    3.9387948654
 H    1.2523414042   -1.2919048669    3.7441835356
 H    0.0611439264    0.8695186279    3.5326329641
 H   -1.5681925264    0.0528878568    3.7607217257