19

 C   -0.2296173355    1.4549120159    0.1733660069
 C    0.1686003573    0.0227069588    0.0229393056
 C    0.6077442451   -0.7202552942   -1.2528130314
 C    1.4149804936   -1.7144614427   -0.3470411793
 C    0.9269817218   -0.9195123403    0.8740330934
 C    1.5941344245   -0.7648503862    2.2154071266
 C    1.6751674011   -2.0237075756    2.9527931616
 C    1.7451784483   -3.0693209272    3.5401243215
 O   -0.5067427404   -0.9581541866    0.8353763854
 H    0.5120223651    2.1159363098   -0.2868227063
 H   -1.1927248951    1.6394880003   -0.3163798282
 H   -0.3333886352    1.7219198385    1.2285047688
 H   -0.2106345969   -1.1433314339   -1.8402490891
 H    1.2530686255   -0.1230128259   -1.9021726249
 H    1.1072092929   -2.7618063005   -0.3632333620
 H    2.4942285440   -1.6476708113   -0.5063236513
 H    2.6057032411   -0.3634320766    2.0686838304
 H    1.0383103494   -0.0234811220    2.8010894652
 H    1.8002353736   -3.9897334404    4.0664784870