11

 C    0.1114905500   -3.7329161238   -0.0194920628
 C    0.0574842896   -2.5264957229   -0.0121809001
 C   -0.0011964354   -1.1717027493   -0.0040686355
 C   -0.0603749716    0.0383206049    0.0032146760
 C   -0.1085821504    1.4421504987    0.0114344112
 N   -1.1584485355    2.2213862100    0.0299100459
 C   -0.5823643917    3.4617113740    0.0291500605
 N    0.7248304681    3.4726914530    0.0123182468
 O    1.0575240870    2.1228234259    0.0005278217
 H    0.1578473787   -4.7944584234   -0.0258722291
 H   -1.1506266388    4.3803247830    0.0417738554