13

 O   -0.0978254503    0.0365396464    0.0032577559
 C   -0.0374491556    1.2359805216    0.0089102675
 C    1.3282536864    1.9663906089   -0.0013930655
 O    2.3607289922    1.3348226360   -0.0161034274
 C    1.3031239018    3.4379432471    0.0076991306
 N    0.1478741819    4.1203123314    0.0241186686
 N    0.5218509383    5.3994193935    0.0279033178
 C    1.8740134022    5.5694898433    0.0144679201
 C    2.4200185571    4.3104481264    0.0010280652
 H   -0.9359843844    1.8813447353    0.0218918635
 H   -0.1876498439    6.1145719280    0.0398071113
 H    2.3178861266    6.5520776425    0.0156618687
 H    3.4597486178    4.0318413994   -0.0117553262