22

 C   -0.1021524490    1.3794495663    0.1336098021
 O   -0.2269328528   -0.0118052477    0.3352831864
 C    0.9277937946   -0.5941396892    0.9330339425
 C    0.7386979608   -2.0960609517    0.9454134081
 C    0.9307499960   -2.7726177569   -0.4058935365
 O    0.3809504420   -2.0555851276   -1.4973753660
 C    1.0969615341   -2.8652737868    2.1749912624
 N   -0.2975604812   -2.7019164044    1.7953758672
 C   -1.1439787067   -1.8748938813    2.6459405607
 H    0.7327318619    1.6171135197   -0.5422150773
 H   -1.0347447596    1.7294793238   -0.3143821490
 H    0.0579885525    1.9098954961    1.0845440927
 H    1.8241791698   -0.3408408068    0.3456845279
 H    1.0681729783   -0.1855297111    1.9437825051
 H    2.0074185214   -2.8768842530   -0.6039765631
 H    0.5042124494   -3.7837430946   -0.3348758207
 H   -0.2905396461   -1.4587769468   -1.1464623488
 H    1.5062152757   -3.8695520523    2.0895120562
 H    1.4681899294   -2.2984567434    3.0290809203
 H   -0.6162070031   -1.0628889156    3.1695912955
 H   -1.9385610688   -1.4311928683    2.0414972834
 H   -1.5991465286   -2.5194099784    3.4048375311