19

 C    0.0158525918    1.5754518383    0.0231188149
 C    0.0133712474    0.0439774462   -0.0048695767
 C    0.6447534913   -0.5077344792   -1.2922239536
 C    0.5848908299   -2.0445231371   -1.3574001027
 C    1.1821123930   -2.7050037337   -0.1271365088
 O    1.8973186274   -3.6743510218   -0.1562696740
 C    0.7979110594   -2.0499631060    1.2293673996
 O    0.5723428593   -2.7360166339    2.1942462652
 C    0.7399674541   -0.5331124795    1.2290211832
 H    1.0392260501    1.9664565491   -0.0164605428
 H   -0.5324709499    1.9856005130   -0.8309333822
 H   -0.4510922309    1.9563929696    0.9367633139
 H   -1.0317495782   -0.2969554593    0.0309097612
 H    0.1370870968   -0.0889934752   -2.1677255663
 H    1.6904883760   -0.1764575132   -1.3523012064
 H   -0.4695919911   -2.3577850944   -1.4005337460
 H    1.0789661795   -2.4487243083   -2.2448980577
 H    1.7810384723   -0.1726334308    1.2189105483
 H    0.2908726018   -0.2026958539    2.1700634109