15

 O   -0.0266117113    1.4288922391    0.0137451648
 C   -0.0015085319    0.0180184447   -0.0013448042
 C   -1.3933825405   -0.5838280959    0.0488109008
 O   -2.0534928246   -0.1696818060   -1.1733626213
 C   -3.3144845178   -0.5293927666   -1.3425585770
 C   -4.1466613610   -0.2400406897   -2.4002695908
 N   -5.3357369947   -0.8367355030   -2.1120037577
 N   -5.3406334497   -1.4454606496   -1.0302145344
 O   -3.9350060448   -1.2587334841   -0.4474552047
 H   -0.5208184447    1.7134254296   -0.7625916789
 H    0.5313583065   -0.3745372154   -0.8810477119
 H    0.5470512809   -0.3008695159    0.8907044797
 H   -1.3631994719   -1.6773858432    0.0925565903
 H   -1.9576681938   -0.2016974847    0.9043632821
 H   -3.9676614706    0.3265893107   -3.2955344967