17

 C   -0.2141271337    1.4245923618    0.1189637841
 N   -0.2438628000   -0.0071310610   -0.1403380618
 C    0.6222545010   -0.5141394997   -0.9032040054
 C    0.5868827612   -1.9905109901   -1.2336214961
 N    1.9352483695   -2.5186335751   -1.3763154255
 C    2.8857028625   -1.8518971481   -2.0851214811
 O    3.9594346732   -2.3127158485   -2.4132944331
 C    2.4584338942   -0.4310666739   -2.4501840824
 O    1.6327756285    0.2046784292   -1.4699448370
 H    0.1878220627    2.0144487959   -0.7129382643
 H   -1.2293279397    1.7631409342    0.3433680450
 H    0.4021877037    1.6313744860    1.0029750182
 H    0.0678682616   -2.4997215060   -0.4227020194
 H   -0.0041086427   -2.1439478940   -2.1506406829
 H    2.1203979386   -3.4887313990   -1.1684224323
 H    3.3533198600    0.1823730048   -2.5494882874
 H    1.9442644293   -0.4512357164   -3.4219694885