17

 C   -0.0318148640    1.5540902640    0.1382337808
 C    0.0175123691    0.0582585814    0.0534224162
 C   -0.9002594445   -0.8930462216    0.7682894299
 C    0.5863795652   -0.9676686468    1.0270033195
 C    1.3224942465   -1.6565812497   -0.1556387205
 O    0.3794377470   -2.0759720704   -1.1421788242
 C    0.7760531382   -0.6866397063   -1.1174448835
 C    1.3061093598   -0.0832421400   -2.2873721656
 C    1.7400866796    0.4746788042   -3.2610564247
 H    0.9509257958    1.9989143117   -0.0525754178
 H   -0.7309404188    1.9705834606   -0.5963408271
 H   -0.3601971266    1.8739668933    1.1320282714
 H   -1.4714812795   -0.4393717691    1.5727706083
 H   -1.4031790927   -1.6928547134    0.2397772063
 H    1.0363255146   -0.7990540385    1.9962564958
 H    2.2836869222   -2.1559574613   -0.1337993936
 H    2.1281684283    0.9543151719   -4.1254165614