18

 C    0.2502674584    1.4197237330    0.1539646289
 N    0.3521185377   -0.0194157902    0.0039763128
 C    0.4415630267   -0.6194080350   -1.2121152249
 O    0.4105118183   -0.0374478575   -2.2809389244
 C    0.5637036347   -2.1425291164   -1.1279175256
 C    1.3682808921   -2.8758857689   -2.2378172420
 C    2.2430680256   -3.5844646364   -1.1547938314
 C    1.5517538150   -2.7156537447   -0.0989794239
 O    1.7409321281   -2.4787972705    1.0631259197
 H    1.1747255120    1.8506895422    0.5559076813
 H    0.0659078326    1.8434386430   -0.8337513175
 H   -0.5765078748    1.6837144408    0.8212457399
 H    0.5457489384   -0.5886105145    0.8169306467
 H   -0.4403127908   -2.5541881005   -0.9712104252
 H    0.7859348126   -3.5382351554   -2.8776243482
 H    1.9200111398   -2.1740011867   -2.8636326660
 H    2.0279909256   -4.6491399220   -1.0183108277
 H    3.3275400280   -3.4600192905   -1.2177148626