18

 C   -0.0926324443    1.5290378312   -0.0521891204
 C   -0.0459684602    0.0252111247    0.0673420634
 N    1.2817838340   -0.6107307211   -0.1027946558
 C    0.6173160088   -0.6690909113    1.1943454279
 C    1.2935964252   -0.1911266728    2.4843409805
 N    0.9489087785   -1.4866009070    3.1857398513
 C   -0.5214565528   -1.5712504109    3.1691401918
 C    0.2081702837   -1.9221559083    1.9314876966
 H    0.7887897359    1.9790738993    0.4125051487
 H   -0.1123144131    1.8371980011   -1.1029525014
 H   -0.9868644380    1.9324299225    0.4355088361
 H   -0.8971708720   -0.4976885115   -0.3692158870
 H    1.1950057247   -1.5008740604   -0.5886657999
 H    2.3757355011   -0.0946876982    2.3782127540
 H    0.8883185053    0.6965218831    2.9821061864
 H   -0.9059123918   -2.3834626516    3.7791341985
 H   -1.1072371357   -0.6546260197    3.2076420591
 H    0.2751965007   -2.9363324691    1.5467884601