17

 N    0.0136105563    1.2432851981   -0.5583232581
 C    0.0266797353    0.0814295707   -0.0959622652
 O    1.1177944264   -0.7332479187    0.2818807790
 C    0.1743714699   -1.5960873054    0.9943785723
 C   -0.3086742703   -3.0406728826    1.2567487408
 N   -1.3285144303   -2.3050432891    2.1509349123
 C   -0.1975188754   -1.3441512411    2.4569031050
 C   -2.1140499656   -1.4104074256    1.2006415952
 C   -0.9851563404   -1.0193908015    0.2106801022
 H    0.9589343544    1.6182625226   -0.6543247534
 H   -0.7263723898   -3.6114877762    0.4251308477
 H    0.3171061954   -3.6641685323    1.8957525630
 H    0.4970243375   -1.7797686120    3.1773945230
 H   -0.5046575293   -0.3425380767    2.7671981545
 H   -2.9082698123   -1.9790373952    0.7142731449
 H   -2.5621944121   -0.6019054796    1.7790500153
 H   -1.1111778097   -1.5577156551   -0.7352199987