18

 C    0.0402801508    1.5075785639    0.0120515022
 C   -0.0605598714    0.0211656813   -0.0040778061
 C   -1.1339367454   -0.7768512044    0.0101736321
 C   -0.6953188216   -2.2187793616    0.0319024472
 C   -1.0630397347   -2.9565966308    1.3267314551
 O   -1.1757646961   -2.9280448737   -1.1045208094
 C    0.8462247702   -2.0889139135   -0.0906797740
 O    1.6211938504   -3.0042008785   -0.2588539573
 N    1.1313719901   -0.7476213487   -0.0166041224
 H    0.5863227348    1.8600433809    0.8953260260
 H    0.5771162268    1.8772469882   -0.8703812258
 H   -0.9546309094    1.9562503550    0.0192476172
 H   -2.1627203150   -0.4513998758    0.0517286809
 H   -2.1470900644   -3.0908792833    1.3734826015
 H   -0.5823682831   -3.9404241724    1.3373432153
 H   -0.7361151638   -2.4025365125    2.2120914437
 H   -0.5765829044   -3.6782070861   -1.2213460542
 H    2.0505564559   -0.3767163483   -0.1999360320