15

 C    0.0227488930    1.5467246192    0.0015632932
 C   -0.0330198985    0.0532791875   -0.0074739940
 C   -1.1011001040   -0.7847092266   -0.0236937642
 N   -2.4302064276   -0.5680604400   -0.0592804244
 C   -0.5972505287   -2.1789593661   -0.0230136242
 N   -1.3408254714   -3.1999498795   -0.0159041313
 O    0.7628352895   -2.1474772250   -0.0205200285
 C    1.1648911668   -0.7795197466   -0.0069898811
 O    2.3258170705   -0.4955909618    0.0031210950
 H    1.0650156083    1.8726135038    0.0248125683
 H   -0.4476143006    1.9788361468   -0.8899477738
 H   -0.4828261769    1.9710525907    0.8778178638
 H   -2.8127441584    0.3458940915    0.1063386081
 H   -3.0302367448   -1.3707561939    0.0498192463
 H   -0.7955722575   -4.0625343700   -0.0103275734