17

 C    0.1871756471    1.4759998238    0.4867010331
 C    0.1161520007    0.0592893875    0.1599649902
 C    0.0583576550   -1.1105181174   -0.1150359501
 C   -0.0269837375   -2.5318707582   -0.4355559351
 C   -1.4054821710   -3.1115459985   -0.1646067866
 C   -1.5727852732   -4.4452328884    0.4573508635
 O   -1.8038648469   -3.2614639440    1.2024135555
 C   -2.5253696837   -2.6712366398   -1.0621021174
 O   -2.3675932914   -2.1494379333   -2.1344078933
 H    1.1675109488    1.7401935865    0.8983989773
 H    0.0200213947    2.0979652052   -0.3994249250
 H   -0.5684891447    1.7487569135    1.2315252368
 H    0.1973209207   -2.6917979186   -1.4971828637
 H    0.7134656184   -3.0960265785    0.1427184809
 H   -2.4547683124   -5.0469288635    0.2397560415
 H   -0.6752430502   -5.0058452432    0.7145950556
 H   -3.5319395043   -2.8886433532   -0.6401806334