17

 C    0.2296507816    1.5503842567    0.1493249896
 O   -0.3209735310    0.2622735179    0.3829107328
 C    0.4899825776   -0.5531471733    1.1705349923
 C   -0.0417425626   -1.9835761442    1.4355356563
 C   -0.6584908749   -2.6642363064    0.2051340424
 O    0.6383703609   -3.1388227465   -0.2497939300
 C    1.2989814635   -2.6034420302    0.9181562688
 C    1.7900531207   -1.1761073992    0.5691025354
 O    2.7446528898   -0.7294683222    0.0046225131
 H    1.1932118434    1.4883920952   -0.3687042404
 H   -0.4860405600    2.0912155101   -0.4730633482
 H    0.3696291921    2.0974757389    1.0941327382
 H    0.7575503915   -0.0592602630    2.1239603894
 H   -0.4744519995   -2.1795399241    2.4132394184
 H   -1.3181417473   -3.5074746675    0.4379674110
 H   -1.1391603718   -2.0019239169   -0.5195226733
 H    1.9446760860   -3.3211946754    1.4285640543