17

 C    0.0490974605    1.5951280632   -0.1088642958
 C   -0.0176953195    0.0862986400    0.0488210062
 C   -1.4290116594   -0.5282752847    0.0248674240
 O   -1.3311466280   -1.7634269145    0.7188954536
 C   -0.4237557635   -1.5619147256    1.7949511876
 C    0.6555033375   -0.6464054672    1.2410593668
 O    1.5493636913   -1.3488334683    0.3139984023
 C    0.9898906645   -0.7302901382   -0.7756359955
 O    1.2846943620   -0.8574424108   -1.9195162386
 H    1.0732792952    1.9650616762   -0.0074687088
 H   -0.3116430567    1.8878936882   -1.0998526514
 H   -0.5733927940    2.0946482054    0.6403520910
 H   -2.1325691776    0.1559706239    0.5285619244
 H   -1.7975273532   -0.7336032517   -0.9830024648
 H   -0.9182670415   -1.0691390089    2.6489499578
 H   -0.0458406009   -2.5359430293    2.1133212378
 H    1.2266789632   -0.0770971177    1.9743115632