21

 O   -0.0208818116    1.4416389231   -0.0715162388
 C    0.0263499648    0.0208547913    0.0105747678
 C    0.8426529616   -0.4589475346    1.2191153505
 C    0.6176166089   -1.9176993399    1.5221323053
 C   -0.4598381251   -2.5945077421    1.1217673527
 C   -1.5943413727   -1.9988094713    0.3450090062
 C   -2.8299416093   -1.6214770156    1.2345798316
 C   -2.3211417415   -0.1552693975    1.2664683648
 C   -1.4071804454   -0.4801501565    0.0512820871
 H    0.8841375486    1.7689863255   -0.0964804888
 H    0.4935946297   -0.3962417450   -0.8980999110
 H    1.9102080849   -0.2703521080    1.0415518136
 H    0.5728024663    0.1575974952    2.0885653030
 H    1.3807590711   -2.4218411598    2.1102024390
 H   -0.5627310522   -3.6437516850    1.3936411155
 H   -1.8319298201   -2.6302888712   -0.5179461145
 H   -3.7688087978   -1.7232563696    0.6829377427
 H   -2.9254019291   -2.1447262737    2.1889658418
 H   -3.0592123916    0.6367173428    1.1280388711
 H   -1.7502468028    0.0615431475    2.1725449780
 H   -1.9063507868   -0.1982715256   -0.8801534077