19

 O    0.0540478386   -0.0852457920   -0.2740786786
 C   -0.0581542093    1.1000290253   -0.0166909004
 N   -1.2083432338    1.8158016992   -0.2796708220
 C   -1.6400822014    2.9335053146    0.5552476485
 C   -1.0445498072    4.2603639829    0.0896057138
 C    0.4730529728    4.3254695248    0.1210821174
 C    1.3040933818    4.2219549223    1.3768721997
 C    1.3989125109    3.1478895414    0.3139415644
 N    0.9460125233    1.8164391109    0.6280226084
 H   -1.9323234780    1.2071429184   -0.6292240125
 H   -2.7306612090    2.9907053559    0.4947855319
 H   -1.3855052180    2.7433801837    1.6064496242
 H   -1.3751153118    4.4266722679   -0.9422403658
 H   -1.4608690774    5.0774617109    0.6924578302
 H    0.8673061555    5.0358446999   -0.6006403229
 H    2.1285480280    4.9122500131    1.5177157857
 H    0.8003104391    3.9216118059    2.2895710366
 H    2.2875410793    3.1601618442   -0.3150982145
 H    1.7013798568    1.1868943110    0.8616455160