24

 C   -0.0867659347    2.2369165371    1.3851795182
 C   -0.8106023552    0.8919516848    1.4101615005
 N    0.1229124049   -0.1722163476    1.7733452958
 C   -0.2806680292   -1.5762266839    1.6853811520
 C   -1.6589883023   -2.0100335122    1.2387793042
 O   -2.6530634263   -1.7330861973    2.2209895352
 C    0.7779484405   -1.0252873334    0.7722065693
 C    0.5254888884   -0.8594633492   -0.7172153495
 C    2.2301546491   -1.3326368075    1.0942475445
 H    0.6895964323    2.2522881664    0.6129113634
 H   -0.7889240276    3.0496333754    1.1730224118
 H    0.3946828263    2.4313155735    2.3476253849
 H   -1.5986944757    0.8956865624    2.1702536785
 H   -1.3162293025    0.7364176516    0.4454704596
 H    0.0718431709   -2.1688479947    2.5357485980
 H   -1.9887839357   -1.4842038548    0.3414001321
 H   -1.6334850803   -3.0845367805    0.9948183122
 H   -2.3676271519   -2.1367533102    3.0475185917
 H   -0.5140766877   -0.6512644447   -0.9715227649
 H    1.1361374339   -0.0406824054   -1.1152213441
 H    0.8189665299   -1.7712784670   -1.2484608984
 H    2.5437435157   -2.2796854103    0.6399480376
 H    2.8863894125   -0.5434147452    0.7090377426
 H    2.3779551947   -1.3947482972    2.1747706751