20

 C    0.0958552224    1.4788702260   -0.0682350332
 C   -0.0421014602   -0.0441266341   -0.0027571054
 C   -1.5215053310   -0.4577475369    0.0662867550
 O    0.5631152569   -0.5344981362   -1.2097565946
 C    0.9789789948   -1.8807100594   -1.1550891682
 C    2.0977216117   -2.0326633523   -0.1344766050
 N    1.6367623636   -1.4816449739    1.1288467356
 C    0.6655902726   -0.5375068118    1.2778888713
 O    0.3454393424   -0.1034939348    2.3710913632
 H    1.1478349064    1.7613868507   -0.1637605217
 H   -0.4430203702    1.8584612232   -0.9406631270
 H   -0.3098326731    1.9279746273    0.8393269045
 H   -2.0569349922   -0.0444685192   -0.7927136062
 H   -1.6388930587   -1.5456689403    0.0563622314
 H   -1.9669011753   -0.0814617152    0.9894152964
 H    0.1464305068   -2.5535298398   -0.8987768770
 H    1.3326718976   -2.1431869183   -2.1558728644
 H    2.3519010471   -3.0906187099   -0.0010578921
 H    2.9971517858   -1.5116681894   -0.4914014942
 H    2.1071749827   -1.7333307856    1.9864031116