17

 N   -0.1929127533   -1.1447014178    0.1631708650
 C   -0.1117092414    0.0086752552    0.1462148718
 C    0.0019430236    1.4449671702    0.0724407433
 N    0.7030605738    2.1178165574    1.1872463534
 C    1.3276914337    2.1168178758   -0.1340501847
 C    2.6346244900    1.3282118834   -0.3018293177
 C    3.4293195680    2.1848915334   -1.2527460276
 C    2.7810825803    3.2887455619   -1.6197839695
 C    1.4178412567    3.3970410933   -0.9843031524
 H   -0.8696013350    1.9304934693   -0.3595637988
 H    0.2468455022    3.0084568971    1.3752423649
 H    3.1300567360    1.1992020162    0.6676775945
 H    2.4587446234    0.3196708216   -0.6960366702
 H    4.4232898478    1.9067292232   -1.5837668754
 H    3.1624283333    4.0471113640   -2.2935959885
 H    0.6146650659    3.4591469587   -1.7297386496
 H    1.3289204151    4.2962710570   -0.3576191584