19

 C   -0.4134885209    1.5942835171    0.3039633973
 C   -0.1062023834    0.1144880373    0.1503792928
 C   -1.3195962865   -0.6767342489   -0.3531927592
 O   -1.6457411965   -0.2823764432   -1.6680689539
 O    0.9888662923   -0.1123649394   -0.7910253942
 C    1.7062528649   -0.9111092926    0.1691699462
 C    0.6773743533   -0.6288226792    1.2869410906
 C    1.1820596116    0.2190306645    2.4243535868
 O    0.8531225249    0.0772913123    3.5739439185
 H    0.4952969362    2.1775654344    0.4671377807
 H   -0.9009641129    1.9537954438   -0.6058150825
 H   -1.0937548274    1.7574987731    1.1466686130
 H   -1.0976916488   -1.7544726523   -0.2995905432
 H   -2.1953547449   -0.4814494355    0.2750630963
 H   -0.8268955406   -0.3664813646   -2.1744217317
 H    1.7787222228   -1.9629185158   -0.1291188529
 H    2.7161280975   -0.5201593949    0.3446554050
 H    0.1546271141   -1.4940813019    1.6981017300
 H    1.9097041945    1.0098554659    2.1298471204