18

 C   -0.1465161089    1.5692414497    0.0381956875
 C    0.0615911150    0.0622926614    0.0010417570
 C    1.1648858898   -0.5458934613   -0.9585745792
 C    1.7579714454   -1.2891321326    0.2493222268
 C    2.2282912790   -0.3740832686    1.3449928249
 C    0.7584045583   -0.6261159334    1.1900170656
 O    0.1916847096   -1.6879329806    1.9436112337
 C    0.8221625888   -2.8126149918    1.4596731648
 N    1.6729577332   -2.7097877363    0.5141368477
 H    0.7916301106    2.0983140744    0.2371943727
 H   -0.5347890174    1.9327690819   -0.9193249874
 H   -0.8599113141    1.8479390840    0.8207118032
 H   -0.8892352995   -0.4470010402   -0.1785506447
 H    0.7540934366   -1.2154502914   -1.7152650985
 H    1.8314619261    0.1747876305   -1.4430441116
 H    2.7015192158   -0.8518589647    2.1945369215
 H    2.6279657771    0.6022788272    1.0885187455
 H    0.5335840845   -3.7317098783    1.9566495506