19

 C    0.0569170138   -1.2414838304   -0.1283289998
 C   -0.0134655838   -0.0474963259   -0.0087405775
 C   -0.0626124878    1.4033336593    0.1322707231
 C    1.3239967705    2.0521118801    0.0733699857
 C    2.1054571761    2.0699986027   -1.2753319380
 C    2.5383691653    3.5390243832   -0.9863455109
 C    1.4364393964    3.5826082734    0.0737570921
 C    0.3848246886    4.5862100733    0.2559582075
 O    1.4300957757    4.4034592184    1.2236193126
 H    0.1064508425   -2.2970167546   -0.2310440073
 H   -0.6961454193    1.8274505130   -0.6579114447
 H   -0.5430149884    1.6615475716    1.0855423795
 H    1.9535048573    1.6438356025    0.8711700666
 H    2.8984289138    1.3311816799   -1.3934997849
 H    1.4302744761    2.0020078194   -2.1327819292
 H    3.5301770080    3.5978901103   -0.5287885496
 H    2.4825397834    4.2591581182   -1.8056644703
 H    0.4274406247    5.5177651821   -0.3076369395
 H   -0.6106052829    4.2918874436    0.5863188846