18

 O   -0.0206757060    1.3370843687    0.0346282931
 N    0.0526573485   -0.0579067815   -0.0254502020
 C   -1.0829557436   -0.6330405778   -0.0218539686
 C   -2.4427164137    0.0282524944   -0.0068832528
 O   -3.2886869040   -0.5202549876   -1.0026940837
 C   -3.4275156923   -1.9292923381   -0.8957926204
 C   -2.0866536539   -2.6353596845   -1.0951442328
 C   -1.0747248137   -2.1472129661   -0.0478490242
 O    0.1974140009   -2.6934664353   -0.2870180837
 H    0.9042702978    1.5970915220   -0.0320908706
 H   -2.8933416522   -0.0932134993    0.9942569858
 H   -2.3509788798    1.0940401328   -0.2140207619
 H   -3.8609528714   -2.1943436834    0.0846040069
 H   -4.1446982727   -2.2207293796   -1.6674427649
 H   -2.2033714197   -3.7210138525   -1.0147487251
 H   -1.6952569011   -2.4099043227   -2.0927715645
 H   -1.4406102161   -2.4753924950    0.9444708043
 H    0.8284848530   -1.9656869446   -0.1998846650