15

 N   -0.3420646117    1.6351279190    0.0975919173
 C   -0.1099679326    0.2111080323   -0.0989722335
 C   -1.3732151960   -0.5290960663   -0.1559061808
 N   -2.3449512849   -1.1484672464   -0.2428003799
 C    0.8151065753   -0.0992725670   -1.3197707399
 O    1.6144616533    0.7368759619   -1.6817604386
 N    0.7021451209   -1.3465300347   -1.8701790345
 C    1.5149589870   -1.8069641087   -2.9045942347
 N    1.3369009432   -2.9721553923   -3.3686192739
 H    0.5506538854    2.0995682381   -0.0589326813
 H   -0.9616158130    1.9780121542   -0.6323094911
 H    0.4424804250   -0.1668687663    0.7748191906
 H   -0.0265901468   -1.9771161051   -1.5593727134
 H    2.2545381983   -1.0652087656   -3.2108093942
 H    2.0021652166   -3.1655120031   -4.1150019721