22

 C   -0.1565594166    1.5112788887   -0.0174958675
 C    0.0798965860    0.0075063284    0.1041960887
 N    0.6355526295   -0.5375548332   -1.1316649285
 C    0.8358068315   -1.9750932955   -1.2455294207
 C   -0.4680392313   -2.6399754787   -1.7818423215
 C   -1.4603605163   -1.5028772269   -2.0015165261
 C   -0.2108110747   -0.6392277728   -2.3582185106
 C    0.5478069243   -1.9886160453   -2.7094985620
 C    1.3107430795   -2.4517668523   -3.9047070531
 H    0.7659078451    2.0223513418   -0.3082190141
 H   -0.9176856478    1.7330328608   -0.7734584506
 H   -0.5031452533    1.9282056967    0.9328302108
 H    0.8182374312   -0.1882962270    0.8922195974
 H   -0.8495098078   -0.4944901488    0.4217587393
 H    1.5819451195   -2.5193397369   -0.6774393364
 H   -0.6657996449   -3.6976676755   -1.6553175258
 H   -2.0638013044   -1.6767459654   -2.8967120976
 H   -2.1114937462   -1.1749995515   -1.1842249459
 H   -0.2940028107    0.2538043814   -2.9763481316
 H    2.1474801357   -1.7806481168   -4.1291713576
 H    1.7229275593   -3.4522560875   -3.7332823388
 H    0.6754111623   -2.5058793236   -4.7964635778