21

 C    0.3876979973    1.8743680577    0.1633142727
 C    0.0259995536    0.4097052399    0.0262762847
 C    0.9272261372   -0.7026968521   -0.4656224778
 C    2.4411131416   -0.5550856100   -0.4431841147
 C    2.8270002881   -0.1535724162    1.0176520206
 C    1.6076704317   -0.5686787805    1.9037127006
 C    0.4192370727   -0.7110395857    0.9648200223
 C    4.0875560480   -0.7322171590    1.4619384996
 C    5.1232623301   -1.2228215295    1.8269828886
 H    1.4023611291    2.0459840167    0.5257721415
 H    0.2981910221    2.3833333716   -0.8030620864
 H   -0.2944130203    2.3739494205    0.8605074457
 H   -0.9933553982    0.2884254935   -0.3364325317
 H    0.5178501938   -1.3841425505   -1.2042993069
 H    2.8960443368   -1.5194481786   -0.6892742384
 H    2.8264677690    0.1733972434   -1.1642575408
 H    2.9360876330    0.9341489998    1.0626645040
 H    1.8090461642   -1.5371672481    2.3716825540
 H    1.4492539829    0.1509454306    2.7137603586
 H   -0.3617816315   -1.3986119730    1.2728048299
 H    6.0401983488   -1.6491115407    2.1502645339