18

 O    0.1754081450    1.3805644284    0.0423953319
 C    0.0587432710   -0.0275340009   -0.0170971640
 C   -1.4071462976   -0.5032139419   -0.0424861543
 C   -1.5167051057   -2.0566931523   -0.0595048743
 N   -2.0859247620   -2.3970535839    1.2571051557
 C   -2.2593335622   -3.6587335377    1.7468239562
 O   -2.7591684412   -3.9224173096    2.8202630833
 C   -2.4836188771   -1.2254865336    1.9125369130
 C   -2.1636992064   -0.1321880198    1.2186031091
 H   -0.1034089704    1.6612158413    0.9197027835
 H    0.5588034446   -0.3335285868   -0.9431311558
 H    0.5833301493   -0.5148479012    0.8202420641
 H   -1.8748358321   -0.0701229234   -0.9334877295
 H   -2.1788695451   -2.4045535598   -0.8589031609
 H   -0.5421303119   -2.5379562425   -0.1937890111
 H   -1.8833997939   -4.4272570329    1.0438240147
 H   -2.9876996795   -1.3324872804    2.8613882736
 H   -2.3940415548    0.8812244968    1.5141002546