15

 O    0.0418105983    1.3128192954    0.5336697680
 C    0.0058155418    0.0615972701   -0.1391665979
 C   -1.3871859622   -0.4768739878   -0.0537195530
 C   -1.7498019988   -1.8119815057    0.0776647927
 N   -3.1300883017   -1.8749564720    0.0791514454
 C   -3.6397119726   -0.6176799747   -0.0373405737
 C   -2.5872788468    0.2698030709   -0.1245348437
 C   -0.9483362134   -2.9654282091    0.1964672771
 N   -0.2878012144   -3.9142829825    0.2951785845
 H    0.9061483202    1.7054810139    0.3787775459
 H    0.2910922468    0.1821491319   -1.1974469300
 H    0.7099496309   -0.6605380299    0.3011214200
 H   -3.6613542199   -2.7240380922    0.1691222467
 H   -4.7050084954   -0.4510183466   -0.0450775516
 H   -2.6573199927    1.3417653683   -0.2109252207