15

 C   -0.1081661361    1.5684985947    0.2489523471
 C    0.0927649486    0.0976918284    0.1013415136
 O   -0.7112927703   -0.8177055019    0.8370921921
 C    0.7086983323   -0.9318427625    0.9403944133
 C    1.2199302212   -1.6955890750   -0.3384836123
 O    0.1235606920   -2.0160367081   -1.1575436145
 C    0.5882463862   -0.6701871599   -1.2115874648
 C    1.0980456361   -0.1074695436   -2.4787210977
 O    1.3300294077   -0.7505596055   -3.4714100952
 H    0.7636206860    2.1230710775   -0.1132872232
 H   -0.9817181500    1.9005024249   -0.3226674558
 H   -0.2686530844    1.8194140810    1.3005547663
 H    1.1681766017   -0.8936215214    1.9200418681
 H    2.1544349167   -2.2260186536   -0.4781118282
 H    1.2719925424    0.9911586951   -2.4408796589