13

 C   -0.0320934068    1.5032491843   -0.0558595034
 N    1.3432789033    1.9937387604    0.1180328893
 C    2.3271014707    1.2194252156    0.2655816861
 O    2.3714920235   -0.1594556040    0.2999208753
 C    1.1329860408   -0.7026350827    0.1454673576
 C    0.0085386977    0.0194570925   -0.0198255227
 O   -1.0187702239   -0.8777629461   -0.1386915261
 C   -0.4126951317   -2.0877241741   -0.0327683288
 N    0.8732672806   -2.0492920247    0.1385636979
 H   -0.6583996130    1.9354701051    0.7367234850
 H   -0.4257761330    1.8996162424   -1.0019936160
 H    3.3328859032    1.6091639038    0.3921162564
 H   -1.0481625115   -2.9557942024   -0.0998678506