16

 O   -0.0973148759    0.0678063588    0.4728782038
 C    0.0455247029    1.1481507174   -0.0327708047
 C    1.4025942956    1.7867797509   -0.2781374093
 O    1.1972985836    3.0085393436   -0.9460193932
 C    2.3703694740    3.7471218125   -1.1593268546
 C    3.2630556758    3.3614262598   -2.3653989500
 O    3.1096061685    4.6776852363   -2.9336156688
 C    2.1340176540    5.0491775142   -1.9377235226
 H   -0.8093109538    1.7786978710   -0.3618970720
 H    1.9045481635    1.9316525847    0.6937800179
 H    2.0229146522    1.0876759890   -0.8613815454
 H    2.9253476270    3.8699686370   -0.2191785707
 H    4.3124490318    3.1211886860   -2.1614904383
 H    2.8200265234    2.5800511270   -2.9976369242
 H    1.1182487464    5.1144274575   -2.3472816310
 H    2.3916469310    5.9871268945   -1.4347084070