18

 C   -0.1357367184    1.5469609022    0.0927707826
 C    0.0106032722    0.0157656992   -0.0030617340
 C   -1.3781261437   -0.6062199369    0.0525944669
 O   -1.8475833317   -1.1197053995    1.0346233672
 C    0.7337961711   -0.4561521708   -1.2888674096
 O    0.1306082537    0.0461659672   -2.4654709530
 C    2.2485359756   -0.1458713360   -1.2389290955
 C    2.9583022760   -0.6442619957   -2.4143061645
 N    3.5251411732   -1.0413986861   -3.3390148863
 H    0.8345268721    2.0523910441    0.0609684416
 H   -0.7559535720    1.9411362834   -0.7194416840
 H   -0.6171574904    1.8196972111    1.0352675641
 H    0.5547444767   -0.3534449792    0.8731378292
 H   -1.9498874504   -0.5353442602   -0.8984005495
 H    0.6240751157   -1.5437147352   -1.3681892730
 H    0.2815063294    0.9965276569   -2.5141475189
 H    2.4138400276    0.9356773639   -1.1649209415
 H    2.6895048032   -0.5945252584   -0.3418433118