11

 N    0.0049006540    1.3380135867    0.0093135932
 C    1.2910515472    1.8685315119    0.0000758243
 C    2.1201850313    0.7735100688   -0.0139413243
 O    3.4051600142    0.4286278740   -0.0280935617
 N    3.3616348926   -1.0943789232   -0.0368174021
 N    2.1799814278   -1.4668087769   -0.0264511779
 C    1.3197271077   -0.3933705153   -0.0124673855
 C   -0.0145288934   -0.0268188284    0.0025708550
 H   -0.8258834747    1.9058309879    0.0202954319
 H    1.4622183267    2.9297526698    0.0042562679
 H   -0.9334357433   -0.5863236153    0.0086385790