23

 C    0.0631160120    1.5300758056   -0.1194679388
 C   -0.0229720510    0.0153803517    0.1071680537
 C   -1.4311202061   -0.5433532347    0.0510294339
 C   -2.3223530810   -0.4952635080   -1.2321957947
 C   -3.0884288961   -1.6421761151   -0.5137612563
 C   -1.7072585790   -2.0810570596    0.0446613003
 C   -3.6948538450   -0.8969194492    0.6892686875
 C   -2.4384218368   -0.0688738357    1.1200603236
 O   -1.9329000948   -0.3906349338    2.4080034098
 H    1.1040509786    1.8675692032   -0.1065922931
 H   -0.3661453734    1.8152272985   -1.0863359121
 H   -0.4709852289    2.0839222408    0.6590567919
 H    0.5906658000   -0.4983815546   -0.6438736129
 H    0.4082587331   -0.2336914785    1.0841107234
 H   -2.8673940367    0.4276285466   -1.4579399969
 H   -1.7787121965   -0.8340143763   -2.1180120298
 H   -3.7365692035   -2.3303017287   -1.0573457885
 H   -1.0973191551   -2.5997036783   -0.6996097179
 H   -1.6736703920   -2.6056481593    1.0021767679
 H   -4.5463752231   -0.2670599808    0.4128554519
 H   -4.0068457338   -1.5712166254    1.4931650736
 H   -2.6205065078    1.0125679098    1.0469450863
 H   -2.5901173033   -0.1334412882    3.0614837174