19

 N    0.3317533350   -1.2229016893   -1.1181981635
 C    0.3745475352   -0.0680732635   -1.1179523573
 C    0.4509920310    1.3903705514   -1.0979324807
 C    1.5026137126    1.9137378853   -0.0934337777
 C    1.5327794842    3.4255204923   -0.0831576960
 C    2.7005321943    4.2767638462    0.2178005333
 C    4.0170247286    3.6912066859   -0.2882133038
 C    3.3385965936    3.6141916985   -1.6775823472
 N    2.0729387793    4.2685725581   -1.1768983574
 H    0.6841829211    1.7467237180   -2.1072254523
 H   -0.5390951210    1.7896181598   -0.8494217185
 H    1.2472388202    1.5588570294    0.9110324229
 H    2.4768566448    1.4826790294   -0.3334198733
 H    0.5891289126    3.8561702744    0.2521035978
 H    2.6185894038    5.1414575576    0.8696750393
 H    4.8353341217    4.4123059162   -0.2629791695
 H    4.3583103611    2.7630367817    0.1797456457
 H    3.7991062086    4.2625122171   -2.4246608832
 H    3.1955031533    2.6239929715   -2.1216041086