20

 O    0.1506168102    1.1090436338   -0.5150755473
 C   -0.0442666110   -0.2833273572   -0.3083947807
 C   -1.4879471950   -0.4924706632    0.1473682231
 C   -2.5407134680   -0.0753441798   -0.9214632560
 C   -3.1530599676   -1.3608149305   -1.4604550218
 C   -2.2272221109   -2.4140926861   -2.0180533624
 C   -2.7062875736   -2.5142516316   -0.5907499294
 C   -1.8004423024   -1.9753451491    0.5081103041
 H    1.0384996540    1.2410305834   -0.8594372596
 H    0.1629800292   -0.8490813255   -1.2302165747
 H    0.6383491292   -0.6660793017    0.4677510557
 H   -1.6039237673    0.1379552325    1.0346878619
 H   -3.3275617197    0.5289063959   -0.4573176992
 H   -2.0847322900    0.5490527507   -1.6964396974
 H   -4.1628504881   -1.3179013436   -1.8545862031
 H   -2.6482209531   -3.1159433882   -2.7305697862
 H   -1.1902798844   -2.1630126348   -2.2169311110
 H   -3.3835424246   -3.3233134208   -0.3389406463
 H   -0.8828760984   -2.5657761793    0.6245018298
 H   -2.3266135084   -2.0265170848    1.4673450006