20

 C    0.2186304813    1.5122624595    0.2559481296
 C   -0.0761774650    0.0411693269   -0.0485586385
 C    0.7917172946   -0.5220041961   -1.1784154572
 C    0.4906032085   -2.0007886516   -1.4824408951
 C    1.3376864093   -2.5566133491   -2.5863680565
 N    0.7940790972   -2.8811278310   -3.7369733649
 O    1.8370379482   -3.3403585980   -4.5405015166
 C    2.9779027806   -3.2766069738   -3.8415495238
 C    2.7472502833   -2.7913537595   -2.5975268925
 H    1.2620266016    1.6530909917    0.5594956013
 H    0.0435195992    2.1412136708   -0.6237974371
 H   -0.4164047705    1.8870388115    1.0645835570
 H    0.0746096511   -0.5598299207    0.8581547205
 H   -1.1348623923   -0.0739720883   -0.3154821538
 H    0.6393354213    0.0673070008   -2.0912694438
 H    1.8521131579   -0.4098552525   -0.9159343543
 H    0.6460365391   -2.5969562575   -0.5742180026
 H   -0.5599380099   -2.1167659118   -1.7666691290
 H    3.8648431227   -3.6113841241   -4.3573835243
 H    3.4587223617   -2.6269937671   -1.8055004885