21

 C    0.0125060215    1.5780045878    0.0104336806
 C    0.0000863905    0.0469571186    0.0023291188
 C   -1.4133452638   -0.5448601872    0.0126253328
 C   -1.4349396938   -2.0770818129    0.0046026376
 C   -2.8506839333   -2.6608624281    0.0149643210
 C   -2.8680952716   -4.1832744180    0.0069486705
 O   -4.2232035569   -4.6092562120    0.0175915952
 H    1.0341095370    1.9708938348    0.0028048686
 H   -0.5063583408    1.9824679940   -0.8658749375
 H   -0.4895170360    1.9729802995    0.9007676379
 H    0.5391123819   -0.3195749435   -0.8815446104
 H    0.5558270455   -0.3289916564    0.8717785649
 H   -1.9538445977   -0.1787990266    0.8967134288
 H   -1.9705646553   -0.1693797621   -0.8570142672
 H   -0.8937139201   -2.4415026385   -0.8799387809
 H   -0.8769872723   -2.4509244469    0.8747014157
 H   -3.3963874594   -2.3126476955    0.9007320513
 H   -3.4131435002   -2.3032027390   -0.8564418457
 H   -2.3407242416   -4.5563213948   -0.8868690380
 H   -2.3238025525   -4.5658503560    0.8864806737
 H   -4.2358817711   -5.5706470871    0.0124855821