15

 N   -0.1168381360   -1.1371201667    0.0892436104
 C   -0.0481648390    0.0143491569    0.0122925141
 C    0.0186270561    1.4549406740   -0.0859055186
 N   -0.7944591644    2.2182081847    0.9900919927
 C   -1.3215124140    3.0546462970   -0.1031477615
 C   -0.1650373593    3.5549134956   -1.0167605756
 C    1.2291212163    3.3634684326   -0.5324495790
 C    1.3811307625    2.1236368864   -0.0593087327
 C   -0.7953423689    2.1988995703   -1.2101634819
 H   -1.5515718454    1.5959428863    1.2727207619
 H   -2.2352080203    3.6239174051    0.0115674973
 H   -0.4288454721    4.3561974038   -1.6963016435
 H    1.9714570300    4.1508948026   -0.5072091875
 H    2.2366975408    1.7010242179    0.4480817414
 H   -1.2063632561    1.7904792136   -2.1249911075