17

 C   -0.2409840613    1.4669851612    0.1547541144
 C    0.0873190398   -0.0222209891   -0.0076792592
 N    0.7680216936   -0.5337086552    1.1719088231
 C    0.1468375134   -1.1780976729    2.0612751593
 O   -1.2413154432   -1.4425252029    1.9460607790
 C   -1.8750583770   -2.1511363420    2.8976870643
 N   -1.3735091910   -2.6394275179    3.9633607690
 C   -0.0110460891   -2.4032781601    4.1464896209
 C    0.7409417090   -1.7152318417    3.2676633902
 H    0.6620683868    2.0352099075    0.3947327588
 H   -0.6692539095    1.8671498405   -0.7696671222
 H   -0.9639700515    1.6204647279    0.9619147668
 H   -0.8285790404   -0.5792299139   -0.2416118733
 H    0.7725662084   -0.1451452392   -0.8541315537
 H   -2.9270739356   -2.2731065748    2.6549520111
 H    0.4101255822   -2.8172399486    5.0562341092
 H    1.7982862653   -1.5375787087    3.4124673122