20

 C   -0.2042931625    1.4691622270   -0.0400898259
 O   -0.1369108846    0.0578100632   -0.0479815766
 C    0.6638311031   -0.5359172969   -1.0577029943
 C    0.1852110535   -0.1929168759   -2.4729948152
 C    2.1748013624   -0.2297781326   -0.8746674927
 O    2.8675320419   -1.4085828810   -1.3029988871
 C    2.0323297057   -2.4961220629   -1.2631318250
 N    2.3779801436   -3.6711549802   -1.5637879156
 C    0.6601714903   -2.0534987066   -0.8180924535
 H    0.7886529105    1.9368551282    0.0322334766
 H   -0.7154180246    1.8732777709   -0.9240364573
 H   -0.7789348680    1.7458466403    0.8468833951
 H    0.3058019601    0.8698623130   -2.7011951306
 H    0.7631138691   -0.7558204284   -3.2123241898
 H   -0.8700745997   -0.4570578318   -2.5877739724
 H    2.5413288020    0.6056090410   -1.4760893877
 H    2.3884662662   -0.0366349125    0.1840695911
 H    3.3678808323   -3.6981015179   -1.8158000356
 H    0.5400237799   -2.2380779925    0.2545914683
 H   -0.1257506514   -2.5927466744   -1.3470681417