17

 C   -0.0715547426    1.6108066954    0.1187736226
 C    0.1716173286    0.1116538209   -0.0361054871
 C    1.2222509919   -0.3335668249   -1.0595102336
 O    1.6637565492   -1.6195929944   -0.6100324295
 C    1.7838675443   -1.5619840033    0.8041953426
 C    3.1021412115   -1.1101897807    1.2486635270
 C    4.1783772920   -0.7057852120    1.5988134182
 C    0.6882695568   -0.5473261869    1.2457036124
 O    0.3319324091   -0.3354517398    2.3699000808
 H    0.8682207728    2.1431363245    0.2972514352
 H   -0.5367054840    2.0310615759   -0.7774770983
 H   -0.7297862380    1.7960127187    0.9714979090
 H   -0.7748296869   -0.3977280566   -0.2668550779
 H    0.8345063250   -0.4620805712   -2.0715335592
 H    2.0633799690    0.3754783306   -1.0901211353
 H    1.5610950195   -2.5546471211    1.2091565338
 H    5.1335593819   -0.3658891752    1.9159306593