18

 O    0.0018534344    1.3652678777    0.1986016107
 C   -0.0138748813   -0.0205216956   -0.0182380176
 C   -1.4680269121   -0.5432466089    0.0007815091
 C   -1.5516041395   -2.0635471437   -0.2349805062
 O   -0.3104283892   -2.6820529598    0.1213775621
 C    0.6003359516   -2.7831569685   -0.9177316920
 O    0.7053879977   -1.6375052266   -1.7764494451
 C    0.6805624349   -0.3537267987   -1.3317726631
 N    1.1378963939    0.5985680857   -2.0306046216
 H    0.4360736001    1.7422477550   -0.5852961573
 H    0.5339212827   -0.5226606293    0.7909378719
 H   -1.8820024355   -0.2770695236    0.9772837295
 H   -2.0488069627   -0.0018422094   -0.7526127541
 H   -2.3130738873   -2.5244216721    0.3987577017
 H   -1.7966289155   -2.2939667301   -1.2789517568
 H    1.5733244997   -2.9899723933   -0.4581581831
 H    0.3346071212   -3.5828037671   -1.6228215292
 H    1.5651368969    0.2683538284   -2.8950355389