19

 C    2.0053068023   -3.7554275759    1.5516475519
 C    1.0266253918   -2.7738254756    0.9438232335
 N   -0.0149550944   -2.0851498320    1.6825480517
 C   -0.1795046176   -2.2798203087    3.1162772472
 C    1.1163038412   -1.2767575481    1.1795869956
 C    2.1663772252   -0.6500962333    2.0710018000
 C    0.6968943678   -0.4293288042    0.0169305889
 O    1.2656417572    0.5688581066   -0.3491542285
 H    2.3579443880   -3.4657264785    2.5420610901
 H    1.5378920101   -4.7423590749    1.6391180503
 H    2.8793341065   -3.8610428654    0.9009723765
 H    0.6916383954   -3.0856490639   -0.0471527641
 H    0.7481906607   -2.3843574893    3.6940565261
 H   -0.7348247539   -1.4287532079    3.5218086585
 H   -0.7827884032   -3.1791076476    3.2754713390
 H    2.9264125725   -0.1820569096    1.4407584540
 H    1.7274163871    0.1424376622    2.6861649278
 H    2.6559984843   -1.3638772754    2.7332398116
 H   -0.2103949910   -0.8161544083   -0.4982836899