23

 C   -0.0182819248    1.6267175818   -0.0511811084
 C    0.0256790748    0.0968935867    0.0468982877
 C   -1.3551710347   -0.5601628197   -0.0260134655
 C   -2.1072062518   -0.3823327031   -1.3581057414
 O   -3.1267995672   -1.3740275619   -1.3612746485
 C   -2.6368089117   -2.5261664878   -0.6928782280
 C   -1.7339490856   -3.4660359116   -1.5417400175
 C   -0.4831637405   -2.9673814874   -0.7636217276
 C   -1.3971340239   -2.0885873732    0.1489723324
 H    0.9827096655    2.0570148798    0.0514767656
 H   -0.4219048670    1.9587776127   -1.0135186358
 H   -0.6474201873    2.0558200702    0.7366762351
 H    0.6671790796   -0.2983061508   -0.7501957108
 H    0.5043179357   -0.1902894892    0.9915534077
 H   -1.9856155905   -0.1286550734    0.7636647818
 H   -2.5934664747    0.5904857563   -1.4680487950
 H   -1.4194128438   -0.5147453400   -2.2113566267
 H   -3.4844413462   -2.9986988101   -0.1905284235
 H   -1.9545607853   -4.5274079834   -1.4022226571
 H   -1.7551111547   -3.2460115996   -2.6119456581
 H    0.0671912300   -3.7451101109   -0.2297069551
 H    0.2341393117   -2.4084091588   -1.3695866956
 H   -1.3932033675   -2.3844080466    1.1997036642