21

 C    0.4680989511    0.2055479611   -0.9032848150
 C    0.0262267328   -0.2043177926    0.5000974902
 O   -0.1934494847    0.9467887949    1.3171137917
 C   -1.2361404932   -1.0682839933    0.5640916255
 O   -2.3364527497   -0.4967235077   -0.1892187368
 C   -2.6196509999   -1.7588139203   -0.8442880520
 C   -2.6550851092   -1.6507786796   -2.3539320450
 C   -1.3781455909   -2.4182691146   -0.1731274175
 O   -0.2813346847   -2.7386675094   -0.9993595212
 H    1.3112423589    0.8968448374   -0.8255294741
 H    0.7644939009   -0.6643915111   -1.4908268552
 H   -0.3517049075    0.7114144585   -1.4230633735
 H    0.8313178935   -0.7584783526    0.9973256266
 H   -0.9263381533    1.4308603823    0.9181818963
 H   -1.5074003521   -1.1524756707    1.6249273045
 H   -3.5662201850   -2.1717731541   -0.4671402493
 H   -1.6838266454   -1.3476381135   -2.7501182190
 H   -2.9317948605   -2.6124985881   -2.8011254084
 H   -3.4057820266   -0.9132996416   -2.6539067346
 H   -1.6202687843   -3.2579423881    0.4890989325
 H   -0.4466689603   -3.5946297571   -1.4063722056