16

 O    0.2911542928    1.3772664873    0.4074873871
 C    0.1088562618    0.0010346006    0.5062086801
 C   -1.0323398765   -0.4769785837   -0.3763877191
 O   -1.6537604022    0.3245783625   -1.0405378762
 C   -1.3163363783   -1.9485808992   -0.3704899698
 N   -2.7213833644   -2.3587202492   -0.4498544435
 C   -1.8563642309   -2.6770407425   -1.5829796246
 C   -2.1714557514   -1.9778771832   -2.8732052279
 O   -1.7625540913   -2.3828884682   -3.9321433882
 H   -0.3922633295    1.6829682150   -0.2105447392
 H    1.0198672227   -0.5504681501    0.2140937770
 H   -0.1124687115   -0.3067113473    1.5436938604
 H   -0.6475208541   -2.5364070932    0.2557572708
 H   -2.8824340279   -3.1795330885    0.1278058779
 H   -1.4847056075   -3.6911755144   -1.7156094968
 H   -2.8158554021   -1.0869050859   -2.7713375381