19

 O   -0.3117871444    0.1588399230    0.6984064215
 C   -0.2043589787    1.2731292975    0.2574955908
 C   -1.3569742121    2.1505621695   -0.2507157453
 C   -0.6969274920    3.4626528371   -0.7073058990
 C    0.6028436564    3.5398244616    0.1230216413
 C    1.0981396640    2.0847113856    0.1683014848
 C    2.1207556226    1.7521978721    1.2707181829
 C    2.8314601941    0.4970535440    1.0596100894
 C    3.4491507219   -0.5147216429    0.8640773074
 H   -1.9307460206    1.6295769312   -1.0216364167
 H   -2.0391445300    2.3100603642    0.5934775162
 H   -0.4477783154    3.4097569983   -1.7732068365
 H   -1.3380367086    4.3362441078   -0.5685791717
 H    1.3394286606    4.2270879664   -0.3010731088
 H    0.3797652281    3.8863732381    1.1410341746
 H    1.5409152750    1.8395947485   -0.8084604171
 H    2.8519060698    2.5688577690    1.3274795360
 H    1.6081861573    1.7284304002    2.2406654117
 H    3.9733252618   -1.4237927611    0.7037005785