19

 C   -0.0581063522    1.5542085342   -0.1039945122
 C    1.4853896006    1.5488000042    0.0567827973
 C    1.4002307601    0.0915223401    0.6147789003
 C   -0.0378509572    0.0069990075    0.0072251387
 C    2.4409035706   -0.9231099113    0.2137914962
 C    2.9753526382   -1.5638681615    1.2578680326
 C    2.4001171322   -1.0278471980    2.5282120122
 O    2.6741962354    0.3829044655    2.7282518795
 C    1.4282693070    0.0060074826    2.1402694706
 H   -0.5581040838    2.0227240632    0.7481526236
 H   -0.4675282544    1.9846609939   -1.0202995031
 H    1.9975635969    1.5751680886   -0.9094641515
 H    1.9462642278    2.2867515427    0.7167483270
 H   -0.8018675034   -0.4780491204    0.6219532565
 H   -0.0258920278   -0.4778627446   -0.9730530887
 H    2.7252345822   -1.0625434917   -0.8244618864
 H    3.7402788875   -2.3294524083    1.2194549568
 H    2.3380973431   -1.6152101479    3.4391623566
 H    0.5420475072    0.2490400713    2.7227939241