16

 C   -0.0589057228    1.5545270062    0.0824633757
 C    0.0394907565    0.0430508127   -0.0451244440
 C    1.1690897415   -0.5704854724   -0.9544438946
 C    1.7184494852   -1.2904207489    0.2796573263
 O    2.0349012454   -0.2931113677    1.2506014184
 C    0.6615298811   -0.7222420725    1.1513442746
 C    0.0028274007   -1.2188681586    2.3094772858
 C   -0.6054080271   -1.6163030006    3.2680899137
 H    0.9033926463    1.9736509655    0.3889729387
 H   -0.3431605132    2.0089554450   -0.8724303546
 H   -0.8106803509    1.8388540779    0.8263155350
 H   -0.9286600151   -0.3968656125   -0.3010576199
 H    0.7774209599   -1.2456061288   -1.7183975580
 H    1.8636239283    0.1389697562   -1.4112856259
 H    2.2409787486   -2.2373113870    0.3543619893
 H   -1.1298013843   -1.9726801645    4.1200259793