16

 O   -0.2204777744    0.0430497373    0.1460606890
 C   -0.0583926088    1.2277333088    0.0147994946
 C    1.2857902420    1.9168981966   -0.0545408867
 C    1.4088328684    2.8058990124   -1.3138769776
 C    2.6586332524    3.6093390576   -1.3402727827
 C    3.7498582878    3.6672446973   -2.1425974758
 N    4.6312692638    4.6330387153   -1.6672963729
 C    4.0426902144    5.1019140824   -0.6190392833
 O    2.8409175667    4.5392135795   -0.3448936857
 H   -0.9305998229    1.9197191183   -0.0675697334
 H    1.3776922200    2.5566705642    0.8335584734
 H    2.0767719113    1.1637830116   -0.0177161251
 H    1.3878572468    2.1832712755   -2.2136403514
 H    0.5383411974    3.4733530255   -1.3700885505
 H    3.9653681593    3.0883226481   -3.0266811977
 H    4.3808462961    5.8733307897    0.0547765158