23

 C    0.2016046031    1.4698080114   -0.0624807721
 C    0.0246574658   -0.0453315532    0.0579536668
 C   -1.4644081191   -0.4552066172   -0.0070387268
 O   -2.0492139985   -0.0256029126   -1.2082069144
 C   -1.6129021013   -1.9700494399    0.1270735114
 O   -1.9912429651   -2.6081270088   -0.8355766432
 C   -1.3143712278   -2.6383203828    1.4625980649
 C   -2.6525764971   -3.0856640455    2.0853568144
 C   -0.3596983099   -3.8258983198    1.2699662666
 H    1.2616467389    1.7405618709   -0.0710765408
 H   -0.2570946155    1.8316677243   -0.9855280224
 H   -0.2715491743    1.9904304767    0.7776492769
 H    0.5489379313   -0.5496467686   -0.7630002891
 H    0.4688150518   -0.4032948119    0.9943969071
 H   -1.9888233175    0.0120689002    0.8443775677
 H   -2.2454841213   -0.8431681767   -1.6951413498
 H   -0.8530094128   -1.9005581940    2.1287744548
 H   -2.4772697806   -3.5557712637    3.0575292428
 H   -3.3323649512   -2.2409847761    2.2364733668
 H   -3.1494462700   -3.8095275125    1.4330840832
 H    0.6142977766   -3.5012803507    0.8908563549
 H   -0.1978537030   -4.3439860082    2.2198938592
 H   -0.7823556426   -4.5337844512    0.5523323811