21

 C    0.5281607673   -1.1707638808    1.1171729100
 C   -0.2516436049   -0.8293849219   -0.1681962806
 C    0.7012081026   -0.4727662245   -1.3385135590
 C    0.0347154485    0.1301811020   -2.5665426402
 C   -0.5486245755    1.5185183034   -2.3872235152
 C    0.5794386758   -0.2548720068   -3.8972193085
 N   -0.7429578444   -0.7388258178   -3.4687073031
 C   -1.1248504690   -1.9506715757   -0.5337275273
 N   -1.7831518909   -2.8574617272   -0.8191060352
 H    1.2030899799   -2.0149779846    0.9492847122
 H    1.1246427698   -0.3079957350    1.4265739111
 H   -0.1503782559   -1.4338733466    1.9321155533
 H   -0.8996787786    0.0305047992    0.0379091302
 H    1.4379966647    0.2405120075   -0.9483319501
 H    1.2561364539   -1.3757789137   -1.6179943335
 H    0.2249086076    2.2348681097   -2.0875761810
 H   -0.9960614455    1.8607043376   -3.3228949795
 H   -1.3372849462    1.5332680041   -1.6267248782
 H    0.5622886356    0.4603886112   -4.7155565082
 H    1.4108535374   -0.9550396344   -3.9308559575
 H   -0.6958241122   -1.7109628456   -3.1745742997