21

 C   -1.5098082003    0.1160013746    0.6805171723
 C   -0.0961305354    0.0621411838    0.1293981819
 O    0.8052015956    0.6822544069    0.6474136707
 C    0.1471898338   -0.8311925364   -1.0862368297
 C   -0.8990390385   -0.5969441961   -2.1771009049
 O   -1.0093277206    0.7688751174   -2.5449254624
 C    1.6100651750   -0.8436405382   -1.6185937742
 C    1.5991189854   -2.3946431475   -1.5895506895
 C    0.2995876168   -2.3568826554   -0.7409173115
 H   -2.1210532247    0.7370856717    0.0164629369
 H   -1.9701428707   -0.8765952481    0.7199049060
 H   -1.4958181245    0.5632989240    1.6750511621
 H   -0.6673942427   -1.2316686824   -3.0472716481
 H   -1.8933500092   -0.8892199739   -1.8242574532
 H   -0.1403522138    1.0711131989   -2.8307060790
 H    1.7823517849   -0.3694305374   -2.5903824084
 H    2.2881779010   -0.3996108396   -0.8890871734
 H    1.4382162109   -2.8387067282   -2.5751096259
 H    2.4639154450   -2.8809736855   -1.1338063237
 H    0.4819650777   -2.5264006020    0.3234427079
 H   -0.5242963557   -3.0028876566   -1.0583715942