20

 C    0.1640019396    1.5170898431   -0.0453099441
 O   -0.2811696914    0.1893244842   -0.2229996688
 C    0.4991619176   -0.5382361853   -1.1305878141
 C    1.8946490869   -1.1078431999   -0.6788706091
 C    1.4168998134   -2.5254148010   -1.1054157037
 C    0.7074579170   -3.3866325738   -0.0470055600
 C   -0.1205226115   -2.6135387230    0.8957331116
 N   -0.6756379681   -2.8679464934   -0.4487638217
 C    0.0147134119   -1.9776493036   -1.4642532487
 H    1.1818938328    1.5594275861    0.3697182611
 H    0.1555441230    2.0736079606   -0.9954875472
 H   -0.5225423498    1.9988885566    0.6545539139
 H    0.6090147791    0.0320546216   -2.0672846575
 H    2.7381511566   -0.7218351427   -1.2559414908
 H    2.1171552632   -0.9954868668    0.3853419132
 H    2.0231711629   -3.0747961618   -1.8232617631
 H    0.8837202542   -4.4503579595    0.0844766477
 H   -0.6472346030   -3.1866605709    1.6542049984
 H    0.1264383592   -1.6026374373    1.1927286237
 H   -0.4563517334   -2.1145290131   -2.4375721810