21

 C   -0.0779922805    1.6048912806    0.2721494984
 N    0.0393079161    0.1568545246    0.3708268996
 C    1.1896216122   -0.5813506010   -0.1169267611
 C    2.5222733016    0.1463659102    0.1329224736
 C    2.1730640620    0.2155059025    1.6524370108
 C    0.8465942002   -0.5214697495    1.3622978589
 C    0.1980562542   -1.5179591697    2.2581428033
 C   -1.0512633326   -1.1632760793    2.9837754506
 N   -1.0837529252   -2.1151566073    1.8624706919
 H    0.8522485745    2.1608714643    0.4486777522
 H   -0.4403950426    1.8584569684   -0.7288085388
 H   -0.8210022288    1.9504136010    0.9973087481
 H    1.0187985698   -1.3711833639   -0.8414067852
 H    3.3827323899   -0.4962268220   -0.0642383452
 H    2.6711474417    1.0933099690   -0.3946289773
 H    2.8520288324   -0.3873506961    2.2596244857
 H    2.0877449530    1.2052830442    2.1108765323
 H    0.8886922929   -2.2158240435    2.7282945728
 H   -1.2536522958   -1.5918670408    3.9614659449
 H   -1.4565447623   -0.1670447211    2.8263798637
 H   -1.3974426128   -1.6129976806    1.0315608108