17

 C    0.1912002102    1.5027725381   -0.0196035569
 C    0.0798494872    0.0112074080   -0.0361013415
 C   -0.0058102628   -0.8463003667   -1.0905336426
 C    0.0021045270   -0.6457071722   -2.5764181275
 O    0.9443661190    0.3289380516   -2.9985417784
 O   -0.1177487794   -2.1168859344   -0.6626618590
 N   -0.1104729024   -2.1328503692    0.7380458714
 C   -0.0009464987   -0.8704199884    1.0911090056
 N   -0.0395643154   -0.4883014246    2.4214167890
 H    1.0550365061    1.8377133112    0.5690917188
 H    0.3158994098    1.8877652679   -1.0330604817
 H   -0.6972347641    1.9667209544    0.4246604851
 H    0.1650808674   -1.6210821149   -3.0564126274
 H   -0.9708767909   -0.2750182935   -2.9174606471
 H    1.8129115521    0.0457925487   -2.6929780452
 H    0.1067629189   -1.2600139278    3.0585267857
 H    0.5525032561    0.2992178321    2.6442894019