19

 C   -0.1763006361    1.5273359548    0.0105327507
 C    0.0218543892    0.0183878621    0.0422311132
 C    1.1766887086   -0.6111880582   -0.8475472897
 C    2.1504165424   -0.2194581681    0.3213515967
 C    0.9079720411   -0.6112815503    1.1882541410
 C    0.7873239302   -2.0897479429    0.8128037631
 C    0.5219570697   -3.2193935630    1.6869246390
 O    0.3525167819   -3.1436698540    2.8862703310
 C    0.9640007309   -2.0824320414   -0.5248162102
 H    0.7494703362    2.0938029603    0.1380738835
 H   -0.6253340676    1.8328818017   -0.9410271145
 H   -0.8629568272    1.8315830882    0.8081351273
 H   -0.9455640657   -0.4770601649   -0.0855676022
 H    1.3465308050   -0.3165488366   -1.8828416280
 H    3.0523477217   -0.8239205910    0.4401577226
 H    2.4010989328    0.8421543059    0.3473721926
 H    0.8011556212   -0.3418212808    2.2370065290
 H    0.4825209391   -4.2006061630    1.1613303133
 H    0.9464070366   -2.9109141887   -1.2208829784