14

 O   -0.9756489246    1.2799976556   -0.2208530053
 C    0.1152681231    0.9288427168    0.1472582355
 C    1.3477601576    1.7533072277   -0.0558368489
 O    1.1891686188    3.1868736424   -0.0628071842
 C    1.6173371393    2.5742493556   -1.2593754784
 C    3.1251728764    2.6286809948   -1.4641844528
 N    3.6360068619    1.9189986211   -0.3013537197
 C    2.6972555483    1.3315686867    0.5028170367
 O    2.8944851060    0.6054084469    1.4514786122
 H    0.2931864733   -0.0373622488    0.6590751441
 H    0.9281926143    2.6157699060   -2.0969801519
 H    3.4035591289    2.1314911526   -2.4019928551
 H    3.4794045545    3.6655277567   -1.5017809486
 H    4.6159901722    1.8561059659   -0.0764585737