21

 C   -0.1279450044    1.5913528037   -0.1040659639
 C    0.0490360441    0.0733756293   -0.0230089567
 N    0.7636457286   -0.4705478554   -1.1646829381
 N    0.0870424151   -0.6842612114   -2.3131269587
 C    1.0113103492   -1.1047539159   -3.1705612286
 C    2.2960171141   -1.1629962486   -2.5904138960
 C    3.5751761212   -1.6055722280   -3.2349270716
 C    2.0962850388   -0.7377626676   -1.2843870948
 C    3.0684595396   -0.5807096582   -0.1601633670
 H    0.8390933921    2.1036194360   -0.1093867579
 H   -0.6619130036    1.8563007870   -1.0200140559
 H   -0.7034694935    1.9528259092    0.7538068784
 H    0.5923506291   -0.2083227331    0.8832852196
 H   -0.9255498589   -0.4204774812    0.0053674595
 H    0.7282013589   -1.3593581663   -4.1826854016
 H    4.4112397378   -0.9402612672   -2.9921663434
 H    3.8694541677   -2.6177611960   -2.9306585815
 H    3.4738811844   -1.6140281548   -4.3241216786
 H    3.0693912467    0.4343674507    0.2533906758
 H    2.8615128977   -1.2706247570    0.6671493351
 H    4.0796249853   -0.7925367850   -0.5150142842