19

 C   -0.0701105090    1.5053847994    0.0386212774
 C   -0.0243242946   -0.0001834886   -0.0213312653
 C   -0.0400708989   -0.6959606384   -1.2283982721
 C    0.0013271705   -2.0841449880   -1.2156170272
 C    0.0640242926   -2.7594199074    0.0021307783
 N    0.1739084666   -4.1521858903    0.0642810520
 C    0.0794876021   -1.9781632551    1.1785692794
 C    0.1568268832   -2.6391659172    2.5304232252
 N    0.0334241597   -0.6474475095    1.1513872173
 H    0.8145276156    1.8997556490    0.5497154694
 H   -0.1161686832    1.9460668641   -0.9608151037
 H   -0.9429351388    1.8444787850    0.6065795745
 H   -0.0883582964   -0.1592568708   -2.1699531408
 H   -0.0122710734   -2.6455851109   -2.1460916182
 H   -0.1415742755   -4.6300261316   -0.7682216989
 H   -0.2209745495   -4.5720674332    0.8933558070
 H    1.0346994805   -3.2922810753    2.6077685072
 H    0.2141530796   -1.8721447437    3.3032935925
 H   -0.7260780509   -3.2621246574    2.7328269059