22

 C   -0.5863016446    0.8154766171   -1.5765506657
 C    0.2419184156   -0.3016421659   -0.9613399407
 C    1.7524630519   -0.4185834822   -1.3257095674
 O    2.2423810321    0.8521306643   -1.7119123837
 C    2.0588825030   -0.7926923404    0.1652312992
 C    3.2965753568   -0.2129173444    0.8297170300
 C    0.6715212121   -0.2371398147    0.5145566237
 C    0.3221503680    0.8165977832    1.4905556487
 N   -0.0938661148   -0.5880945318    1.7038917394
 H   -0.0781706148    1.7768878640   -1.4794864553
 H   -0.7633599436    0.6333495190   -2.6415931256
 H   -1.5655086360    0.8875030281   -1.0889634142
 H   -0.2331000403   -1.2730173222   -1.1498771534
 H    2.0083797646   -1.1789300721   -2.0753545322
 H    3.2010575060    0.7955991962   -1.7721788012
 H    2.0437535018   -1.8838231233    0.2740958509
 H    3.3556072568    0.8681085765    0.6718287175
 H    3.2785597274   -0.3967113844    1.9088894786
 H    4.2134022067   -0.6687559379    0.4373327261
 H    1.0642638655    1.1824333601    2.1951411261
 H   -0.4296793233    1.5493890313    1.2084031168
 H   -1.0785680909   -0.6978950206    1.4688700023