19

 C   -0.0847880924    1.5225067165   -0.0361869721
 C    0.1095747359    0.0242325893    0.0405491261
 O    1.1814338499   -0.4637124050   -0.8331810053
 C    1.7408278684   -1.1806832528    0.2717781437
 C    2.2318269664   -0.2926521910    1.3617638333
 C    0.7532782025   -0.6283896733    1.2809576948
 C    0.2465455110   -1.8337985342    2.0337730023
 O    1.1786227081   -2.8928888818    1.7307037600
 C    1.7164084419   -2.6820223736    0.4183226207
 H    0.8178189369    2.0597888011    0.2662487098
 H   -0.3336576090    1.8197811565   -1.0597136486
 H   -0.9074995201    1.8261085255    0.6199686572
 H   -0.8221489611   -0.4973900755   -0.2166809009
 H    2.7655249968   -0.7790278869    2.1712191221
 H    2.5742673157    0.7047404498    1.1102557110
 H    0.2329547780   -1.7458482041    3.1240591288
 H   -0.7687713226   -2.0893007816    1.6917089256
 H    1.0752924608   -3.1047594437   -0.3704706937
 H    2.6877792731   -3.1839616052    0.3955500651