20

 O   -0.1247883952    1.4690688810   -0.2025240207
 C    0.0336933827    0.0834291137    0.0851061528
 C   -1.3405447829   -0.5468190361   -0.0107044867
 C   -2.0259147588   -0.7982876161   -1.3977706148
 C   -1.0740999924   -2.0225320759   -1.5985296465
 C   -1.5258111655   -2.0982883640   -0.1041295840
 C   -2.9358300651   -1.7765842091   -0.6344570329
 C   -4.2765113242   -1.6779849119   -0.0486226831
 N   -3.9467731977   -2.7007589219   -1.0933424779
 H    0.7303606687    1.8961854512   -0.0972536095
 H    0.7527927291   -0.3801908731   -0.6034565861
 H    0.4203240273   -0.0663526773    1.1066641674
 H   -1.9996583326   -0.0606513157    0.7161415333
 H   -2.3179966981   -0.0482420754   -2.1336244078
 H   -1.4447691237   -2.8192250753   -2.2466973689
 H   -0.0231682707   -1.8131279218   -1.7982897798
 H   -1.2519941654   -2.8479828619    0.6388278376
 H   -4.4932957345   -2.0938531802    0.9317796002
 H   -4.9085050284   -0.8398014564   -0.3325533031
 H   -4.3255812124   -2.4069437541   -1.9913066794