19

 C   -0.0478889535    1.5051417722   -0.1372227737
 C   -0.0076582360    0.0193260457    0.0363769730
 N    0.0210249524   -0.7847791868   -1.0252692610
 N    0.0530608478   -2.0298879292   -0.5052231857
 C    0.0377584727   -2.0542001419    0.8534455772
 C    0.1037707020   -3.3260646561    1.6367588730
 C    1.5387044719   -3.7323129878    1.9896910501
 O    1.4676250329   -4.9493932379    2.7122992790
 C    0.0013222824   -0.7282623170    1.2394024544
 H    0.8242698550    1.9865924004    0.3190439983
 H   -0.0608177118    1.7543485558   -1.2003892402
 H   -0.9384576099    1.9395228081    0.3302312893
 H    0.0582402470   -2.8188444161   -1.1295680013
 H   -0.4633018553   -3.2196676183    2.5664290445
 H   -0.3598227123   -4.1480405991    1.0787096759
 H    2.1283443763   -3.8433006184    1.0657278439
 H    2.0078321969   -2.9322101613    2.5820363662
 H    2.3597801960   -5.2043206401    2.9645775905
 H   -0.0227290345   -0.3541698820    2.2510978466