19

 C   -0.0168247892    1.4580316331   -0.0811246968
 O    0.1416487323    0.0656724364    0.0711051017
 C    0.6815786271   -0.5867554031   -1.0690816773
 C    1.1313992086   -2.0042909214   -0.6879658579
 C    0.5085896852   -2.9201203360   -1.7439751752
 O    0.7335371226   -4.0978747399   -1.9008165403
 C   -0.4294675407   -2.0946616281   -2.5576535517
 C   -1.2817597803   -2.7138103799   -3.6156767905
 C   -0.3338873670   -0.8149989686   -2.1737033101
 H    0.9366826086    1.9493349959   -0.3313165379
 H   -0.7515751791    1.7189150681   -0.8571379110
 H   -0.3732904597    1.8466677523    0.8757240917
 H    1.5258720586    0.0104457448   -1.4533558319
 H    2.2141682284   -2.1379844867   -0.6399184499
 H    0.7210148289   -2.2544822509    0.2952113831
 H   -0.6613985349   -3.2726012763   -4.3244747422
 H   -1.9725958286   -3.4413734137   -3.1754053269
 H   -1.8621832081   -1.9669180204   -4.1624048444
 H   -0.9038449527    0.0040060644   -2.6007227827