23

 C   -0.4658730442    1.3543528462   -0.2662774897
 C   -0.0265597562   -0.1122723414   -0.2149109949
 C    1.0702230964   -0.4711369997   -1.2204819642
 C    2.3787839864    0.2734780553   -0.9994511165
 C    1.2106642682   -1.9948765301   -1.4910071275
 C    0.6538160984   -1.6548137846   -2.8651211571
 C    1.0220542734   -2.1742084823   -4.2143412605
 C   -0.3945161309   -2.3450681351   -3.6748941005
 O    0.5896636040   -0.2568649736   -2.5906165400
 H    0.3252250851    2.0330258482    0.0667757356
 H   -0.7420733374    1.6288734568   -1.2884152189
 H   -1.3340583994    1.5212178117    0.3782120450
 H    0.3241585624   -0.3742555984    0.7923034404
 H   -0.8914013387   -0.7533096349   -0.4220359459
 H    2.7755333141    0.0697385414    0.0014514630
 H    3.1225831837   -0.0387414286   -1.7375381077
 H    2.2374283933    1.3532264943   -1.0998209964
 H    2.2373968180   -2.3681446648   -1.4847195920
 H    0.5852564638   -2.6391906785   -0.8688339994
 H    1.1682513437   -1.4419958371   -5.0013518220
 H    1.6639206298   -3.0472485788   -4.2796851053
 H   -0.7216656640   -3.3349931390   -3.3723687371
 H   -1.1688507001   -1.7225486468   -4.1105058184