15

 O    0.1119884849    1.4067632016   -0.2053206415
 C    0.0053587375    0.0013258946   -0.0471417922
 C    0.6482541551   -0.5445797205    1.2352160226
 C   -0.1999753938   -1.3033119115    1.9536583336
 C   -1.4901140306   -1.3468476665    1.2655345314
 C   -2.7837379523   -1.8118476463    1.2674032277
 N   -3.3540300622   -1.2901331036    0.1368732437
 N   -2.5148462502   -0.5186956894   -0.6002092063
 C   -1.3923462195   -0.5624130973    0.0923920336
 H   -0.3913406475    1.8142489250    0.5083926214
 H    0.5098775563   -0.4185773676   -0.9266427304
 H    1.6744325004   -0.3132146498    1.4910028041
 H    0.0298144760   -1.7983252978    2.8890383465
 H   -3.3452454667   -2.4479111163    1.9329532324
 H   -4.3016245974   -1.4092707746   -0.1784963966