18

 O    0.1643912807    1.6055267252   -0.1286863334
 C    0.1042170467    0.1913901243    0.0249127352
 C    0.6538582801   -0.5465623877   -1.2011734402
 C   -0.1053545610   -0.1538923346   -2.4826453604
 C    0.4711423359   -0.7505662689   -3.6839968393
 N    0.9424377621   -1.2273062750   -4.6253194488
 C    0.8114542695   -0.2488453257    1.2913670736
 C    0.0972113749   -0.4134766099    2.5598467655
 O    0.4777751695   -1.5486340185    1.7739108844
 H    1.0918053238    1.8634389744   -0.1876616325
 H   -0.9623002311   -0.0384939401    0.1347521652
 H    1.7197785778   -0.3129801063   -1.3214418796
 H    0.5824250006   -1.6252111749   -1.0308303560
 H   -1.1553110384   -0.4606326473   -2.4089069629
 H   -0.1033176370    0.9358749157   -2.5866012148
 H    1.8801123067   -0.0168519560    1.3251523714
 H    0.6316598921   -0.2991931288    3.5011285721
 H   -0.9717246228   -0.2106446357    2.6008810403