13

 C   -0.0201995231    1.5445509573    0.0061502038
 C    0.0005562934    0.0420324132   -0.0138439454
 C   -0.0515926780   -0.6929363330   -1.1489124346
 O   -0.0329188980   -2.0229911203   -1.1548517966
 C    0.0449203433   -2.7669129633    0.0662233661
 O    0.0554586784   -3.9547837902   -0.0376746568
 N    0.0998182467   -2.0393292057    1.2383868281
 C    0.0782364450   -0.7421094169    1.1829700084
 H    0.8811901310    1.9507718635    0.4778585554
 H   -0.0772979113    1.9489842018   -1.0078298828
 H   -0.8807600818    1.9254068210    0.5669261728
 H   -0.1127058090   -0.2751445941   -2.1501508442
 H    0.1243238734   -0.2219853133    2.1424174458