12

 O   -0.0095602347   -0.0289945057    0.0036258461
 C   -0.0484665461    1.1819394077    0.0069696392
 C    1.1586885799    1.9891053777    0.0008736971
 C    2.1908274044    2.6070460206   -0.0044971404
 C   -1.3327621553    1.9301317324    0.0174285553
 N   -1.3776682659    3.2598432330    0.0208202252
 N   -2.6986235677    3.4970934561    0.0303238369
 C   -3.3881218984    2.3302112213    0.0322738052
 N   -2.5541690599    1.3166520549    0.0242642382
 H    3.1004038979    3.1566202977   -0.0092442468
 H   -3.0387029135    4.4460826288    0.0348193655
 H   -4.4667408005    2.2814939955    0.0394736684