21

 C   -1.0847857266    0.9618410701    0.1014915198
 C   -0.2294304381   -0.3069710788    0.0550279874
 C    0.5688451368   -0.3405121126   -1.2654483470
 O    1.5136190141    0.7043645811   -1.3137140794
 N    0.7506386038   -0.3851485178    1.1688759998
 C    0.3453551739    0.2094099543    2.4411658533
 C    1.1997700209   -1.7618046414    1.3702136519
 C    2.4512003693   -1.8298339255    2.1348609999
 N    3.4314618809   -1.8914756747    2.7426971869
 H   -0.4584686241    1.8550016933    0.0348907702
 H   -1.7567088927    0.9621697656   -0.7614108630
 H   -1.7026381547    1.0197902205    0.9995473011
 H   -0.9079082703   -1.1796086390    0.0828654214
 H    1.0519483380   -1.3221109095   -1.4049729731
 H   -0.1160657362   -0.2060769885   -2.1092115144
 H    1.9414511420    0.6929114052   -0.4454275484
 H   -0.5517134278   -0.2663579841    2.8759022578
 H    1.1651357963    0.1009245611    3.1564664559
 H    0.1517054655    1.2748389690    2.3210462786
 H    0.4448650809   -2.3792524501    1.8925008038
 H    1.3777575081   -2.2376744682    0.4023251875