23

 C   -0.4709758803    1.3018266337   -0.1506960913
 C    0.2091013284   -0.0567824602   -0.1433180186
 O    0.2468113554   -0.5326187378    1.1893959755
 C    0.8155001106   -1.8039988907    1.3238531359
 C    2.3623110341   -1.9680750509    1.2885446760
 C    2.2280123329   -2.9594609095    2.4765979966
 C    0.8003547023   -2.3861447676    2.7557356197
 C    0.7699185705   -1.3266099686    3.8510848870
 O   -0.2442974603   -3.3269807162    2.9188174331
 H    0.0805785324    2.0102461629    0.4740952784
 H   -0.5183970460    1.7002469116   -1.1686249442
 H   -1.4892989162    1.2220119077    0.2402167321
 H   -0.3404804370   -0.7693946681   -0.7810014554
 H    1.2295756636    0.0209754192   -0.5522001238
 H    0.3328312163   -2.5234357343    0.6450441588
 H    2.8132196154   -2.3409763140    0.3672638950
 H    2.8592186846   -1.0381164046    1.5781914258
 H    2.1595574781   -3.9977364525    2.1439767811
 H    2.9635909517   -2.8855059879    3.2812495140
 H    1.5558473318   -0.5794894920    3.7130295732
 H   -0.1927885039   -0.8101446095    3.8517067497
 H    0.9244059134   -1.7966655320    4.8307687649
 H   -0.2808055578   -3.5793262589    3.8475199266