20

 C   -0.3215502348    1.6079567341    0.0820212981
 C   -0.2221311214    0.0817443614    0.0422034751
 C    0.8116704470   -0.4696257475    1.0440865796
 C    0.9148764143   -1.9532520982    1.0450113912
 C    1.8697071016   -2.8613287831    0.7089921209
 C    3.2547538269   -2.6515588762    0.1953853797
 N    1.3650610422   -4.1480828187    0.9189152934
 C    0.1672914633   -3.9547142841    1.3559333751
 O   -0.1932661108   -2.6580537128    1.4654846760
 H    0.6390632904    2.0758325983   -0.1613622945
 H   -1.0614778051    1.9756302033   -0.6352351983
 H   -0.6177431164    1.9601113626    1.0764038395
 H   -1.1991547946   -0.3629481833    0.2622967275
 H    0.0481590819   -0.2514779759   -0.9668750852
 H    1.8014197399   -0.0580409373    0.8177512220
 H    0.5543028829   -0.1188493472    2.0529496165
 H    3.9916031201   -3.1103345667    0.8631916989
 H    3.3805047900   -3.1146822463   -0.7891884658
 H    3.4910208504   -1.5883917169    0.1044353961
 H   -0.5695347379   -4.6894151553    1.6415000041