17

 C   -0.0096785294    1.3436433444    0.1669263605
 O   -0.0707193742   -0.0581338488    0.2505851549
 C   -1.2894258530   -0.5776767200   -0.2481917404
 C   -1.2400069075   -2.0794823919   -0.1684181476
 C   -1.5295515219   -2.7695080758    1.1509078454
 C   -2.5027302941   -2.8735905409    0.0057277645
 O   -3.7068788353   -2.1595433061    0.0474232629
 H    0.9567516565    1.6558475905    0.5709897528
 H   -0.0899553037    1.6979590392   -0.8738827321
 H   -0.8106448035    1.8261593588    0.7507028488
 H   -2.1437350469   -0.1935581271    0.3283895653
 H   -1.4366799081   -0.2563000036   -1.2938890049
 H   -0.4755320851   -2.5308484890   -0.7937899910
 H   -0.9467464757   -3.6397111018    1.4318325418
 H   -1.8163599435   -2.1257701651    1.9761174536
 H   -2.5630050743   -3.8255732197   -0.5218242812
 H   -4.2710203302   -2.5718204629    0.7095697166