18

 C   -0.0791845888    1.5502253354    0.0621101628
 C   -0.0456123275    0.0108174793   -0.0023628368
 C   -1.4566159451   -0.5949245621   -0.0101460153
 O   -2.0756315839   -0.2420346249    1.2344576920
 C   -3.3959710767   -0.5463799151    1.3305104083
 N   -3.8807705148   -0.1240310995    2.5367606074
 O   -4.0431009304   -1.0813114756    0.4625421462
 C    0.6875254957   -0.4624002265   -1.1746472094
 C    1.2708663670   -0.8446584283   -2.1534923690
 H    0.9341964817    1.9556011515    0.1117661011
 H   -0.5665359288    1.9601174051   -0.8276848959
 H   -0.6341794935    1.8746072224    0.9450395638
 H    0.4613212551   -0.3626526855    0.8978381635
 H   -2.0496030533   -0.2062717485   -0.8426644620
 H   -1.4148895706   -1.6838694696   -0.1041175318
 H   -3.2299550609    0.0999557785    3.2700693900
 H   -4.7831205836   -0.4809235802    2.7997072839
 H    1.7950009384   -1.1855085864   -3.0118229890