16

 C   -0.1393603265    1.5242566281   -0.0462576799
 C    0.1166541634    0.0537840165    0.0347887910
 C    0.7744995981   -0.8225902512   -1.0687216725
 C   -0.2957860296   -1.8264020923   -0.8126970030
 C    1.1098316917   -2.1326691645   -0.3549532758
 C    1.1669982416   -1.8662938459    1.1197314893
 O    1.8533256953   -2.3770764768    1.9645800652
 C    0.1370836311   -0.7812777103    1.2727142394
 N   -0.9547175956   -0.9557016157    0.2581690564
 H    0.7881112623    2.0914991200    0.0882537062
 H   -0.5631789523    1.7895854274   -1.0210333196
 H   -0.8487115708    1.8302109834    0.7275822912
 H    1.2485104423   -0.4961690913   -1.9831786498
 H   -0.9009421662   -2.4467473541   -1.4587381844
 H    1.7097360089   -2.8937688270   -0.8320742291
 H   -0.1585588038   -0.4073939564    2.2438903653