18

 O    0.2558811545    1.1627148364    0.4655780491
 C   -0.0098078375   -0.1263488858   -0.0170798136
 C   -1.4989425292   -0.4167039474   -0.0620391066
 C   -2.2858077594   -0.1715425929   -1.3261741470
 C   -1.8910641589   -1.5744349677   -0.9356871541
 C   -0.7605087236   -2.2834226687   -1.6481749050
 O    0.2584833647   -1.3911428455   -2.1299384280
 C    0.6283419563   -0.3247499368   -1.3849916545
 N    1.4792539729    0.5241729023   -1.7853344902
 H    0.9280368065    1.5253250245   -0.1358210769
 H    0.4493191322   -0.8771906004    0.6544085194
 H   -2.0031954803   -0.2764564989    0.8878644061
 H   -3.3300792410    0.1000761095   -1.2239988268
 H   -1.7852369379    0.2998741213   -2.1650195084
 H   -2.6714130625   -2.2472623291   -0.5925267243
 H   -0.2979529792   -3.0254728147   -0.9829777743
 H   -1.1101955972   -2.8070215777   -2.5424899298
 H    1.8408911397    0.2964834317   -2.7107592451