20

 O    0.0735960052    1.3064329738   -0.3556874563
 C    0.0167509902    0.0093646153    0.2213251772
 C   -1.3860823142   -0.5229263645    0.2465608374
 C   -2.4821813889   -0.2320073842    1.2828171558
 C   -3.2160806568   -1.5260585377    0.8006795761
 C   -4.2411951607   -1.1743839969   -0.2796529148
 C   -3.3521121911   -0.4664594052   -1.3343821896
 N   -1.9561975816   -0.8925941670   -1.0703308649
 C   -1.9361876306   -1.8907124863   -0.0067010851
 H   -0.2869282534    1.2141594711   -1.2452240272
 H    0.6621569446   -0.6984979601   -0.3201597254
 H    0.4068988220    0.1103838666    1.2398693004
 H   -2.0881720397   -0.3380628027    2.2970255473
 H   -3.0263518918    0.7159143223    1.2114617226
 H   -3.5611876282   -2.2090840396    1.5760419270
 H   -4.7000344532   -2.0788254242   -0.6942260372
 H   -5.0432718094   -0.5311084168    0.0954108908
 H   -3.6113436342   -0.7555010106   -2.3566603753
 H   -3.4214825405    0.6240697601   -1.2734986224
 H   -1.4604264078   -2.8541835837   -0.1506705065