20

 C   -0.0265875150    1.5220693380   -0.1221088223
 C    0.0140890946    0.0218996530    0.0397380621
 N    1.3489684923   -0.6239802584   -0.0910732404
 C    0.6557472717   -0.6533794089    1.1789824243
 C    1.1753487053   -0.1468045202    2.5428606502
 C   -0.1179585656   -0.7975350171    3.1328290084
 C    0.1861011376   -1.8400222267    2.0273014253
 O    1.4238628412   -2.4317005307    2.4603232913
 C    2.1979818407   -1.2580131074    2.8257028185
 H    0.8559937763    1.9808983205    0.3305377227
 H   -0.0439111673    1.7972428005   -1.1819569995
 H   -0.9207249188    1.9432763183    0.3506630816
 H   -0.8248281106   -0.5072002101   -0.4137537526
 H    1.2804968216   -1.5239848061   -0.5613139182
 H    1.4685172894    0.8841008709    2.7316955102
 H   -0.0850957900   -1.1581111697    4.1631817215
 H   -1.0152943099   -0.2073799411    2.9420520839
 H   -0.5025430066   -2.6148907801    1.6926730549
 H    3.0874337827   -1.1849873208    2.1904906671
 H    2.4998468103   -1.3249578136    3.8768365908