23

 C   -0.2584430880    1.5163349140    0.0429345948
 C   -0.0154592591    0.0108156640    0.0413040931
 C   -1.2745623972   -0.7639881866   -0.3195213377
 O    1.0732315355   -0.3226407084   -0.8725497456
 C    1.9461140709   -0.6871477057    0.2113959750
 C    0.8072572543   -0.5622441946    1.2447751818
 C    1.0363818630    0.2559145984    2.4842668738
 C    0.0947065880    0.1439065588    3.6603427657
 C    1.4901664121   -0.4171041153    3.7588193764
 H    0.6638524599    2.0687390841    0.2408794712
 H   -0.6314895674    1.8299541759   -0.9372364555
 H   -0.9989989336    1.7969884708    0.7991290935
 H   -1.6505524152   -0.4511355941   -1.2993469608
 H   -1.0681590638   -1.8371771358   -0.3613107022
 H   -2.0630265056   -0.5882976992    0.4208349708
 H    2.3856592757   -1.6817731551    0.0728144778
 H    2.7599147629    0.0397240905    0.3481076110
 H    0.4183095370   -1.5450294312    1.5312432357
 H    1.4527805935    1.2439737487    2.3091801453
 H   -0.1405751147    1.0425484577    4.2196187600
 H   -0.7288238845   -0.5587031687    3.5844586009
 H    1.6048866860   -1.4961402131    3.7489828386
 H    2.2101229104    0.0990105651    4.3840075666