19

 C    0.0189553259    1.4944851739   -0.0963716991
 C   -0.0229413411    0.0068828698    0.0171796791
 O    0.8481989505   -0.7330224303   -0.8497176752
 C   -0.0493701915   -1.8814339898   -0.7582637956
 C    0.5183104767   -2.7829826004    0.3262471971
 O    0.5126991067   -1.9525365765    1.4917213324
 C   -0.3457026995   -0.8531766386    1.2413209348
 C   -0.9344745295   -0.2778124308    2.4961667755
 C   -1.1221138051   -1.0405109813   -0.0371007241
 H    1.0169569315    1.8639654001    0.1642843390
 H   -0.2044460925    1.8106112204   -1.1204554865
 H   -0.7030813777    1.9631807960    0.5769592024
 H   -0.2540362390   -2.3348757119   -1.7289380516
 H   -0.0987326996   -3.6821030770    0.4817112715
 H    1.5481661709   -3.0826383602    0.1098610522
 H   -0.1440974121    0.0816705985    3.1626201424
 H   -1.6017048592    0.5586267348    2.2730858602
 H   -1.5082885588   -1.0414897347    3.0306692225
 H   -2.1931145265   -1.0093035019   -0.1912251069