18

 C    0.3414682195    1.4590249238    0.0785853040
 C    0.1121680505   -0.0520672613    0.0026723492
 C   -1.3811886522   -0.4253788992    0.0075393449
 N   -1.5757533746   -1.8535787030   -0.1680185126
 C   -1.6750859675   -2.6029415982    0.8657658214
 N   -1.6789303441   -2.2880223923    2.1987822091
 C   -1.8569900453   -4.0668082258    0.5930206371
 O   -1.9179812184   -4.8990068185    1.4665459610
 H    1.4091278788    1.6978888980    0.0645903688
 H   -0.1256457652    1.9725170731   -0.7688107957
 H   -0.0821659094    1.8839074388    0.9956245101
 H    0.5641440105   -0.4601164077   -0.9080426144
 H    0.6138940482   -0.5508883461    0.8418835172
 H   -1.8571782397   -0.0382949113    0.9245823730
 H   -1.8689528918    0.0820610419   -0.8333741154
 H   -1.2653621440   -1.4305302907    2.5193454073
 H   -1.6293622805   -3.0817588471    2.8208063173
 H   -1.9209354747   -4.3027705942   -0.4851871823