22

 C    0.1870248491    1.5461142790    0.0116195586
 C    0.0789562926    0.0331711048    0.0539388357
 N    0.9841589674   -0.7054411503   -0.8711066417
 C    0.3993031792   -1.2904391857   -2.0565681765
 C    1.4386751771   -1.6125946056    0.2045002478
 C    2.7227305496   -1.1012516715    0.8686634964
 O    1.9637993173   -0.1801247662    1.6951613251
 C    0.6991373472   -0.7386175380    1.2526232939
 C   -0.1694131529   -1.1792750564    2.3999613928
 H    1.2038776925    1.8541002321    0.2647914795
 H   -0.0567896964    1.9238554500   -0.9868006616
 H   -0.5070433356    2.0066285314    0.7234521758
 H   -0.9697637994   -0.2855686260   -0.0779929056
 H    0.0452441615   -0.4961462818   -2.7224060656
 H    1.1544090961   -1.8666694984   -2.6019850193
 H   -0.4573629004   -1.9606756977   -1.8474695882
 H    1.2861735596   -2.6831623881    0.0462409732
 H    3.2532380163   -1.8368945676    1.4880376104
 H    3.4238224799   -0.5878605857    0.2034659805
 H   -0.4624042656   -0.3118966846    3.0029920428
 H   -1.0800939542   -1.6677415748    2.0399591711
 H    0.3681662788   -1.8740260887    3.0519943051