20

 C    0.2254017095    1.1796613113    0.1758653390
 O   -0.3347180639   -0.0030926762   -0.3650831409
 C    0.4854607635   -0.6141452989   -1.3088027703
 C    1.4548225891   -1.6925922305   -0.8605576503
 C    1.6475658762   -2.0245039293    0.6041887978
 C    0.1798121602   -2.0525272318   -1.6118373376
 C   -0.9821347198   -2.7450510316   -0.9115307413
 C   -2.1977439151   -2.7243784734   -1.7266348052
 N   -3.1485707769   -2.7146756743   -2.3831212782
 H    1.1666455537    0.9804390097    0.7061294460
 H    0.4181452881    1.9242585753   -0.6101609463
 H   -0.5049041542    1.5871029349    0.8782318745
 H    0.7754634979    0.0388670699   -2.1329689303
 H    2.3590466316   -1.7794338630   -1.4577919904
 H    0.7801416520   -1.7366213492    1.2024705579
 H    1.8226756893   -3.0958494117    0.7512505847
 H    2.5161313291   -1.4933559763    1.0069920368
 H    0.3065930660   -2.3591880730   -2.6452469105
 H   -0.7354403667   -3.7907418006   -0.6933874168
 H   -1.2028098694   -2.2537667810    0.0390057114