18

 O    0.0084636239   -0.0755274000    0.0452920894
 C   -0.0150682200    1.1377388128    0.0414942459
 C   -1.2956954648    1.9665729040    0.0782354482
 C   -1.1434021556    3.3146931227    0.7710015856
 C   -2.3911673876    4.1261214966    1.0291032339
 C   -1.6820869813    3.4792753889    2.1871192891
 C    0.1231636267    4.0014384703    0.4144840938
 C    1.1805437467    3.2854201526    0.0235627282
 N    1.1355065990    1.8893827875   -0.0719668927
 H   -1.5822552054    2.1259250308   -0.9718116094
 H   -2.0745977723    1.3511690737    0.5328202587
 H   -2.3226647030    5.2038430343    0.9219512744
 H   -3.3399075595    3.7080242577    0.7086412019
 H   -2.1405668106    2.6122156662    2.6513987231
 H   -1.1254680689    4.1116906527    2.8696229733
 H    0.1958475010    5.0797705796    0.4904310537
 H    2.1340896005    3.7285197000   -0.2364511539
 H    1.9881943111    1.3623733596   -0.1834374432