19

 C   -0.0200957221    1.5271298431    0.0364481632
 C    1.5196753769    1.4873874248   -0.0045983901
 C    1.3425396431    0.0227258216    0.5596185396
 C    1.9039030561   -0.8427054000   -0.5680757533
 C    2.9428954222    0.1033649446   -1.2028147453
 N    2.0657289209    1.2898550965   -1.3940515173
 C    0.9814341498    0.6572413903   -2.1957557032
 C    0.5487568909   -0.5039773124   -1.2951911407
 N   -0.0705189335    0.0243765521    0.0040515480
 H   -0.3770218133    1.8452978923    1.0208395466
 H   -0.5799747556    2.0769402246   -0.7238102472
 H    2.1117961138    2.2306861281    0.5344559622
 H    1.4898746593   -0.1806666939    1.6223654681
 H    2.1653284970   -1.8808082049   -0.3744793220
 H    3.7655732404    0.3338006235   -0.5182570041
 H    3.3592947455   -0.2272820001   -2.1578915804
 H    0.1862134506    1.3615078718   -2.4400059063
 H    1.4061461276    0.3027452275   -3.1400325744
 H   -0.0414901399   -1.2955666693   -1.7589091134