15

 C   -0.1562119809    1.6452323391    0.0348662436
 C   -0.0117114150    0.1380772060    0.0221247124
 O   -1.2823453365   -0.4039899232   -0.1687485070
 C    1.1483101009   -0.5965809442   -0.7430307216
 C    2.1694326764   -0.1521459720    0.3228182746
 C    0.8965549098   -0.6360574184    1.0451237576
 O    0.8561900360   -1.7923022231    0.1017050589
 H    0.7897123006    2.1673834970    0.1794168463
 H   -0.5959407726    1.9750603950   -0.9109981853
 H   -0.8420732378    1.9368793804    0.8356778472
 H   -1.1405207055   -1.3628643780   -0.1697895425
 H    1.2824942290   -0.7686221983   -1.8119451531
 H    3.0172109270   -0.8284765438    0.4272540580
 H    2.4580091548    0.8971505657    0.3866205711
 H    0.7315266138   -0.8549554121    2.1010787398