18

 C    0.2327528208    0.6628278917   -0.5065194369
 C   -0.0877487184   -0.5675272716    0.3031876336
 O    0.7757929545   -1.3212727145    0.7064439114
 C   -1.5777254486   -0.8721314081    0.5255598469
 O   -2.0156197772   -1.6317034368   -0.5940259372
 C   -2.3516682024   -2.9929413706   -0.3343615051
 C   -1.1663302302   -3.9138951992   -0.0415708795
 O   -0.6038511647   -3.7220333015    1.2389592742
 H    1.3031249305    0.7294123290   -0.7021451577
 H   -0.3261825895    0.6271969953   -1.4485931359
 H   -0.1062807698    1.5583109421    0.0278719845
 H   -1.7003144405   -1.4189684015    1.4645044553
 H   -2.1614517784    0.0568161756    0.5594184196
 H   -3.0650110349   -3.0515220970    0.5008576135
 H   -2.8567418189   -3.3325446840   -1.2457174985
 H   -1.5367731843   -4.9468797263   -0.0825395204
 H   -0.4181887574   -3.8022052786   -0.8404509930
 H    0.0260654194   -2.9852401040    1.1832602653