25

 C   -0.9139365495    1.0758204066   -0.0001357195
 C    0.1284891410   -0.0410519587    0.0088302579
 C    1.2318640811    0.0917134997   -1.0649950061
 C    2.3984749864   -0.6694514503   -0.4699261631
 C    3.5632151597   -1.0541879813   -1.3286780629
 C    2.2189968951   -0.8804192555    0.8420045922
 C    3.1355651688   -1.5769998120    1.8013428423
 C    0.9186765763   -0.2585031440    1.3349813833
 C    1.1790659556    1.0211124066    2.1526457489
 H   -0.4595822324    2.0577781162    0.1671045547
 H   -1.4298800097    1.1131103664   -0.9658242584
 H   -1.6749632824    0.9233805625    0.7732447235
 H   -0.3897084184   -0.9874739269   -0.1918951478
 H    0.9159119603   -0.3072284345   -2.0375500784
 H    1.5023314285    1.1444877116   -1.2444750672
 H    4.0235042077   -0.1676654216   -1.7851644357
 H    4.3417285029   -1.5845057335   -0.7749272608
 H    3.2442818542   -1.6965807372   -2.1600214684
 H    4.0263051765   -1.9801356367    1.3135674847
 H    3.4730030467   -0.9020954269    2.5983981526
 H    2.6211804294   -2.4093878320    2.2995319836
 H    0.3742115864   -0.9566111617    1.9864749693
 H    1.7051522639    1.7756974588    1.5579637963
 H    0.2452339556    1.4635949534    2.5133376782
 H    1.7974559463    0.8035958608    3.0293579408