16

 O   -0.0280897307   -0.0029696777   -0.0647836037
 C   -0.0339695123    1.1899328817    0.0162163010
 C   -1.1141155883    2.2797645771    0.0171894342
 C   -1.4540480604    2.5999099829    1.4917401843
 C   -0.2559382795    3.4358625887    1.9070503885
 C    1.1311158400    3.0972920953    1.3575112219
 C    0.2704869744    4.1760559113    0.7277775886
 N   -0.0456098865    3.2836203880   -0.4360349890
 C    1.0147216968    2.2964973467    0.0457003778
 H   -1.9730744996    2.1742801288   -0.6458916562
 H   -2.3761217283    3.1864436370    1.5716882410
 H   -1.5850828382    1.6869541886    2.0807823888
 H   -0.2515953408    3.9286268367    2.8733001143
 H    2.0191139603    3.1791983610    1.9714922571
 H    0.3907982767    5.2450991746    0.6108802551
 H    1.9334770265    2.2058190393   -0.5382194738