20

 C   -0.1546615231    1.4053664159    0.3669046252
 N   -0.2438867124   -0.0476508530    0.3447563029
 C    0.6280861019   -0.7252198589    0.9266436814
 C    0.8950325527   -2.1992382551    1.1219495760
 C    2.1556619995   -1.7153813487    1.8691500570
 O    1.7552116452   -0.3175675573    1.6442638331
 C    2.2620489378   -2.0057394363    3.3624880943
 C    3.4462299956   -1.2747196003    3.9988155285
 O    1.0405807567   -1.6998172537    4.0173776311
 H    0.7511173478    1.7931049116    0.8480715950
 H   -0.1946454460    1.7804500904   -0.6612984795
 H   -1.0295251097    1.8112208586    0.8874857344
 H    0.1636806921   -2.7008267379    1.7571725623
 H    1.0585731966   -2.7686200761    0.2062063109
 H    3.1021479511   -1.9163315515    1.3573656491
 H    2.3918116824   -3.0892696469    3.4805221890
 H    3.3615035311   -0.1953152494    3.8332395080
 H    3.4654651450   -1.4624046737    5.0750129218
 H    4.3962069134   -1.6088882703    3.5686609743
 H    0.8779320125   -0.7597500974    3.8717248153