17

 C    0.2977655186    1.4596563292    0.0302728923
 C   -0.0387926840   -0.0433745878   -0.0223465376
 C   -1.5543172650   -0.3029014825   -0.0642769525
 C   -2.1947258967   -0.0352071425    1.2772631970
 O   -3.0895148409    0.7438652297    1.4788358042
 C    0.6588521784   -0.7273418845   -1.1992963712
 O    0.0677757503   -1.3571724379   -2.0485556774
 C    2.1070665131   -0.5946363197   -1.2361352156
 C    3.3070946649   -0.5005089210   -1.2552812485
 H    1.3754222969    1.6226558813    0.1014922284
 H   -0.0702296100    1.9699358114   -0.8655686307
 H   -0.1788673130    1.9239832777    0.8979985703
 H    0.3841621987   -0.5120157916    0.8804134708
 H   -2.0414748157    0.3108074199   -0.8262934270
 H   -1.7263471815   -1.3555197571   -0.3217825983
 H   -1.7618811932   -0.6363454574    2.1135768141
 H    4.3672236389   -0.4248563973   -1.2884017284