17

 C   -0.2236897186    1.5349208811   -0.0194932637
 C    0.0937187598    0.0351501159    0.0694202608
 C    0.7711359088   -0.4947615617   -1.1628031630
 C    0.0401088945   -0.9401197909   -2.4196221740
 C    0.9644087176   -1.8877674845   -1.7180854063
 O    2.3201718642   -1.6418793889   -2.1007272974
 C    2.2476351016   -0.3112319580   -1.5210771054
 H    0.6884975610    2.1256359952   -0.1566812410
 H   -0.8852231236    1.7457044917   -0.8658709348
 H   -0.7148746202    1.8890196309    0.8919641419
 H    0.7287247266   -0.1540998566    0.9451551952
 H   -0.8339559643   -0.5256284404    0.2381376950
 H   -1.0206445158   -1.1265265490   -2.2763531747
 H    0.3142630082   -0.5593428462   -3.4002442873
 H    0.7093557423   -2.8758552683   -1.3510556215
 H    2.5127751923    0.4729841103   -2.2405238856
 H    2.8997239855   -0.2414231807   -0.6413414882