20

 C    0.0088187287    1.5326292942    0.0216416499
 C   -0.0161504572    0.0256733452    0.0931923232
 C   -1.3334926253   -0.6971245958   -0.2286538482
 C   -1.3384348916   -1.9936300526    0.5836417038
 C   -2.6374266620   -2.6649111056    0.9374900434
 O   -0.2529198925   -2.8830927423    0.2445272458
 C   -0.1066278408   -2.0282690075    1.3936186785
 C    0.7181630040   -0.7858629355    1.1166603274
 N    1.2428408789   -0.6503132191   -0.2495597439
 H    0.9972994660    1.9063764797    0.2993034601
 H   -0.2042707867    1.8792109021   -0.9964533732
 H   -0.7373954853    1.9761656218    0.6903382973
 H   -2.1800841854   -0.0744053058    0.0836448813
 H   -1.4552731659   -0.8904569197   -1.3010452747
 H   -3.1761677929   -2.9705686686    0.0337253435
 H   -2.4525765813   -3.5577498150    1.5399412285
 H   -3.2861751898   -1.9867297462    1.5015083610
 H   -0.0282736088   -2.5414747109    2.3479922931
 H    1.3186245114   -0.3622819497    1.9155367215
 H    1.0587576663   -1.5242135985   -0.7414157984