21

 C    0.0239472615    1.5663039386    0.3793993219
 C   -0.0360543820    0.1132975454   -0.0985312821
 N   -1.3779813088   -0.4498241250   -0.0530101835
 C   -2.0524025599   -0.7874640011    1.1044233816
 C   -3.2689208730   -1.2629391692    0.7013296770
 N   -3.3660477053   -1.2308026054   -0.6681360616
 C   -2.2204886442   -0.7392433916   -1.0998654610
 C   -1.8972652243   -0.5143330250   -2.5446414045
 C   -2.0841489048    0.9405970333   -3.0119925610
 H    1.0513079740    1.9390620041    0.3232041919
 H   -0.6118786872    2.2084225526   -0.2364640604
 H   -0.3134934640    1.6527166754    1.4161694980
 H    0.3252942448    0.0367293846   -1.1264491981
 H    0.6215353368   -0.5118806573    0.5159751560
 H   -1.5989516560   -0.6682211317    2.0750704922
 H   -4.0753739349   -1.6333353805    1.3161704399
 H   -0.8768288639   -0.8477091041   -2.7711107408
 H   -2.5711573044   -1.1646041197   -3.1082789302
 H   -1.3974642054    1.6231345840   -2.5008999913
 H   -1.9004999074    1.0274936783   -4.0874829747
 H   -3.1045308115    1.2780123743   -2.8096814094