18

 N    0.1193189287    1.4269854909   -0.3026190202
 C    0.0280806861    0.0379516421   -0.1071285125
 C   -1.0255334835   -0.8023843314   -0.4221291143
 N   -0.6165828686   -2.0719135637   -0.1269050508
 N    0.6323628635   -2.1035534254    0.3585596464
 C    1.0320665481   -0.8308108448    0.3726932973
 C   -1.3308840401   -3.3056536259   -0.2688760535
 C   -2.8147176696   -3.3811199048   -0.0318397101
 C   -2.2578149300   -3.5414405395   -1.4303137586
 H    0.7598721392    1.8619411718    0.3489082582
 H   -0.7767558643    1.8921946111   -0.2350088702
 H   -2.0025920119   -0.5917794389   -0.8255812060
 H    2.0224181687   -0.5797955372    0.7241828639
 H   -0.7062658824   -4.1197857913    0.0730756820
 H   -3.2038810431   -4.2527441991    0.4823180054
 H   -3.3312972230   -2.4567979892    0.2019075306
 H   -2.4021243661   -2.7230214073   -2.1269481883
 H   -2.2607469718   -4.5242690573   -1.8880611592