21

 C   -0.3749057277    1.4697679941    0.0107487814
 C    0.0014815123    0.0022715643    0.0692582608
 O    0.7693381632   -0.3379400128   -1.0872905635
 C    1.5431033042   -1.5052971833   -0.8101049344
 C    1.3644681090   -1.8110351197    0.6907096629
 O    2.5365037163   -2.2465396559    1.3577534384
 C    0.8679138907   -0.4620484880    1.2577619736
 C    2.0242078930    0.4864667570    1.5799951968
 O    0.0185654509   -0.6299218250    2.3836094700
 H    0.5111111604    2.1043384049   -0.0692889482
 H   -1.0090772998    1.6599553264   -0.8594817316
 H   -0.9316447794    1.7443256245    0.9116484883
 H   -0.9226318876   -0.5998054633    0.1019504086
 H    1.2122012437   -2.3357345574   -1.4488413376
 H    2.5995912807   -1.3025668622   -1.0261513715
 H    0.5503935976   -2.5330953565    0.8422448263
 H    2.7114371975   -3.1574082484    1.1038961054
 H    2.5988287847    0.7335780818    0.6829500661
 H    1.6353789700    1.4108834409    2.0133779865
 H    2.7074766719    0.0199110099    2.2946237685
 H    0.5683352884   -0.9266570612    3.1168739331