16

 C   -0.0668959329    1.5056766218   -0.3733208075
 C    0.0431294703    0.0491018549    0.0225754249
 O    1.0811642042   -0.4909687327    0.3101264644
 C   -1.2781826752   -0.7373582841    0.0616180992
 O   -1.0844278616   -2.1484505173    0.1580858456
 C   -1.4560793326   -2.1698019166    1.5468566521
 C   -2.0075575757   -0.7209260511    1.4514217251
 C   -1.6200360013    0.2526019778    2.4549723145
 N   -1.3134839189    1.0361103848    3.2479974584
 H    0.9165662155    1.9737363613   -0.3260964755
 H   -0.4717205845    1.5948553434   -1.3879787585
 H   -0.7540397564    2.0328224814    0.2984783857
 H   -1.9147432127   -0.4624428449   -0.7876442831
 H   -2.1920230286   -2.9465494864    1.7714011153
 H   -0.5854418948   -2.2677414877    2.2031132052
 H   -3.0921745347   -0.7015459147    1.3284049141