19

 C    0.2188355879    1.4963061554    0.2223985373
 C   -0.2817742905    0.1128001286   -0.2315725375
 C    0.4299983581   -0.3961562840   -1.4004357255
 C    1.0352136594   -0.7711801443   -2.3732426380
 C    1.7582233389   -1.2880418771   -3.5273951693
 C    2.0261261575   -2.8210375286   -3.3826093685
 N    0.8415800182   -3.6575768544   -3.2101349915
 C    2.7933632137   -3.2887153709   -4.5467376861
 N    3.3927446085   -3.6161405901   -5.4783702029
 H    1.2792097540    1.4590058862    0.4857480650
 H    0.0944501580    2.2350772051   -0.5737692642
 H   -0.3429533388    1.8342992606    1.0979180061
 H   -0.1800875190   -0.6027529410    0.5943410897
 H   -1.3552691742    0.1651032011   -0.4537264789
 H    1.1874217834   -1.1192575543   -4.4492575301
 H    2.7146199230   -0.7654752543   -3.6517080133
 H    2.6577548411   -2.9622609854   -2.4972079808
 H    0.3159479166   -3.2969640571   -2.4178940830
 H    0.2385540442   -3.5743135558   -4.0244948486