19

 C   -0.0642569208    1.5374959332    0.0294317772
 C    0.0098021347    0.0069229140    0.0209630008
 C    0.8796420861   -0.5118151189   -1.1627508962
 C    2.2317060612   -0.7335103884   -0.5418537824
 C    2.1644041767   -0.7363329721    0.7964583838
 C    3.2822043240   -0.9298587573    1.7119491446
 O    3.1683440255   -0.9039730335    2.9245228389
 C    0.7340072090   -0.5519650682    1.2803955763
 O    0.6039621759    0.3084221147    2.3911831840
 H    0.9353851584    1.9832390818    0.0566383689
 H   -0.5724620585    1.8943613618   -0.8723678951
 H   -0.6077635626    1.8971910956    0.9043966246
 H   -1.0054323529   -0.3949500577   -0.0410371739
 H    0.4968603579   -1.4595978790   -1.5680116492
 H    0.9111071899    0.1885883915   -2.0052415569
 H    3.1375200032   -0.8927327639   -1.1198659441
 H    4.2734475901   -1.0999234371    1.2401576979
 H    0.3227477444   -1.5473190165    1.5271545174
 H    1.2601200177    0.0098419102    3.0366917935