15

 C   -0.0843461458    1.4423603844   -0.0178012611
 N   -0.1396936266   -0.0059392907   -0.0120574278
 C    0.5228332498   -0.6181769413   -0.9144269741
 N    1.3190387836   -0.0709164666   -1.8970831223
 C    0.5097925853   -2.1019511362   -0.9437272119
 N   -0.0588392459   -2.8531097427   -0.0345154031
 O    0.1839815011   -4.1511717333   -0.4940825497
 C    0.8732504140   -4.0313639513   -1.6265759854
 N    1.1139008980   -2.8082174771   -1.9698620986
 H    0.9455521773    1.8213950754    0.0775806029
 H   -0.5071359685    1.8751364174   -0.9406241835
 H   -0.6664881017    1.8321677746    0.8201964184
 H    1.1718079191    0.8944098605   -2.1388959975
 H    1.6036963673   -0.6835851847   -2.6455777740
 H    1.1560826029   -4.9414620784   -2.1346972624