22

 C   -0.1952916126    0.5058879028   -0.6464168783
 C   -0.0210144933   -0.8610248163    0.0247645095
 C    0.9514979597   -0.8675629243    1.2195186404
 C    0.9807962825   -2.2223979495    1.9576842957
 C   -0.3156289132   -2.5830054983    2.6899372058
 C    2.3567037756   -0.5132853244    0.7738201351
 C    2.9354673740    0.8293129497    0.9117336338
 O    3.3016959589   -0.2207076391    1.8075914288
 H    0.7437695158    0.8746128908   -1.0699146375
 H   -0.9263622722    0.4519525219   -1.4590958479
 H   -0.5515952360    1.2544899964    0.0702542159
 H   -1.0002372940   -1.2167308695    0.3623782214
 H    0.3249280786   -1.5940159158   -0.7176450863
 H    0.6322729819   -0.0980593159    1.9374735601
 H    1.2330582472   -3.0160785665    1.2405551486
 H    1.8025888968   -2.1892952665    2.6814696913
 H   -1.1587621950   -2.7125285334    2.0045020293
 H   -0.1993323253   -3.5200862848    3.2433204522
 H   -0.5899848802   -1.8050285251    3.4113870788
 H    2.7606884500   -1.1538949797   -0.0151127432
 H    3.7193517126    1.1602611395    0.2312269610
 H    2.3354959282    1.6269875179    1.3483094955