18

 C    0.0468488322    1.4460161642    0.1660971615
 C    0.0503993472   -0.0786218621    0.0311076928
 C    0.7075981779   -0.5463428291   -1.2505242455
 O    2.0858311958   -0.1832414591   -1.2723945359
 C    2.7328495582   -1.1656327147   -2.0456667275
 C    3.1000711106   -2.4387007819   -1.3152766023
 C    1.8053362609   -2.3360570106   -2.0909605490
 O    0.6725012754   -1.9669883159   -1.3408016402
 H    1.0675011956    1.8376937947    0.1659997641
 H   -0.4942921798    1.9180907683   -0.6613309003
 H   -0.4377425523    1.7519638303    1.0974425885
 H    0.5844821423   -0.5437349537    0.8662865866
 H   -0.9725445592   -0.4708248252    0.0394137434
 H    0.2088948780   -0.1141155981   -2.1379954602
 H    3.3071328242   -0.7936105074   -2.8870543593
 H    3.8924951606   -3.0499219556   -1.7361280760
 H    3.0316343912   -2.4269032278   -0.2338110914
 H    1.6062388812   -2.9387217463   -2.9702874292