17

 O    0.4274407041    0.9742662208   -0.7567867229
 C    0.0231674876   -0.1331817577    0.0321692144
 C    0.4455848428   -0.0394385065    1.5206509634
 C   -0.5544509148   -0.9285281644    2.2883056644
 C   -1.8341256801   -0.8776607951    1.4567761750
 C   -2.3045045770    0.4783815856    0.9965513831
 C   -1.4764188932   -0.3900360893    0.0726754100
 H   -0.1085337886    1.7279935395   -0.4859291250
 H    0.5128275774   -0.9950949812   -0.4365202300
 H    1.4866071583   -0.3338141747    1.6710484021
 H    0.3674893707    1.0052631878    1.8425902814
 H   -0.1933551662   -1.9630042456    2.3280117416
 H   -0.7003083851   -0.6008702603    3.3236056201
 H   -2.5771555475   -1.6542778196    1.6012074772
 H   -3.3558346702    0.5826213957    0.7522699016
 H   -1.8719034318    1.3700056387    1.4414386620
 H   -1.9503690563   -0.7915794936   -0.8158436684