19

 C   -0.0013950651    1.3656194608    0.1290030834
 N    0.0588286040   -0.0828238219    0.0931670777
 C    0.5450676172   -0.6059389565   -0.9379713412
 O    0.6163180555   -1.9723337823   -1.0030438703
 C    1.1551807416   -2.5210763670   -2.1498450458
 O    1.5590580369   -1.8588150360   -3.0799862026
 N    1.1624585267   -3.8767293569   -2.0761045443
 C    1.6957039514   -4.6292089487   -3.1984614452
 C    0.6719162185   -4.6538290803   -0.9499015869
 H    0.5599305338    1.7301261159    0.9964090698
 H    0.3950854435    1.8544408590   -0.7743495665
 H   -1.0412589417    1.6815928410    0.2674398567
 H    0.9352879829   -0.1063435047   -1.8269326543
 H    2.0242419614   -3.9309972487   -3.9657427333
 H    2.5446232075   -5.2455594093   -2.8777025472
 H    0.9277818892   -5.2935787899   -3.6136254689
 H   -0.1364520947   -5.3212304645   -1.2742655315
 H    1.4781548442   -5.2743092527   -0.5387471369
 H    0.2975872974   -3.9969015671   -0.1700867828