17

 C   -0.0459748403    1.5861105423    0.0228247426
 C    0.0301924756    0.0772185985   -0.0406071538
 C    0.7442252308   -0.6330939397   -1.2235763558
 N    2.0770177197    0.0014476584   -1.4904643478
 C    2.7030382284   -0.8013169859   -0.3677874457
 C    1.3758865872   -1.5835138197   -0.1747982008
 N    0.9756769007   -0.6301526400    0.9398672153
 C    2.2992968961   -0.0320792166    0.9030238090
 O    2.7905447578    0.7881194639    1.6143452191
 H    0.9079317154    2.0397321609   -0.2541593723
 H   -0.8132726581    1.9453431198   -0.6710781957
 H   -0.3147457062    1.9153879866    1.0307149685
 H   -0.9563664697   -0.3728480443    0.1129592343
 H    0.1700973592   -0.9053869570   -2.1102438954
 H    2.4392331621   -0.3513359686   -2.3709104054
 H    3.7122632390   -1.1758662390   -0.5374572295
 H    1.2348303524   -2.6521208996   -0.0302947267