17

 C    0.0011859612   -1.2470419266    0.0240702512
 C   -0.0206948248   -0.0464484869    0.0810243067
 C   -0.0075059028    1.4094605069    0.1406547720
 C    1.3969134378    2.0083751480   -0.1308600514
 C    1.4094324842    3.5046653395   -0.0483491823
 C    1.5555651652    4.3854453289   -1.0752576741
 O    1.5000554032    5.6700157021   -0.6317648115
 C    1.3118853071    5.6109341677    0.7121775667
 C    1.2478191346    4.3208944681    1.1276818579
 H    0.0050989148   -2.3076623435   -0.0226762076
 H   -0.7172831712    1.8195121237   -0.5880648140
 H   -0.3592991897    1.7417793334    1.1251748688
 H    2.1015526528    1.5803746796    0.5910039281
 H    1.7316443481    1.6855244017   -1.1214847613
 H    1.7093538811    4.2608733788   -2.1348940814
 H    1.2497044910    6.5602616466    1.2180792445
 H    1.1114552375    3.9803617519    2.1428782277