18

 C   -0.0063406567    1.4894201587   -0.0213229612
 O    1.4051410516    1.7786784449   -0.0368196705
 C    1.9833766573    0.4791026331    0.0094434395
 C    1.1758359900   -0.4004812437   -0.9946787460
 C    1.5213049911   -1.8417030268   -0.6433346993
 N    2.8018448163   -1.9941428766    0.0984371107
 C    1.5262960671   -1.7868393827    0.8354886875
 C    1.1828424722   -0.3234598824    1.0813988491
 C    0.0302461708   -0.0304267321    0.0349379258
 H   -0.4781398182    1.9510229798    0.8550380036
 H   -0.4841539803    1.8849417212   -0.9262740776
 H    3.0658976266    0.5459022362    0.0033119540
 H    1.1036027468   -0.1068551888   -2.0422854793
 H    1.1249702146   -2.6744550566   -1.2128048447
 H    3.0332836631   -2.9857971916    0.1344460612
 H    1.1340168605   -2.5750067722    1.4677566110
 H    1.1175957336    0.0470009231    2.1048320240
 H   -0.9149259565   -0.5745992735    0.0583159521