15

 O    0.0200831711    0.0127000074   -0.3954403070
 C    0.0302667718    1.1936399591   -0.1138711391
 N    1.0975820518    1.8705971660    0.3907084338
 C    2.5446769998    1.5560540344    0.1197181673
 C    2.4735573595    2.6594823754   -0.9955438099
 C    1.5245923609    3.2844681447    0.0846679372
 C    2.5199474934    3.5066665945    1.2370952157
 C    3.1981810720    2.3564930620    1.2591017576
 H   -0.8694726693    1.8415610623   -0.1730225681
 H    2.8055569166    0.5188175252   -0.0683507736
 H    3.3919918079    3.1983122817   -1.2370265089
 H    1.9443095446    2.3234752342   -1.8916015721
 H    0.7544358289    4.0222895571   -0.1336128146
 H    2.6039564355    4.3898277416    1.8522526122
 H    4.0003892353    2.0222999842    1.8995381796