22

 C    0.3159455583    1.4839975435   -0.2482606468
 C   -0.1173645763    0.0917747205    0.2252831325
 C    0.7194707342   -0.5590107163    1.3113082248
 C    0.0601662181   -1.4997397197    2.2602469600
 N    0.5305618991   -0.1882078151    2.7487973425
 C    1.9704202748   -0.1643282985    3.1819438788
 C    2.7156619024   -1.3346677666    2.4776588986
 C    2.2612436810   -0.5631086057    1.2113452533
 C    2.5701524747    0.7293116343    2.0596123306
 H    1.3458158378    1.4899148194   -0.6187080318
 H   -0.3294370291    1.8212513924   -1.0654395250
 H    0.2414222976    2.2189414360    0.5584084058
 H   -1.1521321363    0.1424349830    0.5818323585
 H   -0.1269317847   -0.5918757186   -0.6354361549
 H   -1.0240442381   -1.5693538532    2.2180261857
 H    0.5344475614   -2.4133585212    2.5962825283
 H    2.0808955949    0.0535758837    4.2437772412
 H    3.7934081919   -1.2547520586    2.6289212774
 H    2.4150964881   -2.3710518919    2.6294889819
 H    2.7043066127   -0.7416630948    0.2314018416
 H    2.0295171820    1.6460483290    1.8269445236
 H    3.6388200353    0.9231715086    2.1737928034