15

 O    0.1706321883    1.3847497644    0.2170087685
 C   -0.0743803979    0.0321266286   -0.0353223402
 C   -1.5127154796   -0.3046224592   -0.4429682758
 O   -1.3867317312   -1.5499011421   -1.1467537301
 C   -0.2289322784   -1.4969561951   -1.9417173502
 C   -0.4951302084   -1.0340681429   -3.3809910914
 O   -1.5631819795   -0.6471702687   -3.7633579534
 C    0.6948249218   -0.4847271808   -1.2512458171
 O    1.7652743072   -0.0779862301   -1.6202064938
 H    1.0592004333    1.5741797073   -0.1163996655
 H    0.2100587020   -0.6063051676    0.8205048721
 H   -2.1880716830   -0.4728450403    0.3958650362
 H   -1.9182343904    0.4837818139   -1.0895288008
 H    0.2455467547   -2.4863945806   -1.9878490238
 H    0.4027272710   -1.0754764266   -4.0343234745