17

 C   -0.0651954716    1.4869778100    0.0383007389
 C   -0.0542958945   -0.0023905654   -0.0403794983
 C    0.0279939023   -0.7679272109   -1.1414965734
 C    0.0211126353   -2.2115581968   -0.7917523135
 O   -0.0103651508   -3.1593632252   -1.5397125822
 C    0.0086910608   -2.2636542700    0.7347355733
 O    1.1541661331   -1.6185764982    1.3290868925
 C   -0.0807363239   -0.8779357901    1.2042891175
 C   -0.7362265067   -0.4277863427    2.4790687842
 H    0.7914164010    1.8496334804    0.6203431182
 H   -0.0262178138    1.9420660055   -0.9537165440
 H   -0.9646929568    1.8493008538    0.5506859407
 H    0.1191573902   -0.4200234107   -2.1630460083
 H   -0.3869912838   -3.1282839145    1.2586909303
 H   -0.2532469256    0.4731027878    2.8719982340
 H   -1.7944322498   -0.1993116291    2.3144529364
 H   -0.6608700351   -1.2112390641    3.2361292937