13

 N   -0.0859507156    0.9739340617   -0.6488982326
 C   -0.0099345494   -0.0997381354   -0.0161743822
 O    1.1321989039   -0.7707650237    0.3727559686
 C    0.7717396879   -1.9305981779    1.0674421013
 C   -0.7144873904   -1.9465720647    1.0725991288
 O   -1.1152819122   -0.7954297030    0.3915438405
 C    0.0385353103   -3.0130709732    0.2697043895
 C    0.0445486504   -3.0210938108   -1.1627356447
 N    0.0551850384   -3.0325669707   -2.3186941125
 H    0.8378249250    1.3344929490   -0.8717426211
 H    1.4347419454   -2.1848650274    1.8835381337
 H   -1.3638227186   -2.2227858651    1.8923110169
 H    0.0479391551   -3.9938073288    0.7362224238