14

 C   -0.1885963663    1.5440665936    0.0258341954
 C    0.0041847180    0.0574699320    0.0111796665
 C    0.0471920948   -0.6720923913   -1.1059134658
 O    0.2222414837   -2.0277292806   -1.1355858457
 C    0.3683269964   -2.7391975043    0.0184446294
 O    0.5212980769   -3.9160566911   -0.0004599233
 O    0.3310205533   -2.0368997448    1.1758703195
 C    0.1549396162   -0.6489526593    1.2744482659
 N    0.1354418602   -0.0938553582    2.4072061559
 H    0.6562078283    2.0368229784    0.5161899704
 H   -0.2871817446    1.9367465597   -0.9892266530
 H   -1.0825204168    1.8105283161    0.5975354440
 H   -0.0509272753   -0.2762745332   -2.1085255333
 H    0.2590256851   -0.7751577370    3.1567797043