19

 C   -0.0778624973    1.4563667061   -0.0012321475
 C   -0.0501402631   -0.0317619348   -0.0322145183
 C   -0.0362479955   -0.9122896699   -1.0428219825
 C    0.0137210726   -2.2516385529   -0.2970395300
 O    0.9736864140   -1.9723177348    0.7680234101
 C   -0.0129403406   -0.9768620252    1.2001834946
 C    0.1704272817   -0.4345649420    2.5889004353
 C   -1.1020314093   -2.0443112135    0.7846390672
 O   -2.4075736647   -1.7051391069    0.4633638944
 H    0.8065774941    1.8579661790    0.5090528320
 H   -0.1065112107    1.8772889867   -1.0099822518
 H   -0.9496624205    1.8316193196    0.5495041458
 H   -0.0425054170   -0.7482745034   -2.1111432159
 H    0.1870692282   -3.1805271576   -0.8378818969
 H    1.0940850923    0.1480759117    2.6681320412
 H   -0.6687667442    0.2154647629    2.8566633889
 H    0.2172975065   -1.2509423382    3.3142906042
 H   -1.1373998946   -2.8676799222    1.5008020781
 H   -2.3572431018   -1.0126968143   -0.2104073889