19

 C   -0.2735729946    1.3037097000    0.0523664800
 O    0.1844453455   -0.0365630658    0.1284165920
 C    0.7336849258   -0.4908098981   -1.0465708194
 C   -0.0871992096   -0.9437113892   -2.2307355191
 C    0.8457388361   -1.9148992456   -1.5197074011
 N    2.2542077216   -1.7286171069   -1.8664854996
 C    2.6894982442   -2.0594968951   -3.2101404078
 C    2.1972047425   -0.2902127201   -1.4688321610
 H    0.5491342133    2.0038392392   -0.1511874012
 H   -1.0354921480    1.4223465154   -0.7303309639
 H   -0.7116676132    1.5461794009    1.0229165059
 H   -1.1373367602   -1.1007145124   -2.0034801330
 H    0.1162429829   -0.5911872611   -3.2386069126
 H    0.4948820665   -2.8393783242   -1.0741634174
 H    2.1190298683   -1.5571885045   -4.0120388739
 H    3.7444699787   -1.7908967105   -3.3272321658
 H    2.6010363006   -3.1404123360   -3.3618417336
 H    2.3727452692    0.4272547369   -2.2815956101
 H    2.8727580202   -0.0714522430   -0.6352070182