16

 O    0.0551194701   -0.0998186945   -0.1795471761
 C    0.1117119987    1.0227549601    0.2533243972
 C    1.2959191704    1.9162528227    0.1036699844
 C    2.2313440208    1.7350611733   -1.0566359228
 N    2.6600145766    1.3028913253    0.2601485790
 C    3.4886863053    2.2591059400    1.0341140495
 C    2.6451956802    3.4858775687    1.3451218676
 O    2.2088961480    4.2130566445    0.1885485353
 C    1.3077165859    3.2669513769    0.7763185122
 H   -0.7538904357    1.4786071726    0.7864960109
 H    2.0165610195    0.9182514192   -1.7399674323
 H    2.6458435179    2.6420114714   -1.4848144260
 H    3.7811142307    1.7707009699    1.9699835048
 H    4.3998443514    2.5074275775    0.4806202062
 H    2.8401644170    4.0856037427    2.2316257172
 H    0.3926718632    3.6759324197    1.1960980828