19

 C   -0.0146987943    1.4283027800   -0.2740065121
 C    0.0577038475   -0.0234903248    0.2181151639
 C    0.6899044677   -0.1268419719    1.6125398899
 C   -1.3225771930   -0.6472081372    0.2147826977
 N   -1.8587050560   -1.0814615247   -1.0765921562
 C   -1.5566107933   -2.1053903074   -0.0433342489
 C   -0.4885190564   -3.0298667830   -0.3092951201
 C    0.3959499460   -3.8233748669   -0.4946452665
 H    0.9834163170    1.8753469779   -0.3221473102
 H   -0.4600470808    1.4776599547   -1.2719644103
 H   -0.6212568469    2.0452429153    0.4006647654
 H    0.6703472649   -0.5966989293   -0.4867566045
 H    0.0921810194    0.4103214668    2.3591387107
 H    0.7726642997   -1.1700905245    1.9321632455
 H    1.6935597066    0.3100298391    1.6184779886
 H   -2.0228570216   -0.1920722756    0.9176959943
 H   -2.8643975321   -0.9386613969   -1.1210339109
 H   -2.4062348677   -2.5476375687    0.4733804683
 H    1.1773264435   -4.5199380528   -0.6727620146