14

 C    0.0088332918    1.5399029620   -0.0553801366
 N    1.3883935770    2.0183655018    0.1210189917
 C    2.3551332914    1.2331310791    0.2703176622
 O    2.3572186086   -0.1603546376    0.3025381116
 C    1.1090504156   -0.6626577801    0.1444630136
 C   -0.0527274872    0.0423499470   -0.0294918037
 C   -1.0308382299   -0.9731843813   -0.1391555717
 N   -0.5067442181   -2.1927030109   -0.0401299050
 N    0.8242818318   -1.9788332252    0.1358401421
 H   -0.5996599408    2.0004737855    0.7341685139
 H   -0.3643939974    1.9608531615   -0.9983944743
 H    3.3741594495    1.5840467984    0.4007026001
 H   -2.0961427426   -0.8685846387   -0.2862695827
 H    1.4531952406   -2.7565981916    0.2390818988