20

 C    0.2490964678    1.3614354747   -0.5320169996
 C   -0.0968484652    0.0227640582    0.0671921907
 O    0.9564779330   -0.9375358850    0.1898429325
 C    0.3327745652   -0.4619308311    1.3927310363
 C    1.1926749553    0.2651010406    2.3748637092
 C    0.7649171388    0.9766978534    3.6834716190
 N    2.2959083373    1.1265076500    3.7314173697
 C    2.3118833133   -0.3390031170    3.2629229472
 C    2.1719712438    1.4575988720    2.2357648376
 H    1.2161797448    1.7221113642   -0.1802411337
 H    0.2952023129    1.2796730475   -1.6230886222
 H   -0.5177411727    2.1040164345   -0.2860553536
 H   -1.0278411708   -0.4068859077   -0.3112732303
 H   -0.3121108545   -1.2072284485    1.8677010772
 H    0.2349731210    1.9300611960    3.6018192774
 H    0.3615561135    0.3650559180    4.4955440219
 H    2.0240617425   -1.0493932701    4.0431933110
 H    3.2446377107   -0.6346592295    2.7762733520
 H    3.0959034726    1.2990080756    1.6737602676
 H    1.7541967409    2.4506504842    2.0495179803