18

 C    0.0418072170    1.4745906870   -0.0702500864
 C    0.0231953019    0.0220103552   -0.0072168442
 C    0.0169927201   -1.1832290184    0.0421633154
 C   -0.0343746039   -2.5919908334    0.1045507131
 C    0.6763868466   -3.6360314692    0.9014524698
 C   -0.6231664132   -4.3719510844    1.2158360753
 C   -1.1912102948   -3.6763510967   -0.0484757245
 C   -0.3137349988   -4.2587655379   -1.1635413882
 N    0.8868390026   -3.5690426514   -0.5842308544
 H    0.7627812751    1.8285281922   -0.8156878717
 H   -0.9415083734    1.8701784451   -0.3483779304
 H    0.3166074360    1.9159856557    0.8944117311
 H    1.5643025115   -3.5228448253    1.5093125551
 H   -0.6228270285   -5.4672131100    1.2317536987
 H   -1.0710342377   -3.9852976972    2.1344220280
 H   -2.2565316525   -3.4896200297   -0.1640694915
 H   -0.2309135296   -5.3496121873   -1.2385274986
 H   -0.5107628284   -3.8298273041   -2.1486687764