15

 C   -0.0180206856    1.4999744677   -0.0839166391
 C   -0.0538157932    0.0081304185    0.0398937024
 N   -1.1219945537   -0.6725046770   -0.1884055963
 C   -1.0428444500   -2.0480530547   -0.0403031729
 N   -1.9913667506   -2.8748581429   -0.2631782920
 C    0.2638269047   -2.5927179499    0.4060195270
 N    0.3147745399   -3.9256468974    0.6178552449
 N    1.3230487675   -1.8676575927    0.6034117838
 O    1.1373459515   -0.4773740409    0.4034825011
 H    0.7406602768    1.8011387557   -0.8123807710
 H   -0.9973487326    1.8577537873   -0.3985227585
 H    0.2521912411    1.9519117378    0.8752551020
 H   -2.8229023612   -2.3670261938   -0.5702976494
 H   -0.4772632853   -4.4500222442    0.2791909390
 H    1.2054573306   -4.3729992635    0.7521640790