18

 O    0.5742665836    1.2064155341    0.2194325322
 C    0.2193226675   -0.1039158995    0.0798755279
 C    0.1642099890   -0.7869977725   -1.1110122175
 N   -0.2374136265   -2.0742416105   -0.8101490944
 C   -0.4271873705   -2.2073853453    0.5350004879
 C   -0.1520579433   -0.9937209246    1.1345391009
 C   -0.2454373137   -0.6239553318    2.5670527938
 C    0.3468184277   -1.5054339059    3.6381320548
 C    1.0005431378   -0.1852418307    3.3260853933
 H    0.6090797872    1.3929165023    1.1639373190
 H    0.3752553903   -0.4730995287   -2.1187059006
 H   -0.3555891090   -2.8074051012   -1.4851025208
 H   -0.7438823553   -3.1423105500    0.9688058735
 H   -1.1548955564   -0.1008976278    2.8589696927
 H   -0.1899577845   -1.6021859947    4.5751586785
 H    0.8584342251   -2.4053245732    3.3166748064
 H    1.9462722221   -0.2098285378    2.7955870386
 H    0.9085642489    0.6162538978    4.0511884536