23

 C   -0.7243508841    1.1352150562   -0.0504572426
 C    0.1264248631   -0.1235579107   -0.1417060633
 C    1.5603777824   -0.0093403138   -0.7283611531
 C    2.0285395997   -1.0631604528    0.3065891572
 C    0.7470694993   -0.7799162118    1.1346669394
 C    0.9552011915    0.0169199392    2.4713103721
 C    0.3459838510   -1.1606450215    3.2423575886
 C   -1.0529882367   -1.4166657653    2.7624547912
 C    0.1021833486   -1.9115597562    1.9319923601
 H   -0.2059378870    1.9313983484    0.4951391325
 H   -0.9523317741    1.5188522275   -1.0518002900
 H   -1.6784529172    0.9496360385    0.4547463818
 H   -0.4281582545   -0.8993145668   -0.6852181202
 H    1.6977959896   -0.2378885026   -1.7881996301
 H    1.9935047225    0.9764691994   -0.5285435497
 H    2.0139087190   -2.0753583978   -0.1117101345
 H    2.9923933264   -0.9079668582    0.7996029897
 H    2.0136058993    0.1837774550    2.6870037941
 H    0.4254724933    0.9696128070    2.5776780691
 H    0.7052749455   -1.5441555471    4.1894432970
 H   -1.5961492894   -2.1898388779    3.2971445501
 H   -1.6772599722   -0.5953756230    2.4186622537
 H    0.2313467841   -2.9661877257    1.7124497069