19

 O    0.0248683088    1.3761401678   -0.0453914796
 C    0.0350258334   -0.0404128996   -0.0369760119
 C   -1.3570397468   -0.5953096486    0.1069729845
 C   -2.2826956334   -0.4305468331    1.3417252081
 C   -3.1202386412   -1.4913569662    0.5648483015
 C   -3.4539582438   -0.7059161173   -0.7080057970
 O   -2.1754289709   -0.0823306288   -0.9671254066
 C   -1.7333762930   -2.0956714091    0.1456306597
 O   -1.5924994395   -2.7877619718   -1.0629177262
 H   -0.6504285381    1.6282746530   -0.6865007027
 H    0.4859381422   -0.4506972820   -0.9540416973
 H    0.6521403694   -0.3527698863    0.8115312629
 H   -1.8513495810   -0.8088083076    2.2699472447
 H   -2.7211838233    0.5571499344    1.4872376117
 H   -3.9110081279   -2.0825108884    1.0256946153
 H   -3.7247950759   -1.3495598125   -1.5507978274
 H   -4.2249373193    0.0583389755   -0.5605409163
 H   -1.2508239328   -2.6122957086    0.9838000629
 H   -1.8227167868   -3.7103163307   -0.9166278562