17

 O   -0.6978910925    0.7388669793    0.6028004447
 C    0.1721578253    0.9218074021   -0.2073682370
 C    1.3110589293    1.9052710683   -0.0508451921
 C    1.3541595205    2.9046346394   -1.2177881341
 C    2.6357212821    3.7920667532   -1.2100008277
 C    3.8389306069    2.9170028997   -1.5786048285
 O    4.5282121084    2.3554182554   -0.7702838049
 C    2.5212802299    4.9043575887   -2.1435088312
 C    2.4452236328    5.7960256333   -2.9457930311
 H    0.1910713698    0.3515632891   -1.1666874377
 H    1.2026966080    2.4177039218    0.9091729550
 H    2.2466253841    1.3301032879   -0.0228779965
 H    1.2950975795    2.3777862171   -2.1790089210
 H    0.4855410585    3.5682648766   -1.1760672201
 H    2.8023856231    4.1596193753   -0.1910125443
 H    4.0036048392    2.8073159732   -2.6728082467
 H    2.3743986851    6.5982484395   -3.6385594167