20

 C    0.0485258589    1.5552231070    0.2156092618
 C   -0.0484160701    0.0907575448   -0.1057197111
 C    0.2310522246   -0.4519315539   -1.5238032948
 N   -0.9349469876   -1.3900277636   -1.4163781180
 C   -0.5989754986   -2.8092871948   -1.2279041548
 C   -0.2106485814   -3.0213242106    0.2712136531
 C   -0.5114438613   -1.6755590379    0.9392318893
 O    0.6099769987   -0.7476831564    0.8800279194
 C   -1.2945026911   -0.8298017281   -0.0844750207
 H    1.0971196717    1.8739284817    0.2022076094
 H   -0.4990567699    2.1530813081   -0.5196015669
 H   -0.3538916663    1.7644811226    1.2110004421
 H    0.0825003713    0.2708834490   -2.3343068966
 H    1.2120793851   -0.9267447536   -1.6355730950
 H   -1.4758370249   -3.4180826846   -1.4768474049
 H    0.1962173286   -3.0940152732   -1.9224151854
 H   -0.7976568029   -3.8258914743    0.7253957531
 H    0.8461695723   -3.2659869455    0.4063056536
 H   -0.8888728718   -1.7561823857    1.9634396350
 H   -2.3352480356   -0.5468450610    0.0763490813