15

 O   -0.0675674638    0.0495074915   -0.2615641286
 C    0.0793888102    1.1436916518    0.2260069831
 C    1.3239030935    1.9568794313    0.0591703471
 O    1.4479040960    3.0680324781    0.9507812311
 C    1.6907968767    3.9948275126   -0.1426460843
 C    1.5742539907    2.8654194957   -1.1905821238
 C    2.8545196671    2.0434294453   -1.4769650076
 O    3.6973751152    2.1298939707   -0.3285690591
 C    2.6355925821    1.1825771881   -0.3002983966
 H   -0.7105032187    1.6426990706    0.8284977425
 H    0.8983647413    4.7487251932   -0.1976078227
 H    2.6693152415    4.4738025870   -0.0606278381
 H    0.8487192273    2.9466206768   -1.9971382121
 H    3.3245498170    1.8403819325   -2.4314153198
 H    2.8726473640    0.1442798547   -0.1033075910