19

 C    0.0058897166    1.5145250311    0.0951993016
 C    1.3323064511    0.8021076600   -0.0356200537
 O    2.1445566197    0.3101122190    1.0094772714
 C    1.6244852975   -1.0207449606    1.2268109988
 C    0.1206319546   -0.7622983870    1.2752469180
 C    0.0552512199    0.0077392770   -0.0548163445
 C    0.0093895380   -0.9645225994   -1.2042169605
 O    1.2644182256   -1.6716398205   -1.2041907285
 C    1.8695080320   -2.0008953255    0.0508943129
 H   -0.3420850393    1.8851082526    1.0541766721
 H   -0.2650200789    2.1392897987   -0.7518334845
 H    1.8696339272    0.9496425864   -0.9671390477
 H    2.0947386919   -1.4134760050    2.1332478659
 H   -0.4928523010   -1.6670732417    1.2644928423
 H   -0.1537259793   -0.1559893990    2.1412414708
 H   -0.8300337031   -1.6711169753   -1.1204352214
 H   -0.0488538507   -0.4773307543   -2.1823985228
 H    2.9403981607   -2.0807362744   -0.1603583845
 H    1.5177474475   -2.9886523422    0.3943041243