18

 C    0.0226511511    1.3889703137   -0.2661102619
 C   -0.0253133458   -0.0498426048    0.1719530410
 O    0.9368888292   -0.6839350752    0.5422353845
 C   -1.4240666611   -0.7096026762    0.1220719173
 O   -2.4045589878   -0.0928931135   -0.2640729981
 N   -1.4019391677   -1.9906416239    0.5406386771
 C   -2.5669482772   -2.8492451807    0.5629272032
 C   -2.2731024514   -4.1792472309   -0.1158441943
 O   -1.1984757212   -4.7772206404    0.5969687650
 H    1.0424063619    1.7672266226   -0.1942222122
 H   -0.3512341099    1.4757017666   -1.2911887994
 H   -0.6566871700    1.9856610320    0.3507243279
 H   -0.5065620980   -2.3723338359    0.8129764356
 H   -2.8780434890   -3.0404765220    1.5983150907
 H   -3.3767978760   -2.3208871735    0.0545953439
 H   -3.1760667384   -4.8081218421   -0.0894869065
 H   -2.0068452357   -4.0049032058   -1.1686439194
 H   -0.8862853730   -5.5401649698    0.1026482057