19

 C   -0.3621495975    1.7368637548    0.0405074501
 C    0.0206447654    0.2691829447   -0.0844064958
 C   -1.2219447321   -0.6414000364   -0.0950644669
 O   -1.9302636068   -0.5549630676    1.1203628189
 C    0.9605065617   -0.0515758902   -1.2513563313
 C    1.9012496423   -1.1151555456   -0.6879280398
 O    2.6540295605   -1.8249847165   -1.2972660415
 C    1.6986515128   -1.1106618033    0.8293740199
 O    0.7857165983   -0.0674863821    1.1123515380
 H    0.5300923246    2.3511969780    0.1867036353
 H   -0.8763782755    2.0724117498   -0.8653916061
 H   -1.0352120309    1.8779973999    0.8889368808
 H   -1.9041500312   -0.3372197562   -0.8965523480
 H   -0.9127095727   -1.6800341516   -0.3075460986
 H   -1.2584586681   -0.5971191591    1.8138239406
 H    0.4577771920   -0.4135919329   -2.1514932685
 H    1.5588793999    0.8232314305   -1.5316304841
 H    1.3287145309   -2.0973118168    1.1475485196
 H    2.6436113765   -0.9230504494    1.3505309575