23

 C   -0.1624684601    1.6130408137   -0.1369166348
 C   -0.0176249189    0.0926357914   -0.0083893743
 C    0.7037719289   -0.5878881918   -1.2387966739
 C    1.6136755756   -1.7428360164   -0.7014690880
 C    1.9742180530   -1.1755879078    0.6509970846
 C    2.3878895406   -1.5112099136    2.1155653572
 C    1.9065663383   -0.0091616865    2.1224143933
 C    2.7467864722    0.1746356332    0.8389357870
 C    0.7143342497   -0.4988111837    1.2271712967
 H    0.8014356701    2.1233238848   -0.2216961655
 H   -0.7474506701    1.8707528045   -1.0272150029
 H   -0.6819773237    2.0306724272    0.7318748943
 H   -1.0367045340   -0.3083515143    0.0363723186
 H   -0.0169893706   -0.9472856163   -1.9794363784
 H    1.3300929652    0.1523821825   -1.7489522086
 H    1.0424799602   -2.6726973271   -0.5935746554
 H    2.4585287032   -1.9422413287   -1.3677420945
 H    1.7617606921   -2.2305366687    2.6511623805
 H    3.4507460697   -1.6742111219    2.3156818795
 H    1.8740203622    0.6483694467    2.9934175926
 H    3.8324482906    0.0905787979    0.9473798837
 H    2.4894750639    1.0060242205    0.1846034133
 H    0.0495578118   -1.1821089054    1.7673213351