17

 C    0.0893466947    1.5652682271   -0.1142861007
 C    0.0998398747    0.0573175135    0.0458095056
 N    1.0745774394   -0.6759183150   -0.8031099527
 C    1.3250110142   -1.6585869569    0.2673910877
 C    2.7143551525   -2.0740144906    0.4338493879
 N    3.8137657823   -2.3821065068    0.6166267247
 C    0.7601169822   -0.5942924062    1.3016352972
 N    1.6951776978    0.2529550168    1.9937846552
 H    1.0853097505    1.9898148495    0.0273783617
 H   -0.2568407984    1.8354786922   -1.1177092854
 H   -0.5870219802    2.0240540559    0.6134134750
 H   -0.9249107722   -0.3318788659   -0.0610144780
 H    0.7262995745   -1.0588113009   -1.6757480644
 H    0.6878145224   -2.5539964133    0.2339268194
 H    0.0647716852   -1.0201564008    2.0265667963
 H    2.1492231503   -0.2541695507    2.7468098802
 H    2.4311524101    0.5685319521    1.3689449704