21

 C   -0.2117941611    1.1329554018   -0.1497812662
 O    0.6130977427    0.0080438477    0.0847319006
 C    0.9218790927   -0.6894308358   -1.0790760891
 C    1.4063425559   -2.0957929589   -0.9105476627
 C    0.0493330964   -1.8421187515   -1.5435254468
 C   -1.1853522496   -2.2020116417   -0.7439224980
 C   -0.0674979175   -2.0478543788   -3.0538734754
 C   -0.2287041971   -3.4483150592   -3.4373014768
 C   -0.3607139975   -4.6068563560   -3.7297739972
 H    0.2705989772    1.8493391239   -0.8321648600
 H   -1.1830326113    0.8471698351   -0.5770645035
 H   -0.3745768246    1.6192951588    0.8147651793
 H    1.3887077115   -0.0729907750   -1.8513578097
 H    2.2240612169   -2.4441853429   -1.5323582580
 H    1.4122432049   -2.4812691720    0.1032120532
 H   -1.0553520498   -1.9379028851    0.3077612096
 H   -2.0691368318   -1.6719355207   -1.1195053696
 H   -1.3900103674   -3.2752282618   -0.8120081346
 H   -0.9196222706   -1.4681482587   -3.4356266492
 H    0.8231692335   -1.6416210527   -3.5504099820
 H   -0.4762986832   -5.6277701566   -3.9972546238