19

 C   -0.0002366352    1.4581434517   -0.0224728163
 C   -0.0504953752   -0.0416017143    0.0412913878
 O    0.4210387482   -0.7345954766   -1.1625074319
 C   -0.2654628446   -1.8948302856   -0.6138628812
 C    0.5266553551   -2.2100690311    0.6673690238
 C    1.9008934072   -1.5949462820    0.7618534235
 C    0.6919485583   -0.7923636445    1.1738009305
 C   -1.3498541258   -0.8852971860   -0.1130208857
 O   -2.0988465382   -1.1218945795    1.0457064635
 H    1.0361918699    1.8068833104   -0.0684420471
 H   -0.5329517815    1.8318347957   -0.9014079940
 H   -0.4627721396    1.8841639122    0.8736519940
 H   -0.4543473230   -2.6818851193   -1.3444595098
 H    0.2243597618   -3.0301929884    1.3051781006
 H    2.5269551251   -1.9561010047    1.5711986302
 H    2.4279318393   -1.3331648049   -0.1469659624
 H    0.5185790616   -0.5113209630    2.2043169626
 H   -1.9584204878   -0.5154308368   -0.9464504855
 H   -2.9467383258   -1.4980067633    0.7930792671