23

 C   -0.2188598206    1.4296732453   -0.2885412430
 C    0.0124850433   -0.0567503034    0.0045153461
 C    0.7626480472   -0.4172119109    1.2970502102
 C    0.8802306968   -1.9485380709    1.3869894606
 C    1.5967569275   -2.5314017215    2.6034933032
 O    1.5687644486   -3.9456176759    2.4476273845
 C    2.0911839084    0.3268677201    1.6009269729
 O    1.6452893773    0.6585969892    2.9323604944
 C    0.2975505662    0.2491806721    2.6201242885
 H    0.7192199065    1.9847704101   -0.3830469186
 H   -0.7596104738    1.5430995484   -1.2333037910
 H   -0.8160966095    1.9174265873    0.4876410981
 H   -0.9589278377   -0.5687813969    0.0257116897
 H    0.5594253569   -0.5026198880   -0.8371000473
 H   -0.1267918529   -2.3844262732    1.3579348831
 H    1.3970505486   -2.3183056030    0.4919563786
 H    2.6317680203   -2.1651278101    2.6610608192
 H    1.0950806695   -2.2310020749    3.5345239221
 H    2.0172172867   -4.3367334705    3.2028939466
 H    3.0103421450   -0.2696677239    1.6060862746
 H    2.2626879632    1.2277165821    0.9979186587
 H   -0.3660111237    1.1138946510    2.4914882969
 H   -0.1275932738   -0.4054379927    3.3891879519