18

 N   -0.0621236559    1.5290798289    0.0811495252
 C    0.0167707903    0.0747037999    0.0040820375
 C    0.6950097509   -0.4928661977   -1.2606073331
 C   -0.0324355533   -0.0793675707   -2.5537402879
 C    0.6194011195   -0.6039115569   -3.7507515448
 N    1.1501837678   -1.0256621615   -4.6863919295
 C    0.7562446316   -0.4504601049    1.2572273437
 C    0.0544881364   -0.1389006560    2.4997654935
 N   -0.5071573752    0.0782973258    3.4854134140
 H    0.8269023134    1.9640245590   -0.1479626488
 H   -0.7635064923    1.9073283100   -0.5439357575
 H   -1.0128794855   -0.3014714759    0.0453599990
 H    1.7348727425   -0.1454126865   -1.3055486264
 H    0.7304850869   -1.5865675689   -1.2069663822
 H   -1.0697613164   -0.4351564753   -2.5372161932
 H   -0.0730993657    1.0127144332   -2.6326263596
 H    0.8873252571   -1.5362234102    1.1940041662
 H    1.7610623978   -0.0122153822    1.2993520137