22

 C   -0.1072411261    1.4689048215    0.1773440552
 C    0.0020971010   -0.0466946348   -0.0060045751
 C    0.7403533623   -0.4230871224   -1.2844824583
 O    0.7838342796   -1.8421675842   -1.3477867324
 C    1.4229404657   -2.4382621262   -2.4737031049
 C    0.6986217356   -2.1194670970   -3.7968506821
 C    2.9220599017   -2.0874091168   -2.5537516190
 C    1.3015476245   -3.8931114333   -2.2192550434
 N    1.2285991952   -5.0343859216   -2.0591151259
 H    0.8810583532    1.9387502070    0.2315969716
 H   -0.6511452344    1.9351762993   -0.6516330051
 H   -0.6400890525    1.7124204252    1.1006874010
 H    0.5271959898   -0.4975071414    0.8433688785
 H   -0.9943820483   -0.5012398786   -0.0338742968
 H    0.2173658977   -0.0042322715   -2.1570400356
 H    1.7546308720    0.0027866862   -1.2714133852
 H    0.8315138234   -1.0678771653   -4.0628220409
 H    1.1068452358   -2.7280739873   -4.6075900930
 H   -0.3685169177   -2.3323596989   -3.7017868348
 H    3.4045839045   -2.2769906648   -1.5922710810
 H    3.4122128874   -2.6957104196   -3.3179627115
 H    3.0558354995   -1.0360781355   -2.8202823712