18

 C    0.4832048111    1.4479358138    0.0849063247
 O    1.0590812334    0.2336060332   -0.4013628513
 C   -0.2954178041    0.1985346846    0.0573523447
 C   -0.5726763658   -0.6019552840    1.2768800374
 C    0.4916676143   -0.9685499673    2.2701166225
 C   -0.2525038410   -2.0756802973    1.5725968742
 C   -1.6320374292   -2.2694813759    2.2117990230
 C   -1.9658622684   -0.7720630385    1.9041153829
 H    0.8804256334    1.8022532350    1.0345772797
 H    0.3083949646    2.2146049626   -0.6686381653
 H   -1.0270126532    0.0858259643   -0.7462000571
 H    1.5041655358   -0.8084069751    1.9151247237
 H    0.3420347524   -0.7883760756    3.3331755291
 H    0.2644055904   -2.7922072269    0.9456594846
 H   -2.2750095182   -2.9575982810    1.6589028218
 H   -1.6307802879   -2.5665310393    3.2658297670
 H   -2.1906241087   -0.1218643895    2.7561482339
 H   -2.7730713387   -0.6745449131    1.1730170747