18

 C   -0.0516026319    1.3776962306    0.1037309898
 O   -0.0023761348   -0.0296680685   -0.0161955504
 C    0.6145365071   -0.5597238489   -1.1097188181
 C    1.2089928539    0.1950414688   -2.1241468416
 C    1.8099107073   -0.4799269530   -3.1877925088
 C    1.8275785862   -1.8636944043   -3.2567360812
 C    1.2276283611   -2.6196035552   -2.2353279248
 N    1.1825697460   -4.0130773359   -2.3201302264
 C    0.6266945796   -1.9550491152   -1.1659990574
 H    0.9531365507    1.8167953006    0.1565841729
 H   -0.5960139467    1.8379995911   -0.7309547989
 H   -0.5821682406    1.5854358993    1.0347629116
 H    1.2116329852    1.2758429081   -2.0975447712
 H    2.2768696335    0.0967403179   -3.9801776811
 H    2.2963069155   -2.3682071649   -4.0956531828
 H    1.9236274644   -4.4236411950   -2.8693231272
 H    1.0765911531   -4.4864081750   -1.4345727303
 H    0.1532188804   -2.5072448704   -0.3609838041