20

 C    0.0037461100    1.6343238943   -0.1952897001
 C    0.0483429272    0.1140310903   -0.0129689474
 C   -1.3427617419   -0.5373286423    0.0899845160
 C   -1.3724406710   -2.0570145978   -0.0048076333
 C   -0.7552502498   -2.8901644160    1.1031119349
 C   -2.2316635501   -2.5712193748    1.1216316181
 N   -2.6274921233   -1.4120920414    1.8673070663
 C   -2.0556338805   -0.2396012697    1.4287818430
 O   -2.0981291239    0.8186548620    2.0194073959
 H    1.0154922711    2.0483942935   -0.2491883163
 H   -0.5142016281    1.9015096132   -1.1238214023
 H   -0.5256573336    2.1054815373    0.6346746593
 H    0.5743365277   -0.3464469360   -0.8584064528
 H    0.6309578109   -0.1363579725    0.8816962997
 H   -1.9751544805   -0.1232331934   -0.7076434137
 H   -1.4430207960   -2.5087218670   -0.9867808961
 H   -0.4576881014   -3.9002758028    0.8423078830
 H   -0.1282177851   -2.4099013800    1.8472030663
 H   -2.9810121765   -3.3424024272    0.9856029989
 H   -2.9610378253   -1.4628823097    2.8182573206