19

 C   -0.0288969772    1.5138790044    0.1169638166
 C    1.5190175478    1.4066341498    0.0039948245
 C    2.0706871087    1.0322491259    1.3791551687
 O    1.1646893353    0.1573742602    2.0588699093
 C    0.5092525107   -0.7559531932    1.1883582706
 C    1.5039825038   -1.7417039516    0.5588257237
 O    2.1131736191   -1.0307719648   -0.5266996334
 C    1.2944142785    0.0865696168   -0.8195292783
 C   -0.0446684875   -0.0207716765   -0.0659204970
 H   -0.4342280146    1.9184529583    1.0465093205
 H   -0.4778980639    2.0248842024   -0.7377591549
 H    2.0879698550    2.2198676419   -0.4512898466
 H    3.0588902158    0.5630880625    1.2748407797
 H    2.1704096498    1.9154362558    2.0184073913
 H   -0.2561281491   -1.2510283165    1.7903502680
 H    2.2764505333   -2.0477415500    1.2705111717
 H    0.9918273725   -2.6392240673    0.1815519435
 H    1.2583257482    0.2392032781   -1.9001187747
 H   -0.9024577061   -0.5278083762   -0.5118959931