17

 N    0.0982972306    1.3894760506   -0.0571880427
 C    0.0541718280    0.0026465194   -0.0543628651
 C   -1.1498713699   -0.7086505912   -0.0412908333
 C   -1.1220650901   -2.0953168686    0.0130295023
 C    0.1083180213   -2.7436276463    0.0447215811
 N    1.2687136404   -2.0826318276    0.0321136922
 C    1.2520642312   -0.7501261810   -0.0044324065
 C    2.5900632345   -0.0490222674    0.0286424554
 O    2.7634426967    0.8933909575   -1.0402880910
 H    0.9199988666    1.7699760220   -0.5105975763
 H   -0.7580919193    1.8466466102   -0.3329182001
 H   -2.0940720113   -0.1719196767   -0.0728264260
 H   -2.0442178620   -2.6664275825    0.0228935242
 H    0.1685390651   -3.8277971332    0.0793951821
 H    2.6867264456    0.5502377333    0.9416228118
 H    3.3788138954   -0.8092381429    0.0273550798
 H    2.6981680374    0.4015268245   -1.8661889980