21

 C   -0.2561697515    1.5424876483    0.0109323150
 C    0.0756955418    0.0640559195    0.0274209548
 O    1.0794611572   -0.3528726812   -0.9520692622
 C    1.7433497293   -1.1373154832    0.0459117233
 C    2.3612169044   -0.2646065087    1.0896868018
 C    2.9978931624    1.0565977871    0.7876047813
 C    3.2857147607    2.0476770990    1.8903030745
 C    4.4209287917    1.3143402564    1.2205056414
 C    0.8694407642   -0.5919352685    1.1572873178
 H   -0.6118645598    1.8360807713   -0.9823021930
 H   -1.0592901907    1.7447356772    0.7281758387
 H    0.6028467990    2.1611020948    0.2734725749
 H   -0.8365246419   -0.5188541567   -0.1625605649
 H    2.0513126663   -2.1405264705   -0.2278476622
 H    2.8920484995   -0.8482118519    1.8419523570
 H    2.7140979401    1.4676633523   -0.1744465104
 H    3.1587645540    3.1050257511    1.6833957420
 H    3.0270953158    1.7611373215    2.9046013129
 H    4.9265856532    0.5386938391    1.7873421276
 H    5.0706996407    1.8664233829    0.5504715061
 H    0.4322145835   -1.0935558396    2.0107207638