18

 N   -0.2258835706    0.8143727811    0.9920235117
 C   -0.0257691784    0.0036229367    0.0412447412
 C   -1.1295367237   -0.4163196908   -0.8980385698
 C   -1.1544903933   -1.9218401274   -1.1395223030
 C   -2.3574857342   -2.7148839581   -0.8625605923
 O   -2.0258693937   -2.3269912213   -2.2008796872
 C    0.2272233808   -2.5662811803   -1.1091167788
 C    1.3057864509   -1.4987746940   -1.2625247728
 O    1.2072193691   -0.5304969990   -0.2076060264
 H    0.6485963274    0.9886796504    1.4926494371
 H   -2.0767479926   -0.0408525973   -0.5131555794
 H   -0.9557036443    0.0663318676   -1.8697836159
 H   -2.2666145084   -3.7800917612   -0.6501938290
 H   -3.2372380171   -2.2325286687   -0.4386306667
 H    0.3842838082   -3.0804412010   -0.1540977651
 H    0.2986008708   -3.3089042810   -1.9090763014
 H    2.3084638841   -1.9211973475   -1.1733981147
 H    1.2344733252   -0.9978048284   -2.2371007474