17

 O    0.0060679373    1.4356045797    0.0944573691
 C   -0.0611305931    0.0528713670    0.3489955158
 C   -1.4194478008   -0.5080677339   -0.1159809468
 O   -1.6160619709   -0.1334111050   -1.4681936312
 C   -1.4874636667   -2.0016458984    0.0043511319
 N   -1.3561780938   -2.8050436340   -1.0283539865
 C   -1.4314787725   -4.0842170346   -0.5237620189
 C   -1.6067236577   -4.0485795514    0.8318533945
 N   -1.6393189273   -2.7068273371    1.1588123782
 H   -0.2898252352    1.5371839413   -0.8200435748
 H    0.7377751677   -0.5039480874   -0.1677299732
 H    0.0694832533   -0.0900378290    1.4283135348
 H   -2.2094226710   -0.0321531546    0.4826952017
 H   -1.4602391457   -0.9367976967   -1.9902299920
 H   -1.3585899729   -4.9489616250   -1.1646945280
 H   -1.7131024995   -4.8195378003    1.5762776782
 H   -1.7725249412   -2.3239772807    2.0799976075