21

 C   -0.2545224165    1.4088491503    0.0098994604
 C   -0.0316635654   -0.0999073508   -0.0120221733
 O    0.6417079674   -0.4660768956   -1.2496334154
 C   -0.1354924956   -0.6916619814   -2.3272542992
 C    0.7112878910   -1.0640844130   -3.5221563202
 O   -1.3392291530   -0.6078916515   -2.3271395718
 C    0.8349134682   -0.5949383598    1.1150772202
 C    0.1924540509   -0.9735540600    2.4267189080
 C    0.7735369735   -2.0401245541    1.5339377936
 H    0.6990625117    1.9397846117   -0.0739936487
 H   -0.9027661419    1.7112091212   -0.8157063970
 H   -0.7305954799    1.7022743672    0.9501693419
 H   -0.9971374918   -0.6147251172   -0.0001466329
 H    0.0661484998   -1.2627889429   -4.3770724493
 H    1.4025865056   -0.2499457217   -3.7581771298
 H    1.3156873599   -1.9463945351   -3.2941347166
 H    1.8073415106   -0.1130586398    1.1726130628
 H    0.7139236226   -0.7216128076    3.3431029759
 H   -0.8883456779   -0.9087293634    2.5005794016
 H    0.0835048972   -2.6893140009    1.0051281570
 H    1.6942757439   -2.5245172654    1.8384656327