19

 N   -0.0252485744   -1.1588762374    0.0816207886
 C   -0.0395505792   -0.0025524936    0.1015965505
 C   -0.0295014370    1.4529923472    0.1375350940
 C   -0.5351282576    2.0599272676    1.4718489517
 C    0.1452613703    3.4459865145    1.4709746201
 N    1.4635757258    3.2540376844    0.8681951553
 C    2.4779237266    2.5602239172    1.7138893632
 C    2.5899529126    1.4214411595    0.6707159925
 C    1.3936693707    2.0814088934   -0.0542962311
 H   -0.6698667316    1.8092556904   -0.6774193200
 H   -1.6254112297    2.1037798606    1.5191680593
 H   -0.1897243806    1.4534095582    2.3145246608
 H   -0.4335628486    4.1515841061    0.8613354661
 H    0.2401725278    3.8771556081    2.4714286243
 H    3.3765549855    3.1619765326    1.8789323187
 H    2.0965777883    2.2348250256    2.6904633697
 H    3.5112809858    1.4321393602    0.0866576019
 H    2.4214616520    0.4085178378    1.0398690722
 H    1.5505042236    2.3261744075   -1.1082082176