16

 O    0.0605420633    1.4224550006   -0.0170618323
 C    0.0100688537    0.0033590733    0.0044469706
 C    0.6295703891   -0.5692630990    1.3057622960
 C   -0.5692151595   -0.7688199779    2.1956156378
 C   -1.7195909166   -0.7417022578    1.5002503015
 C   -1.4475853465   -0.5168073349    0.0183793497
 C   -3.0249020863   -0.9316625722    2.0121497195
 C   -4.1559982725   -1.0833467592    2.4000602980
 H   -0.4180013891    1.7414358356    0.7570893612
 H    0.5537272162   -0.3110822993   -0.8892383409
 H    1.1416081242   -1.5251191131    1.1229764702
 H    1.3794967441    0.1180952862    1.7115662646
 H   -0.5027899649   -0.9463758860    3.2623811410
 H   -2.1257574350    0.2046866041   -0.4464800357
 H   -1.5502714224   -1.4606113834   -0.5325923771
 H   -5.1463800880   -1.2223541570    2.7565425160