21

 C    0.0396807615    1.6703319310    0.1739143661
 C    0.0044313524    0.1506188432    0.1203889457
 C   -1.3836440200   -0.4136275176   -0.1920789579
 C   -1.9546992684    0.0215004181   -1.5452834656
 O   -3.1952574444   -0.6095669492   -1.8297090186
 O    0.9720955946   -0.3844382086   -0.8573680982
 C    1.5384143396   -1.2292255329    0.1445181467
 C    2.1883671589   -0.4254346000    1.2235334318
 C    0.6888658304   -0.6452606097    1.2446749333
 H    1.0169246491    2.0337431807    0.4984679348
 H   -0.1642980861    2.0966686832   -0.8127026030
 H   -0.7175299974    2.0449542928    0.8707297607
 H   -1.3123720640   -1.5090644430   -0.1781552038
 H   -2.0805604488   -0.1291358090    0.6063078288
 H   -2.1704750355    1.0941317450   -1.5489149661
 H   -1.2117114235   -0.1695202204   -2.3324138699
 H   -3.0270664936   -1.5520723700   -1.9284030727
 H    1.7926234626   -2.2464378921   -0.1302230631
 H    2.7288151331   -0.9974408003    1.9719583717
 H    2.6201209250    0.5427744867    0.9887418042
 H    0.1710971246   -1.1214053978    2.0670739852