21

 C   -0.0583023081    1.5535448741   -0.0003360425
 C    0.0992360886    0.0342170368    0.0138555983
 C    0.7938083729   -0.5136565332   -1.2499587960
 O    2.0745906318    0.1109239330   -1.3078574784
 C    0.9238914355   -2.0430056045   -1.2057222631
 C    1.7150736037   -2.4960774594    0.0263770202
 C    1.0714396623   -1.9695938491    1.3221868735
 C    0.8217262772   -0.4669595007    1.2707889038
 O    1.1402128547    0.2719748838    2.1720747190
 H    0.9189179439    2.0367342656   -0.0482222010
 H   -0.6454330332    1.8698612263   -0.8686444139
 H   -0.5604874715    1.8977621320    0.9060101344
 H   -0.8947750678   -0.4386514503    0.0351108861
 H    0.1936002243   -0.2208576778   -2.1259729437
 H    2.5106866544   -0.1694914309   -2.1186855510
 H   -0.0811340122   -2.4856649102   -1.2014097965
 H    1.4120137323   -2.3938168941   -2.1241439415
 H    1.7842865793   -3.5879991538    0.0596811056
 H    2.7370130870   -2.1101608228   -0.0470770807
 H    0.0962958708   -2.4586098381    1.4637459878
 H    1.6804029241   -2.1868751264    2.2028324794