21

 C   -0.4871393266    1.3861307538   -0.2908437175
 C    0.1109515059    0.0059167402    0.0212407422
 C    1.1570393579   -0.4024391248   -1.0299167393
 C    0.7832312407    0.0472637328    1.3973102072
 O    1.6635308529    0.8460816172    1.6532175310
 N    0.3126864188   -0.8922443459    2.2912386149
 C    0.6961502637   -1.1547470843    3.6161061271
 C    1.7847088704   -0.3093133316    4.2218663669
 N    0.0628902077   -2.1074185619    4.1805438513
 H    0.2925717984    2.1501589712   -0.2346337837
 H   -0.9180115745    1.3969575616   -1.2964344164
 H   -1.2756593683    1.6523664143    0.4200690064
 H   -0.6945360140   -0.7387840647    0.0264234169
 H    1.9923914202    0.3029441683   -1.0179571057
 H    1.5539178961   -1.4038525969   -0.8352267068
 H    0.7132308901   -0.4014496055   -2.0299595589
 H   -0.4231184808   -1.5119930146    1.9825166347
 H    1.5123559377    0.7483156407    4.2117098200
 H    1.9618896888   -0.6355983731    5.2490502490
 H    2.7088871176   -0.3861268652    3.6448174122
 H    0.3938545573   -2.2373755314    5.1347937284