23

 C   -0.3134289423    1.4458414606    0.1945542684
 C    0.2053097958    0.0423463007   -0.1396702291
 C    0.8411192407   -0.6324949689    1.0622869213
 C    0.1075350575   -1.3053207955    2.1898257752
 C   -1.1004246493   -2.1002364952    1.6802949324
 C   -0.1199559563   -2.9825995148    0.8215812028
 C   -0.0079078993   -4.4122144483    1.3452087055
 O   -0.3011738043   -2.9863843346   -0.5873839741
 C    1.0515415293   -2.1092217085    1.2746131199
 H    0.4899662661    2.0894256962    0.5714172813
 H   -0.7412700360    1.9318503851   -0.6881049279
 H   -1.0900237077    1.4068840662    0.9663759067
 H   -0.5984615028   -0.5759177948   -0.5435266437
 H    0.9552840147    0.1065158167   -0.9383562024
 H    1.7000802740   -0.0755071223    1.4390736628
 H    0.2648049858   -1.0287525974    3.2253327573
 H   -1.6119868301   -2.6742464921    2.4569888855
 H   -1.8445575462   -1.5341176214    1.1126758550
 H   -0.9387060751   -4.9648706711    1.1640110873
 H    0.8082900318   -4.9365944088    0.8377490195
 H    0.1849566076   -4.4286273072    2.4217161504
 H   -1.0099501528   -3.6051147486   -0.7951973715
 H    2.0356338189   -2.5098119760    1.4947210473