21

 C   -0.0408289650    1.5496176429   -0.0152169292
 C    0.0180509943    0.0167787783    0.0399895226
 C    0.8845819145   -0.4466676831    1.2198260294
 C   -1.4060057561   -0.5646847763    0.0861976931
 C   -1.4658941286   -2.1022495711   -0.0538917422
 C   -2.8272334964   -2.6127934625   -0.0891300925
 C   -3.9682731145   -3.0164370278   -0.1160137031
 C   -5.2507098131   -3.4705502266   -0.1464950235
 C   -6.3888694609   -3.8738408994   -0.1735487946
 H    0.9627248100    1.9810064269   -0.0891376227
 H   -0.6212254985    1.8969083777   -0.8762336353
 H   -0.5104078261    1.9556599381    0.8887030040
 H    0.4922381456   -0.3348369932   -0.8884159910
 H    0.4374673483   -0.1429954637    2.1741346960
 H    1.0133080142   -1.5329820412    1.2420864990
 H    1.8835330307   -0.0017976478    1.1663225750
 H   -1.8936768780   -0.2735037188    1.0250576892
 H   -2.0025931184   -0.1239411527   -0.7203992715
 H   -0.9416060931   -2.4051529315   -0.9709385094
 H   -0.9280635253   -2.5793849285    0.7745954593
 H   -7.3894237136   -4.2273764497   -0.1972250124