18

 O   -0.0068924123   -0.0013811729    0.0434980979
 C    0.0175499187    1.1919913672    0.0964293867
 O   -1.1040205551    1.9340618021    0.2904578052
 C   -0.8309880976    3.3412022972    0.3384096879
 C    0.6670451960    3.5536589974    0.0108599568
 C    1.4724885745    4.2337161070    1.1344172912
 C    1.9087723706    3.0402833405    2.0080272587
 N    2.1774027392    1.9367421275    1.0752773599
 C    1.2418267260    2.1108772541   -0.0473845310
 H   -1.4929622689    3.8312759984   -0.3804862968
 H   -1.0891959456    3.7003572975    1.3406774432
 H    0.7709694121    4.0769852781   -0.9405688126
 H    2.3538652415    4.7311373410    0.7148012033
 H    0.8941156924    4.9871451329    1.6779709552
 H    2.7871893138    3.2429979014    2.6251196552
 H    1.0967586626    2.7470164523    2.6866942629
 H    3.1264518176    2.0099227118    0.7281577036
 H    1.7312374345    1.8548915164   -0.9891938873