17

 O    0.2826666488    0.1569568522   -1.1482279237
 C    0.0564431723    1.1758312433   -0.5283041675
 C    1.0658806630    1.7822549080    0.3284157312
 C    1.8868610933    2.3125190133    1.0316099358
 C   -1.2819557466    1.8778788963   -0.5318707606
 C   -2.4022227693    1.3360771356   -1.4723570835
 C   -3.2765310903    1.0532508123   -0.2423679082
 C   -2.5762129540    0.1058319159    0.6875995426
 C   -2.1764380674    1.5569472808    0.6932347915
 H    2.6251616059    2.7631543473    1.6495468728
 H   -1.1290376840    2.9553869805   -0.6339923815
 H   -2.7986283350    2.1211228067   -2.1189459928
 H   -2.1284663900    0.4701493624   -2.0790838683
 H   -4.3418960245    1.2362272342   -0.1799351184
 H   -3.1494594319   -0.2058312103    1.5546768010
 H   -1.9046784035   -0.6541721807    0.2967062633
 H   -2.2472388469    2.1748988320    1.5791970162