19

 C   -0.1443653893    1.2186651704   -0.0075811054
 C    0.6988386830   -0.0699413567    0.0109026185
 C    1.1520466130   -0.4685077457   -1.3174549522
 C    1.5115991651   -0.7618904648   -2.4291733540
 C    1.9484447776   -1.1882939126   -3.7704152188
 N    1.9362136436   -2.6349967083   -4.0114099605
 C    2.8646957835   -3.3688476529   -3.1546685533
 C    1.1294951480   -0.5245741584   -4.8061275427
 N    0.4854494470   -0.0041392145   -5.6107379344
 H    0.4319004644    2.0541492764   -0.4132951385
 H   -1.0356538484    1.0909153357   -0.6271989491
 H   -0.4613804188    1.4768718048    1.0067982652
 H    1.5696521042    0.0670585705    0.6642467853
 H    0.1142144920   -0.8868053679    0.4524847595
 H    2.9840997866   -0.8533179489   -3.9271554466
 H    0.9907025145   -2.9772970438   -3.8715803921
 H    2.7063945974   -3.2096886704   -2.0770185772
 H    2.7683080761   -4.4358969590   -3.3694958687
 H    3.8910172304   -3.0709766238   -3.3963669750