21

 C   -0.0587618434    1.5682441659    0.0506251275
 C    0.0771582590    0.0571035176   -0.0622920490
 C    0.9663112582   -0.4407984356   -1.2227744725
 C    1.4027793912   -1.8526805826   -0.7802738898
 C    1.1298510428   -1.8814477122    0.7758333591
 C    2.3582409253   -2.2914131582    1.5997297058
 N    0.6680527082   -0.5319883332    1.1507155674
 C    0.0310625005   -2.8326789920    1.0558657230
 N   -0.8168668323   -3.5924771736    1.2553955817
 H    0.9242090084    2.0423775281    0.1641470017
 H   -0.5249026627    1.9826801563   -0.8479816694
 H   -0.6725983186    1.8416062733    0.9131423985
 H   -0.9237451785   -0.3826650370   -0.1737085884
 H    0.4502725773   -0.4418584790   -2.1868211087
 H    1.8365555217    0.2199655889   -1.3173740664
 H    0.8317186001   -2.6332076696   -1.2872164608
 H    2.4603137767   -2.0422896914   -0.9798997138
 H    3.1948144776   -1.6249704436    1.3645806045
 H    2.1438381858   -2.2278275338    2.6695859244
 H    2.6584681164   -3.3155517393    1.3662919260
 H    1.4815306961    0.0156013910    1.4220915191