18

 C   -0.6644878031    0.9715887709    1.3379020196
 C   -0.0509301318   -0.0271879342    0.3638578452
 C    0.2844186551    0.4095217704   -1.1028869372
 C    1.7147555196   -0.1798479261   -0.9690491859
 C    2.9048348084    0.6994498609   -1.3501345590
 N    4.0459835954    0.3767067337   -0.6752796787
 O    2.8265741948    1.5721366546   -2.1899877832
 C    1.4371468894   -0.3602918906    0.5322647821
 O    2.1585197933   -0.5503186415    1.4745473829
 H   -0.1057350329    1.9128923213    1.3387753897
 H   -1.7008237206    1.1943121468    1.0663337253
 H   -0.6550901336    0.5735383878    2.3568135468
 H   -0.6231622696   -0.9640713490    0.3701210575
 H   -0.3398845783   -0.0210217411   -1.8853842791
 H    0.3165546282    1.4933671882   -1.2302822079
 H    1.8354786543   -1.1530778400   -1.4584334244
 H    3.9690474601   -0.1384858026    0.1915074804
 H    4.8335266113    0.9958049906   -0.7911455740