17

 C    0.0900377723    1.3775244776   -0.1319542006
 C    0.1026310112   -0.1200950079    0.1792574876
 N    1.0410696315   -0.8556690015   -0.6508054947
 C    0.6633784067   -1.8340089755   -1.5120341739
 O   -0.4793642510   -2.2159980717   -1.6952788481
 C    1.8105321066   -2.4388289172   -2.2899428080
 C    2.6109635760   -1.6129487673   -3.2092305987
 O    3.1382510743   -2.0258544884   -1.9474686719
 H    1.0769421854    1.8260044276    0.0263784917
 H   -0.2016943418    1.5556278008   -1.1710960759
 H   -0.6205808199    1.8959467399    0.5193097135
 H    0.3453268569   -0.2833909583    1.2369280068
 H   -0.8777509766   -0.5645468956   -0.0068487673
 H    2.0345638078   -0.7051916726   -0.5519389531
 H    1.6836861898   -3.4964483452   -2.5082269864
 H    3.0702783488   -2.0754994974   -4.0805086223
 H    2.3898037920   -0.5510106572   -3.2979282988