21

 C    0.0080118415    1.5335680135    0.0607881387
 C   -0.0100256817    0.0185331240   -0.0187382656
 C    0.2992014776   -0.7074399647   -1.3679202561
 C   -0.6435922478   -1.8459391288   -0.8861637981
 C    0.0935473844   -2.7943876976    0.0743146556
 C    0.8670590447   -1.9967621409    1.0997415996
 C    0.8194413005   -0.6622642635    1.0572870408
 C   -1.3845916718   -0.7371790356   -0.0748358151
 O   -2.0822870795   -1.0400334065    1.0989924109
 H    1.0283332220    1.9268244328   -0.0188372467
 H   -0.5864223641    1.9770978865   -0.7444344918
 H   -0.4082761082    1.8796720678    1.0139668950
 H   -0.1206540568   -0.1687504629   -2.2225481742
 H    1.3438087652   -0.9581166635   -1.5658417656
 H   -1.2143991924   -2.3980526025   -1.6361369943
 H   -0.6284916924   -3.4550713480    0.5743625551
 H    0.7701821037   -3.4573244061   -0.4817903348
 H    1.4521242758   -2.5267126155    1.8463899679
 H    1.3538358046   -0.0459290662    1.7755519947
 H   -2.0837596720   -0.1962167850   -0.7196497509
 H   -1.4289988134   -1.3345629673    1.7469026950