23

 C   -0.4669159717    1.4960852164    0.0400427966
 C   -0.2560012539   -0.0202800504    0.0431698465
 C    0.8083259261   -0.4769065773    1.0434900246
 C    0.3596394077   -0.5011755116    2.5420832470
 C    0.2471151128   -2.0553043543    2.4851240875
 C    0.9700166400   -2.0039200574    1.1383480718
 O    0.7288130827   -2.9031723235    0.0656113360
 C    2.0501336314   -2.8585600914    0.6346791375
 C    3.1574681605   -2.3580756665   -0.2549788162
 H    0.4556349782    2.0220810914   -0.2305777006
 H   -1.2394786871    1.7870084575   -0.6785011987
 H   -0.7765870159    1.8615438275    1.0252939102
 H   -1.2036688266   -0.5279233618    0.2654969575
 H    0.0358606485   -0.3609169339   -0.9570350916
 H    1.7406451174    0.0691079370    0.8577968917
 H    1.1369972776   -0.1554952329    3.2269208756
 H   -0.5643408411    0.0362612182    2.7675764575
 H    0.7268264304   -2.6232623515    3.2862192039
 H   -0.7833890585   -2.4057511930    2.3785232003
 H    2.2948341635   -3.7454663538    1.2239824548
 H    2.8572525983   -1.4506478163   -0.7851364596
 H    4.0539313794   -2.1378275725    0.3353861096
 H    3.4247448504   -3.1154419799   -0.9994252020