12

 N    0.0882945502    1.4614648362    0.0067122554
 C    0.0704611352    0.1871148692    0.0005093763
 N   -1.1079768633   -0.5642328868    0.0071955918
 C   -2.4255395025   -0.1122624166    0.0246675278
 O   -2.7922078547    1.0281807888    0.0370241571
 C    1.2572392279   -0.6305829691   -0.0143282020
 C    2.2825225662   -1.2724577656   -0.0269117332
 C    3.4379637965   -1.9985238536   -0.0410621726
 N    4.4183973230   -2.6212669560   -0.0531104293
 H    1.0486182227    1.8023655186    0.0000642197
 H   -0.9888822540   -1.5661013357   -0.0006356668
 H   -3.1131055074   -0.9816800194    0.0256982359