23

 C    0.0371216525    1.5960679676    0.0594775599
 C   -0.0909269740    0.0751612037   -0.0612386472
 C    0.7450113327   -0.5050549079   -1.2066814655
 C    0.6181992702   -2.0236013604   -1.3314441091
 N    1.4599705839   -2.5222711129   -2.4166942586
 C    1.5067394908   -3.9753005250   -2.5549433431
 C    0.1992993323   -4.6675220332   -3.0014108176
 C    2.5931648832   -4.3239673597   -3.4889109081
 N    3.4214310851   -4.6084294102   -4.2423589602
 H    1.0763925785    1.8920611270    0.2391278770
 H   -0.2939912203    2.0952578344   -0.8579045688
 H   -0.5673188431    1.9828636295    0.8856086581
 H    0.2145441094   -0.3939545634    0.8833949254
 H   -1.1455876288   -0.1936569315   -0.2061312271
 H    0.4357175245   -0.0388140203   -2.1532695049
 H    1.8029766481   -0.2515526732   -1.0711115255
 H    0.9625542308   -2.4970814102   -0.4020276363
 H   -0.4482338840   -2.2906233189   -1.4406229221
 H    1.1881016868   -2.1012319570   -3.2999968959
 H    1.7934150841   -4.3776938500   -1.5740025439
 H   -0.5985949172   -4.4613288112   -2.2840754369
 H   -0.1102238951   -4.3029690958   -3.9855670463
 H    0.3336716395   -5.7510194714   -3.0649408833