19

 C   -0.1081666433    1.5200280863    0.0148188967
 C   -0.0113680881    0.0283894349   -0.0354923748
 C   -0.0988499872   -0.7482991726   -1.1213624477
 C    0.0489430014   -2.2122471290   -0.8170170220
 O   -0.9554010820   -3.0384452077   -1.3510122746
 C    1.4609964980   -2.8056694660   -0.9809754195
 O    1.7660478825   -2.5422473749    0.4050001647
 C    0.3892181719   -2.2141781756    0.7083005627
 C    0.2205019940   -0.7854928030    1.2270956700
 H    0.8212126168    1.9597780884    0.3978459393
 H   -0.3083548358    1.9495103780   -0.9702032172
 H   -0.9052713208    1.8382500671    0.6988890112
 H   -0.2507902754   -0.3890834476   -2.1347314066
 H   -1.7910082882   -2.5627684996   -1.2925952768
 H    1.4364149958   -3.8804806409   -1.2029862429
 H    2.1516502193   -2.2979822962   -1.6628622759
 H   -0.0868631420   -2.9896778609    1.3179612380
 H    1.1273938588   -0.4716969651    1.7579531548
 H   -0.6142380457   -0.6781614656    1.9335648806