23

 C    0.0068380236    1.3793628337    0.3710850351
 C   -0.0415724270   -0.0271595789   -0.2378412324
 C   -1.4066164150   -0.6733656164   -0.0868064362
 C   -1.7088164671   -2.1447702215   -0.1378971976
 C   -1.9215584498   -1.3496896273    1.1605266259
 C   -0.8298638095   -2.1712022182    1.8641786771
 O   -1.2631283084   -2.8972647321    2.9929795579
 C   -0.6144393068   -2.9955716057    0.5369487445
 C   -0.9492455591   -4.4791357331    0.6419610864
 H    0.9915584986    1.8378452480    0.2371210190
 H   -0.7336745062    2.0379767111   -0.0964796518
 H   -0.2095013802    1.3506019810    1.4441425716
 H    0.2075162899    0.0259507037   -1.3056625356
 H    0.7350412740   -0.6476959565    0.2206544661
 H   -2.1930607490   -0.0891221078   -0.5655487384
 H   -2.4523210232   -2.5459961951   -0.8193026694
 H   -2.8414134958   -1.0387186324    1.6453563390
 H    0.0437707577   -1.6109001171    2.2121998095
 H   -2.0997652954   -3.3210691506    2.7740694523
 H    0.3843119779   -2.8884112302    0.0976211260
 H   -1.9709004046   -4.6475242530    1.0018824574
 H   -0.8755305539   -4.9543909474   -0.3418267485
 H   -0.2658753207   -4.9931721842    1.3235700120