10

 C    0.0445624043   -1.1872057398   -0.0046768072
 C    0.0136627893    0.0153712310    0.0025229298
 C   -0.0351104961    1.4278657349    0.0111355903
 C   -1.1303411889    2.2378666432    0.0304158690
 O   -0.7055213180    3.5296150260    0.0319929949
 C    0.6473595891    3.4385277411    0.0132995689
 N    1.1104279683    2.2362664635    0.0002746901
 H    0.0787992971   -2.2485135744   -0.0111279085
 H   -2.1924401585    2.0681894371    0.0437354117
 H    1.1945062135    4.3679979673    0.0111842809