18

 C   -0.0252906430    1.4738416992    0.0509060823
 C    0.0454233481   -0.0271410384    0.0164047249
 C    0.6985819850   -0.9503956013   -1.0608467402
 C    0.0828639365   -1.9274175054   -0.0216126077
 C    0.6603202053   -0.9971144814    1.0830033174
 C   -1.1808360654   -1.0000650001   -0.0160281476
 O   -1.9963116249   -0.9390698728    1.1276522937
 C   -2.0219883114   -1.0039869135   -1.2213055058
 N   -2.7267706964   -1.0285326873   -2.1378541906
 H    0.9785996406    1.9075557408    0.1027540666
 H   -0.5175875210    1.8641944656   -0.8459793017
 H   -0.5892480332    1.8146789456    0.9248509895
 H    0.2678103978   -0.9372200690   -2.0644090879
 H    1.7892899607   -0.9290039595   -1.0935843025
 H    0.0802045626   -3.0168303839   -0.0515110866
 H    1.7497016214   -0.9770766299    1.1581864960
 H    0.1809302645   -1.0247409930    2.0596673609
 H   -2.6482014972   -1.6472360757    1.0842082093