20

 C   -0.0564093209    1.5248851893    0.0845695968
 C    0.0327009327    0.0052580731   -0.0543294957
 C    0.7403336789   -0.4410516861   -1.2988213096
 N    1.2411847384    0.3252556238   -2.1912327890
 C    1.8267743444   -0.5484305910   -3.2152499064
 C    1.5756054935   -1.9805907495   -2.7560822718
 N    0.8915906087   -1.8078572916   -1.5512001125
 N    1.9183320127   -3.0466335972   -3.3491661781
 C    1.5675681805   -4.3077906531   -2.7168830881
 H    0.9398651264    1.9721108548    0.1054597264
 H   -0.5914318567    1.9615657112   -0.7616422693
 H   -0.5803087430    1.7916425457    1.0065397961
 H    0.5509262719   -0.4311320102    0.8109511327
 H   -0.9712420312   -0.4416912642   -0.0507504698
 H    1.3680879123   -0.3599029269   -4.1921833256
 H    2.8986831494   -0.3502380526   -3.3251213527
 H    0.5626349317   -2.5502526762   -0.9591824244
 H    1.9162844196   -5.1375658345   -3.3365900848
 H    2.0299771643   -4.4222084048   -1.7230124720
 H    0.4791615364   -4.4263853199   -2.5898756920