19

 C    0.0374595169    1.5581225333   -0.0904000974
 C    1.5951731528    1.4985323182    0.0229046058
 C    1.3830134692    0.1378030957    0.6719397007
 O    2.2765450926   -0.9135816096    0.9514874338
 C    1.6233582783   -0.2494560894    2.0611619401
 C    0.4783897501   -0.9727939322    2.7532222487
 O   -0.7830186649   -0.4488141448    2.3532862567
 C   -1.0443078841   -0.6723615361    0.9772581511
 C   -0.0140685132    0.0041215422    0.0710524341
 H   -0.4095279559    2.0592506958    0.7715972983
 H   -0.3786813534    1.9718873278   -1.0097530296
 H    2.0652468961    1.4108727500   -0.9614119118
 H    2.1073528717    2.2713861116    0.6000512789
 H    2.3011206279    0.3390223309    2.6766784437
 H    0.5386156172   -2.0500167817    2.5312034742
 H    0.5270483569   -0.8359792903    3.8364474816
 H   -1.0558507419   -1.7567324140    0.7750242447
 H   -2.0505045739   -0.2838563278    0.7911305571
 H    0.0117575880   -0.4828042496   -0.9094940008