23

 O   -0.3374222943    1.5596376140   -0.0180071399
 C   -0.2833652439    0.2128587613    0.4344936996
 C   -1.4408843595   -0.5332947441   -0.1938459714
 C   -1.4059262453   -0.8245878439   -1.7176926135
 C   -2.0181307569   -2.2197948445   -1.4251410173
 C   -1.5990520755   -2.0561905952    0.0641264316
 C   -0.4097180913   -2.9489924730    0.5305834934
 C   -1.4346758717   -3.8537275271    1.2659026714
 C   -2.4570070132   -2.6882167154    1.1852292186
 H    0.4231581703    2.0274028447    0.3389595723
 H    0.6675180622   -0.2634865126    0.1447846139
 H   -0.3531590171    0.1594129976    1.5346217122
 H   -2.3713754762   -0.0166518331    0.0713971933
 H   -1.9613153652   -0.1523222456   -2.3742309576
 H   -0.3776983138   -0.8961085022   -2.0864743601
 H   -3.1071831637   -2.2202183427   -1.5385490614
 H   -1.6130498498   -3.0782167658   -1.9689703392
 H    0.2137260722   -3.4034610526   -0.2448979638
 H    0.2438567284   -2.4312999675    1.2399493852
 H   -1.7402226636   -4.7050828574    0.6515640904
 H   -1.1615675934   -4.2229920894    2.2570936759
 H   -2.4464309976   -2.0766660224    2.0941854090
 H   -3.4961697112   -2.9298367230    0.9425681774