19

 C   -0.4220598611    1.4850268504   -0.1872711534
 C   -0.0667724514   -0.0045178706   -0.1658996240
 C    0.9858369246   -0.4127781213   -1.2127563918
 O    0.6677929235    0.0267289633   -2.5245704118
 C    2.3442048366    0.2325734241   -0.9063554122
 O    2.7981957361    0.3292006446    0.2031508858
 C    1.2022862319   -1.9293636480   -1.1529793209
 C    0.7019599939   -2.8417025497   -2.1885660972
 O    2.0846781713   -2.4972690020   -2.1178081466
 H    0.4437316370    2.0995454159    0.0758115873
 H   -0.7675623331    1.8008064197   -1.1755485846
 H   -1.2148457152    1.6988677792    0.5348564242
 H    0.3250037170   -0.2789989463    0.8184924373
 H   -0.9670675639   -0.6126291606   -0.3299383440
 H   -0.2616618897   -0.1607025688   -2.6904654653
 H    2.8826031975    0.5854835708   -1.8101583249
 H    1.3407961513   -2.3114595711   -0.1409127352
 H    0.4572904984   -3.8692394229   -1.9229223259
 H    0.1762708853   -2.4423792568   -3.0532788568