14

 C    0.0325199438    1.4666488794   -0.0117331469
 N   -0.0015993796    0.0072750149   -0.0118930318
 C   -0.0450272204   -0.6773858446    1.1974017381
 O   -0.0569649648   -0.1305556105    2.2729634807
 C    0.0102197964   -0.6691266866   -1.2194996558
 N   -0.0186033179   -1.9755040285   -1.3354673702
 O    0.0071147703   -2.2187095100   -2.6866687495
 N    0.0515215339   -1.0671307156   -3.4027378892
 C    0.0544737277   -0.1001625060   -2.5294933403
 H    0.9456282662    1.8351539416   -0.4898216442
 H   -0.8387608368    1.8767845965   -0.5320816752
 H    0.0153202937    1.7845298337    1.0295261497
 H   -0.0672140291   -1.7676998087    1.0556196346
 H    0.0865680066    0.9313634145   -2.8393761801