19

 C    0.0254275284    1.4534695338    0.1819037368
 O    1.4114318591    1.5935425165   -0.2603861685
 C    1.3518846039    0.2747855292   -0.7713658860
 C    2.4358129346   -0.7633841960   -1.0107867387
 C    1.4566135653   -1.4262458657   -2.0398391789
 C    0.1942464390   -2.1225032029   -1.4484479271
 C   -0.5210917275   -0.7500880890   -1.2634760203
 C    0.0630498298   -0.0872138390   -0.0052399176
 C    0.6304303529   -0.0965767275   -2.1192300238
 H   -0.1009149998    1.8125866613    1.2069460539
 H   -0.6628762885    1.9903005223   -0.4828180596
 H    3.2945294840   -0.3433937533   -1.5461890363
 H    2.7922458945   -1.3445452287   -0.1545276335
 H    1.9168153518   -1.9022880769   -2.9044053999
 H   -0.2991281530   -2.7156789561   -2.2237182133
 H    0.3182450264   -2.7491145544   -0.5581327656
 H   -1.5898986547   -0.6915595930   -1.4760739783
 H    0.0802326709   -0.6528738298    0.9297552616
 H    0.5411677129    0.5489990893   -2.9888714849