17

 C   -0.1153637525    1.5692561307   -0.0754794347
 C    0.0397711856    0.0698104291    0.0313545692
 C    1.3417333814   -0.7180551802   -0.2070843584
 C    2.6096200393    0.0573751830   -0.0510834308
 C    2.7944887774    0.5038787928    1.2033511985
 C    1.6851665035    0.0202762311    2.0571946521
 O    1.5556151006    0.0797710386    3.2617731007
 C    0.7073163452   -0.7061015433    1.1554108010
 O    0.0571343160   -1.7844158739    1.7343933155
 H    0.7823694833    2.1054154219    0.2396868763
 H   -0.3359746649    1.8600562442   -1.1084660337
 H   -0.9467237415    1.9104465142    0.5501581361
 H   -0.8263193620   -0.4873538720   -0.3225477746
 H    1.3067862785   -1.5821880521   -0.8597893266
 H    3.2663014268    0.2677519025   -0.8886119096
 H    3.6102997194    1.1101163242    1.5733685011
 H    0.0806581138   -1.6102548109    2.6870701179