17

 C    0.1416793079    1.5447547641    0.0820085203
 C    0.0725215458    0.0339523022   -0.0214814305
 C    0.7911992185   -0.5844393111   -1.2683057821
 C    1.4396664879   -1.7881020527   -0.6559450615
 C    2.1261048668   -2.9342744051   -0.8794528982
 O    2.4491867368   -3.5177652956    0.3097769913
 C    1.9622632286   -2.7227941937    1.3268812312
 C    1.3441197446   -1.6599527708    0.7577218846
 O    0.6955693255   -0.5437339381    1.1683013051
 H    1.1827252261    1.8818666095    0.0868921905
 H   -0.3699020455    2.0052833701   -0.7691881419
 H   -0.3391580178    1.8917721103    1.0005247922
 H   -0.9740685187   -0.2984846887   -0.0135505901
 H    0.0731495098   -0.8037068724   -2.0631498544
 H    1.5300945472    0.1168598545   -1.6758429534
 H    2.4529094183   -3.4642372058   -1.7586038180
 H    2.1446300680   -3.0656471567    2.3288517448