21

 C   -0.0058235024    1.3415893175   -0.2591694118
 N    0.0271767077   -0.0644989658    0.0821565835
 C   -1.0592571347   -0.6951789346    0.0389507380
 O   -1.1146679020   -2.0000599439    0.3780547241
 C   -2.3571662032   -2.6523727028    0.1659924159
 C   -2.5157693780   -3.3152575115   -1.2264988055
 N   -2.0893705313   -4.5958870785   -0.6353683991
 C   -2.7500402123   -5.8103741234   -1.0488455124
 C   -2.3205325973   -4.0859107241    0.7289821196
 H    0.6802920100    1.5341816651   -1.0918823698
 H   -1.0050432249    1.7129284275   -0.5420100953
 H    0.3521204444    1.9354314748    0.5898253566
 H   -2.0288767744   -0.2576048792   -0.2504457798
 H   -3.1803535656   -2.0129601726    0.4974930649
 H   -3.5664260528   -3.3068126334   -1.5630085019
 H   -1.8755398775   -2.9373762558   -2.0309533355
 H   -2.5344533078   -6.0102934386   -2.1037384105
 H   -2.3721612281   -6.6563651165   -0.4651053465
 H   -3.8506581213   -5.7733444264   -0.9253010899
 H   -1.5236691427   -4.2993335598    1.4479599914
 H   -3.2917585859   -4.3824546080    1.1578890141