25

 C   -0.7881217678    1.1038712258    0.1311623043
 C    0.0888650918   -0.1474638102    0.0017168046
 C    1.1010542030   -0.0106990038   -1.1423237172
 C    0.8151772937   -0.4587742065    1.3094063057
 O   -0.1398837231   -0.6997930305    2.3302158631
 C    0.4317625620   -1.0176760518    3.5585064568
 C    0.9136356677    0.0925578426    4.4645065431
 C   -0.3500580086   -0.6826535853    4.7933835275
 C   -1.7044077669   -0.0158993527    4.7015579575
 H   -0.1750789858    1.9894505198    0.3401244686
 H   -1.3393986534    1.2933815935   -0.7956505209
 H   -1.5099524557    0.9931364351    0.9435073560
 H   -0.5640549244   -1.0045935602   -0.2107849434
 H    1.7877535444    0.8253951812   -0.9634724134
 H    1.7029041690   -0.9180840307   -1.2607037535
 H    0.5916032700    0.1795986146   -2.0920075500
 H    1.4592461817   -1.3450217428    1.1833400363
 H    1.4704668238    0.3815108423    1.5939718964
 H    1.0047142519   -1.9470010376    3.5503347264
 H    1.8058364072   -0.0590475662    5.0624929336
 H    0.7788706783    1.1051752151    4.0974958573
 H   -0.2586618826   -1.4067543435    5.5991247222
 H   -1.7488872639    0.6629750763    3.8471431484
 H   -2.5014236509   -0.7569554073    4.5769167213
 H   -1.9188299812    0.5587652427    5.6090649993