16

 O   -0.1586595973    1.4000122553    0.1656499255
 C   -0.0196840711    0.0503506215   -0.2296319473
 C   -1.2300751909   -0.7604004492    0.1648517504
 C   -1.1768175437   -2.2334963541    0.4696487046
 N   -1.2564005464   -1.2532545616    1.5278448614
 C   -2.2208180109   -1.0310196121    2.4723890830
 O   -2.7117501774    0.0536170687    2.7130680530
 C   -2.6112739705   -2.2425384570    3.3268835625
 O   -2.2813066884   -3.3747276671    3.0966865370
 H   -0.4066684036    1.4072333863    1.0978459399
 H    0.0885188527    0.0568632409   -1.3194707533
 H    0.8816276009   -0.4171275570    0.1974026386
 H   -2.1771769843   -0.3685005157   -0.2035758784
 H   -2.0592040975   -2.8309519791    0.2615074261
 H   -0.2334865806   -2.7676449191    0.3967214342
 H   -3.2676885709   -1.9528317907    4.1725261626