14

 C   -0.0286834147    1.4922203243    0.0894977380
 C    0.0019575990    0.0098729680   -0.0871582600
 C   -0.0273931271   -0.7862245342   -1.2134792192
 C    0.0300940251   -2.0971376827   -0.7027624924
 N    0.0905441721   -2.1483779030    0.6190159989
 N    0.0719472933   -0.8566910277    0.9667347445
 N    0.0273060474   -3.3186948865   -1.4854817879
 O   -0.0318164778   -3.1699574118   -2.7031894842
 O    0.0818427229   -4.3866819431   -0.8989161083
 H    0.8739799819    1.8576340844    0.5914038707
 H   -0.0921537627    1.9808712667   -0.8841969903
 H   -0.8930056263    1.8101822670    0.6828200608
 H   -0.0815244443   -0.4849313358   -2.2444554974
 H    0.1094843510   -0.6242638457    1.9467096570