18

 O    0.0780208046    0.0142123160    0.2773905225
 C   -0.0180339414    1.1899264120    0.0432713774
 C   -1.1633047869    2.2249693235   -0.1020579980
 C   -0.0290055306    3.2850904796   -0.2054994443
 C    0.1971747531    4.2370503730    0.9722132970
 C    1.6758504913    4.4184231388    1.2366641555
 C    2.6150670321    3.5468202057    0.8683614877
 C    2.3333541249    2.2647014751    0.1287330473
 N    0.9263343920    2.1679021633   -0.1746967710
 H   -1.7810427641    2.0990266425   -0.9929779552
 H   -1.8026742083    2.3075210642    0.7792828934
 H   -0.0011486903    3.8352356936   -1.1528062961
 H   -0.2761461413    5.2061432254    0.7773940899
 H   -0.2864518333    3.8393744553    1.8760001567
 H    1.9684239959    5.3151473765    1.7764134281
 H    3.6602485348    3.7428603854    1.0903910422
 H    2.9461485891    2.2195019016   -0.7850685117
 H    2.6146670282    1.3912834187    0.7311770486