23

 C    0.0113946905    1.5729957540    0.0193906643
 C    0.0181162029    0.0275463888    0.0198504443
 C    0.5711137587   -0.4897456809   -1.3231470388
 C    0.1466852998   -1.9106626269   -1.7202697096
 C    0.4965901926   -2.9903494233   -0.6748560034
 C    1.9487885602   -2.9701902991   -0.2954475028
 C    2.4711755160   -2.1786625992    0.6494607893
 C    1.7357962087   -1.2639573856    1.5284290237
 C    0.7123426847   -0.4303635366    1.2874838141
 H    1.0278432921    1.9637939070   -0.1004321642
 H   -0.5995568065    1.9582096857   -0.8031250141
 H   -0.3908618135    1.9733896806    0.9554962707
 H   -1.0357357488   -0.2865452882    0.1002677939
 H    0.2269387906    0.1902149809   -2.1118901014
 H    1.6632851002   -0.4131590473   -1.3140156666
 H   -0.9356675223   -1.9346047510   -1.9011711307
 H    0.6231108955   -2.1614591653   -2.6763840014
 H   -0.1103968080   -2.8218573434    0.2225423522
 H    0.2209884023   -3.9743029474   -1.0704962508
 H    2.6167261487   -3.6280997211   -0.8475960718
 H    3.5343857700   -2.2703826973    0.8671545856
 H    2.0883378818   -1.2832072410    2.5606520964
 H    0.3253509236    0.0896409066    2.1648289111