16

 O   -0.2176720634    1.4528860812    0.0529627101
 C   -0.1487380688    0.0440585083    0.0434359982
 C   -0.4833988699   -0.8057586334    1.2443645853
 C   -1.5564979710   -0.1077949895    2.0845762782
 C   -2.5104462803   -0.1056440845    0.8357665906
 O   -3.0664135192    1.0978747397    0.3782454548
 C   -1.4013444684   -0.7649231474    0.0046006899
 O   -1.6065383727   -1.7654560399   -0.9282859903
 H    0.4801768611    1.7896599669    0.6255286349
 H    0.6445207946   -0.3615564648   -0.5838261399
 H    0.1776645241   -1.5959947672    1.5781723648
 H   -1.9333955534   -0.7144167219    2.9100363142
 H   -1.2952827268    0.8851039625    2.4603782618
 H   -3.3388924480   -0.8038891075    0.9798106718
 H   -2.3202491717    1.6874667030    0.2068001905
 H   -1.8061088861   -1.3518873354   -1.7759975848