18

 C    0.1089630699    1.4745328980    0.4768334572
 C   -0.0368149112   -0.0298597532    0.2375652612
 C   -1.4653079872   -0.4344293719   -0.1560857884
 C   -1.5780979474   -1.9196213283   -0.4055275494
 O   -1.6652449926   -2.7843844607    0.7195206009
 C   -2.7905329468   -2.7449848418   -0.1671419774
 C   -4.0463131751   -2.1600789307    0.3909998034
 O   -5.1385369837   -2.3938960301   -0.0606261408
 H    1.1351235034    1.7335580036    0.7539799660
 H   -0.1487747852    2.0462855694   -0.4215772061
 H   -0.5496143620    1.8126780583    1.2842762243
 H    0.6582579715   -0.3477735773   -0.5505622650
 H    0.2495666524   -0.5819635459    1.1405155439
 H   -2.1638235274   -0.1298846658    0.6295450997
 H   -1.7630678126    0.0952833152   -1.0708261939
 H   -0.9171016024   -2.2965969229   -1.1903667762
 H   -2.9434449840   -3.6291937576   -0.7847816067
 H   -3.8961720997   -1.4992981385    1.2714033873