13

 N   -0.0587909527   -1.0993807493   -0.0033484605
 C   -0.0106173806    0.0538058822    0.0023118430
 C   -0.0005063475    1.5166889996    0.0107182226
 O    1.3585483108    1.9449849649   -0.0025054233
 C    1.5211567672    3.2824081853    0.0030123090
 C    2.7175956248    3.9647519430   -0.0073791942
 N    2.3137389117    5.2602845864    0.0047263938
 N    0.9835285835    5.3801780463    0.0210228157
 N    0.4943067693    4.1635490494    0.0201467422
 H   -0.5400712796    1.8987643840   -0.8637276431
 H   -0.5196683616    1.8885169660    0.9017766170
 H    3.7465597831    3.6540966247   -0.0213343179
 H    2.8806834616    6.0936554774    0.0027001058