13

 O   -0.9096603993    1.2548308418    0.5325261535
 C    0.0167398966    1.1356164092   -0.2339608195
 C    1.2412878343    1.8960676665   -0.1492397413
 C    2.2842766406    2.5021027852   -0.1075962238
 C    3.5004476745    3.3078829160   -0.0328808270
 C    3.0996146999    4.7928107382    0.2281179320
 O    3.3697950478    5.6788920085   -0.5267121771
 C    4.3843330079    2.8768251750    1.0490057301
 C    5.1084427183    2.5841126373    1.9607927388
 H   -0.0121851516    0.4161668978   -1.0763481518
 H    4.0306294248    3.2939385334   -0.9927338976
 H    2.5506934466    4.9397115535    1.1788412184
 H    5.7533297095    2.3056811175    2.7581129652