16

 O    0.2868497247    0.0779254184    0.3450956497
 C    0.1805030299    1.2541367017    0.1514739109
 N   -0.9525897590    2.0845554016    0.0337883074
 C   -0.1362253419    3.2933313138   -0.0987921221
 C    0.8262886761    3.4806795929    1.0344820609
 C    0.5294624795    3.1568405297    2.4935003378
 C    1.7449009726    2.9577147164    3.2753851642
 C    2.7595183448    2.8087586193    3.9011833630
 C    1.1238403336    2.4360880091   -0.0454364164
 H   -1.7708338504    2.0035813581    0.6268097951
 H   -0.4003264186    4.0547310116   -0.8211064267
 H    1.4588858981    4.3586574472    0.9156329458
 H   -0.0527504816    3.9808458593    2.9272632768
 H   -0.1016529565    2.2638903700    2.5639416865
 H    3.6496760580    2.6638804810    4.4615535108
 H    2.0143877706    2.4682148997   -0.6561229037