18

 C   -0.0411303312    1.4821923314   -0.0489270648
 C   -0.0055894476   -0.0032227276    0.1056529132
 C   -1.0073519917   -0.8596288304    0.2908226563
 C   -2.4009721712   -1.2212283533   -0.1605499908
 O   -1.8663846087   -2.4882585098   -0.6559962625
 C   -0.6250359087   -2.2896744244    0.1123707775
 C    0.7548675418   -2.2145430767   -0.5592057362
 C    1.2804296758   -0.8244967949   -0.0679721307
 H    0.5234573501    1.9803629229    0.7500056839
 H    0.4216785727    1.7919997159   -0.9946145064
 H   -1.0643303477    1.8669306125   -0.0220452250
 H   -3.1426592509   -1.3932938469    0.6310894361
 H   -2.8473771773   -0.6094099354   -0.9523774250
 H   -0.6432349720   -2.9451524954    0.9941357679
 H    1.4239583104   -3.0445474162   -0.3153479527
 H    0.6154460458   -2.1899400803   -1.6446372112
 H    1.9545624590   -0.3551997440   -0.7935723474
 H    1.8510349015   -0.9177214973    0.8663100578