18

 C   -0.1952981821    1.6386103726    0.1006516009
 C   -0.1271494311    0.1122626764    0.0263723898
 C    0.7668989891   -0.4891287139    1.1303977543
 C    0.8467736929   -1.9733046270    1.0955260692
 C    1.8245219951   -2.8541860571    0.7300550484
 N    3.1338438709   -2.6212354814    0.2982573437
 N    1.3199405032   -4.1183756220    0.9248920955
 N    0.1376691849   -4.0608191980    1.3690803112
 O   -0.2189225453   -2.6979340120    1.4751765975
 H    0.7976023477    2.0877409889   -0.0131129016
 H   -0.8364743431    2.0430984530   -0.6879691865
 H   -0.6001966800    1.9703771203    1.0629506566
 H   -1.1324157469   -0.3143144117    0.1156340855
 H    0.2533087517   -0.1993254379   -0.9540395349
 H    1.7868447030   -0.0974423236    1.0444539028
 H    0.3878088011   -0.1754647989    2.1110107443
 H    3.1792310718   -2.1278443035   -0.5851838148
 H    3.6348365773   -3.4971217141    0.2098485684