21

 C   -0.0116865567    1.6057713247   -0.2384889213
 C   -0.0476129839    0.0882593857   -0.0294770189
 C    1.0689984817   -0.5898181302   -0.8634924796
 C    2.2514846380   -0.6838085304    0.1528754280
 C    1.5122941711   -0.9469367529    1.4658191987
 C    0.2619946507   -0.5033059213    1.3467478147
 C   -1.1254792530   -0.9392714104    1.6320154647
 C   -2.1747416135    0.0891131277    1.2988588419
 C   -1.4585754578   -0.5485992644    0.1478197462
 H    1.0161793965    1.9771827530   -0.1708116093
 H   -0.3900037953    1.8604956234   -1.2354233243
 H   -0.6030511792    2.1594371483    0.4939275977
 H    0.7708458576   -1.6057914246   -1.1457007930
 H    1.3186726982   -0.0442717902   -1.7804435504
 H    2.9347456928   -1.5028954723   -0.0951273156
 H    2.8599968182    0.2317635585    0.1627297128
 H    1.9044138506   -1.5819654484    2.2517048276
 H   -1.3828670245   -1.8474123849    2.1639163273
 H   -3.1924345028   -0.2575133127    1.4546636713
 H   -2.0345811401    1.1358450025    1.5473385808
 H   -1.9725526485   -1.1658143611   -0.5805822794