15

 C   -0.2657317709    1.3551197379    0.0206786782
 O    0.1461977140   -0.0130196083    0.0627948261
 C    0.7153874650   -0.4427593584   -1.0821449004
 C    0.2942040388   -0.8500801592   -2.4481162143
 O    1.3508458750   -0.1808148843   -3.1330501550
 C    2.0772665153   -0.1429552094   -1.8793720861
 C    2.3926023171   -1.6353789743   -1.5991462303
 O    3.3884052813   -2.2369421482   -1.3217443828
 C    0.9217440579   -1.9190545688   -1.5224959909
 H    0.5915671838    2.0177893238   -0.1480758088
 H   -1.0072748031    1.5170064463   -0.7705225291
 H   -0.7094814538    1.5736435448    0.9927769856
 H   -0.6611639762   -0.9891214292   -2.9364560538
 H    2.7997256592    0.6633083984   -1.7882604779
 H    0.3858776564   -2.7937934210   -1.1825503105