19

 C   -0.1810957896    1.5718960753   -0.0441811852
 C    0.0609651732    0.0725988589    0.0137802727
 C    1.1559529075   -0.5586704742   -0.8861522873
 O    2.4115027463    0.1532142328   -0.7800728654
 C    2.7515326172   -0.5533428059    0.4349897760
 C    2.0710509892    0.0734257378    1.6746581358
 C    0.7401522865   -0.6066898388    1.2457457875
 O   -0.0768707012   -1.1611337881    2.2333845082
 C    1.5514765778   -1.5265469737    0.2611694666
 H    0.7666933198    2.1161951826   -0.0278181406
 H   -0.7073007709    1.8494146216   -0.9640113977
 H   -0.7928124535    1.9142641825    0.7985952392
 H   -0.8660935915   -0.4896751285   -0.1575884628
 H    0.9207998230   -0.8190070738   -1.9197427802
 H    3.8099771296   -0.8146505124    0.4747821951
 H    2.4338697852   -0.4113611780    2.5872707304
 H    2.1166184452    1.1603294606    1.7852557229
 H   -0.4656207927   -0.4427119705    2.7451631201
 H    1.5644521890   -2.6119736982    0.2496767449