16

 N    0.1149289792    1.4606972093    0.1027500340
 C    0.0866504283    0.0447355167   -0.0108237047
 C   -1.1879366876   -0.6757237325    0.2512450831
 O   -2.2817463928    0.1367571741    0.5398003309
 C   -3.5081749388   -0.3258057329    0.1621439481
 N   -4.5340122788    0.2993206866    0.5303692285
 C   -0.6292044932   -0.7106606694   -1.1771667544
 C   -1.2546179677    0.0593542513   -2.2039866336
 N   -1.7474764797    0.6957456792   -3.0362387537
 H    0.6368319307    1.8938047604   -0.6507735391
 H   -0.8218045091    1.8482561415    0.1145764466
 H    0.9930367407   -0.4531589722    0.3227611475
 H   -1.1637407921   -1.6123330481    0.8030650972
 H   -3.4575038697   -1.2307270775   -0.4542680891
 H   -5.3706090265   -0.1471477636    0.1604524206
 H   -0.1960645328   -1.6503211928   -1.5041847320