19

 O    0.1725547123    1.3936440540   -0.0694962070
 C    0.0192196076   -0.0135123540   -0.1255434853
 C   -1.4000116858   -0.4784022400   -0.0086506162
 C   -2.5071747252    0.2689069413    0.0193219573
 C   -3.7449621602   -0.5699252551    0.0529120602
 C   -3.9532459027   -1.4199790045   -1.1852698147
 C   -3.2558657385   -1.9998738107    0.0271670996
 C   -1.7273953571   -1.9686536826    0.0636872948
 O   -1.0761428688   -2.7416134637   -0.9401496355
 H   -0.1609771129    1.6842950461    0.7857856606
 H    0.4362089927   -0.3286394764   -1.0895092967
 H    0.6324511413   -0.5197242565    0.6409044199
 H   -2.5270872449    1.3509249614   -0.0430556991
 H   -4.6055016822   -0.2622938504    0.6359483867
 H   -4.9515035065   -1.7928591279   -1.3899679959
 H   -3.3811354609   -1.1578481418   -2.0705927257
 H   -3.7705185679   -2.7825400440    0.5706025420
 H   -1.3585730965   -2.3978107064    1.0049641676
 H   -1.4982156039   -2.5294200985   -1.7805054924