23

 C    0.0362617484    1.4984322920    0.0021121255
 C   -0.0303715102   -0.0347026125    0.0238686636
 C   -1.4698213230   -0.5523718878    0.0394818931
 N    0.6797043646   -0.6354866220   -1.1072248112
 C    2.0627630143   -0.6780018932   -1.0978001148
 O    2.7144570297   -0.3431023672   -0.1171501058
 N    2.6488457334   -1.1646572067   -2.2513125848
 C    4.0904457421   -1.0774505001   -2.3890961040
 C    1.8973209204   -1.6591131512   -3.3853494255
 H    1.0783032993    1.8251761000    0.0101142060
 H   -0.4545502757    1.9000357903   -0.8928890080
 H   -0.4657965061    1.9217074840    0.8784713147
 H    0.4930794477   -0.3856527606    0.9168135180
 H   -2.0141055940   -0.2345535799   -0.8590782101
 H   -1.4940447732   -1.6448396753    0.0831340837
 H   -2.0102646573   -0.1577616443    0.9047727639
 H    0.2189498227   -0.5471598749   -1.9995468690
 H    4.5213868205   -2.0641271748   -2.6011197264
 H    4.3750152431   -0.3981412572   -3.2046707507
 H    4.4964174199   -0.7030911139   -1.4508563945
 H    1.5867034617   -0.8644638790   -4.0828821383
 H    2.5200178079   -2.3614207086   -3.9474191325
 H    1.0087748639   -2.2031924173   -3.0539047829