17

 C   -0.1511643098    1.5775127152    0.0653434022
 C   -0.0254677167    0.0800099740    0.1133445294
 C   -0.9870285122   -0.8176955101   -0.6708510378
 C   -1.1332881411   -2.0921631069    0.1847655489
 O   -1.1814494516   -3.2855203430   -0.5461880679
 C    0.0044035043   -2.0653428448    1.2112759663
 O    0.3835759224   -3.0370157614    1.8161045789
 C    0.5425625311   -0.6588658098    1.2640460701
 O    1.3068161506   -0.4502055011    0.0587144492
 H    0.6331527964    2.0497051324    0.6616856515
 H   -0.0611564420    1.9354759302   -0.9657352527
 H   -1.1261658264    1.8956431977    0.4478892832
 H   -1.9496817049   -0.3296007834   -0.8412005871
 H   -0.5501470561   -1.0670936975   -1.6416205211
 H   -2.0441352783   -1.9747341383    0.8059740627
 H   -0.7921465022   -3.9636475673    0.0242704592
 H    0.9354611866   -0.2121887460    2.1727628651