19

 O   -0.1621302894    1.4286337574   -0.0857156079
 C   -0.1224699444    0.0274865214   -0.0083349453
 C   -0.5595092906   -0.7147779254    1.2367967449
 C   -1.2359988833    0.0843441274    2.3553936164
 C   -2.5201030979    0.6257592021    1.7397917468
 C   -3.5969712628   -0.3575486054    1.3051595905
 C   -2.6288465726    0.1745748933    0.2975670880
 O   -3.1178125707    1.0010752074   -0.7102480826
 C   -1.4362411775   -0.6932419725   -0.0096768578
 H    0.5256295438    1.7892481497    0.4831300349
 H    0.6869238000   -0.4257810202   -0.5797629097
 H    0.0034601809   -1.6028694863    1.5027494364
 H   -1.4253863855   -0.5600856440    3.2217501292
 H   -0.5990673026    0.9046143441    2.7100710686
 H   -2.8496092773    1.6252146721    1.9988085619
 H   -3.5271569535   -1.3981666805    1.6080252780
 H   -4.6053449325    0.0370553558    1.2499267062
 H   -2.4008393891    1.6150273008   -0.9165798839
 H   -1.5641274350   -1.5626836873   -0.6465960946