13

 N    0.0641942003    1.2755272467    0.1735308120
 C   -0.0344646270   -0.0721195036    0.0529035070
 N   -1.1370717094   -0.7728328423   -0.0134422014
 C   -0.6961895416   -2.0769693759   -0.0599653765
 N   -1.5832854927   -3.1047696804   -0.1885313575
 C    0.6792541913   -2.1105168691   -0.0182902234
 O    1.1053167525   -0.7691660720    0.0520104930
 C    1.6115515342   -3.1446773055   -0.0313227208
 N    2.3492976603   -4.0441306674   -0.0411642603
 H    0.9438128284    1.6912050748   -0.0879450715
 H   -0.7631317529    1.7914553691   -0.0790257201
 H   -2.5233680445   -2.8940480315    0.1081581060
 H   -1.2553258289   -4.0256559130    0.0571451037