17

 N    0.1831543540   -1.1361730110    0.3799165805
 C    0.1445795541    0.0055160635    0.2064332564
 C    0.0816474792    1.4487663848   -0.0230794036
 O   -0.3274392202    2.1947858649    1.1379312234
 C    0.8289048196    3.0733960537    1.0578552282
 C    1.8026052322    2.8977045156    2.2151917162
 C    2.5502704441    1.5914199515    1.8544225040
 N    2.5993083504    1.5358406635    0.3785393526
 C    1.4305296414    2.2338293665   -0.1121458473
 H   -0.5859393969    1.6383313740   -0.8737171130
 H    0.5241636221    4.1060856794    0.8672813056
 H    2.4930217410    3.7494609802    2.2323988515
 H    1.2875416283    2.8538240497    3.1781271419
 H    3.5591946148    1.5370495537    2.2683976546
 H    1.9953883364    0.7237928623    2.2248349375
 H    3.4371749669    1.9865094673    0.0316161305
 H    1.6106709327    2.7041444303   -1.0779441988