20

 C   -0.0574213009    1.5141173315   -0.3845390193
 C    0.0811163117    0.0698235845    0.0711339372
 O    1.1567568363   -0.4128325708    0.3448162241
 C   -1.2257525793   -0.6940261125    0.1419521392
 N   -1.1985171921   -2.2143003159    0.3537888409
 C   -0.9189415953   -1.8958203940    1.8389187145
 C   -2.0130752362   -0.8557713247    1.4937102938
 C   -2.6404332429    0.2110881373    2.3554686393
 C   -2.6760984100   -2.0388716670    0.7525915688
 H    0.8908616153    2.0353594157   -0.2492750712
 H   -0.3370613633    1.5436085765   -1.4443830156
 H   -0.8524206235    2.0276007435    0.1677845318
 H   -1.8524982062   -0.4059203096   -0.7115103456
 H   -1.2065339207   -2.7112999027    2.5085558067
 H    0.0981496436   -1.5596390316    2.0266246127
 H   -1.8872175936    0.9098827878    2.7353525074
 H   -3.3861050969    0.7856450733    1.7950092916
 H   -3.1435252393   -0.2375941115    3.2189718595
 H   -3.3393279445   -1.8205726783   -0.0900186107
 H   -3.0559280622   -2.8677186816    1.3564117649