13

 C   -0.0058553356    1.4481468014    0.1258568557
 N    0.1418056902    0.0054894593    0.0657815479
 C    0.6146668688   -0.5295376422   -0.9780022708
 N    0.7395197594   -1.9387192378   -0.9900622736
 N    1.2069313916   -2.6799516230   -1.9745031556
 N    1.5981460993   -2.1027520795   -3.0481284028
 C    1.4915014908   -0.7124468073   -3.0791291944
 N    1.0478841283    0.0732278579   -2.1614140035
 H    0.5651312165    1.8303598415    0.9798791521
 H    0.3211026904    1.9674786476   -0.7809595515
 H   -1.0575681421    1.6919765070    0.3154356994
 H    0.4452854393   -2.4482281947   -0.1662185843
 H    1.8372400432   -0.2762520803   -4.0139987387