23

 C    0.0578783786    1.5785435900    0.3804949929
 C    0.0516059921    0.0866390796    0.0218006592
 C    0.7826717136   -0.7420865614    1.0842073173
 C   -1.3955801209   -0.4076680248   -0.1345470837
 O   -2.0664893936   -0.2597792309    1.1075648236
 O    0.5780149131   -0.1412506501   -1.2980675708
 C    1.8959984069    0.2339475743   -1.5479459003
 C    3.0119977060   -0.7721903462   -1.4046870686
 C    2.5129517169   -0.3591210222   -2.7745698049
 H    1.0647476730    1.9410958172    0.6055422917
 H   -0.3491972213    2.1676253900   -0.4472972011
 H   -0.5660337438    1.7420602547    1.2621081256
 H    0.2548567462   -0.6624371776    2.0375483442
 H    0.8097595543   -1.7967872125    0.7935388188
 H    1.8096054679   -0.3953331164    1.2232825975
 H   -1.8784448815    0.1784201679   -0.9298414718
 H   -1.3682965951   -1.4580900840   -0.4590527359
 H   -2.9722802700   -0.5602472726    0.9966208974
 H    2.1283553588    1.2738162843   -1.3267238809
 H    3.9862404582   -0.4281741034   -1.0734676920
 H    2.7384871233   -1.7632767496   -1.0631516378
 H    1.9070795545   -1.0780294884   -3.3143374398
 H    3.1381591630    0.2697839820   -3.3981796608