22

 C   -0.1883907622    1.6491246970    0.1292000344
 C   -0.0495903781    0.1310431595   -0.0318076670
 C    0.8004498604   -0.5154281795    1.0685122835
 C    0.7590161894   -2.0614255958    1.1961428507
 C    0.7096922724   -2.7945490385   -0.1503622598
 C    2.0818818028   -2.3637356796    1.9448952157
 N    2.9564502356   -1.3070417288    1.4683043230
 C    2.3057764993   -0.2095761428    0.9751540393
 O    2.8382637253    0.8007828282    0.5627773536
 H    0.7941410536    2.1241475455    0.1158601097
 H   -0.7952156844    2.0719613287   -0.6775915011
 H   -0.6770079143    1.8992080547    1.0783245636
 H   -1.0450899391   -0.3312978244   -0.0216686217
 H    0.3868254839   -0.0938566629   -1.0114464755
 H    0.4827733947   -0.0950740192    2.0356221554
 H   -0.0964187301   -2.3753651959    1.8017745690
 H    1.5726836443   -2.5393694617   -0.7746802997
 H    0.7171950074   -3.8782556728    0.0051485055
 H   -0.1949075716   -2.5461780444   -0.7113348220
 H    1.9456348233   -2.3197164499    3.0355930761
 H    2.4807733298   -3.3527419507    1.6963094664
 H    3.9511377376   -1.2835284868    1.6262630408