20

 C   -0.1187336309    1.4433580750   -0.2222775425
 C   -0.0708851433   -0.0801461210   -0.0229097819
 N    0.7899171191   -0.4119376434    1.1044272106
 C   -1.4978818872   -0.6170072630    0.1328581546
 O   -1.9885184638   -0.9828151781    1.1708474800
 O   -2.1594651349   -0.6105290875   -1.0446329692
 C   -3.5269323196   -1.0733239350   -1.0152103204
 C   -4.0486557295   -0.9487349223   -2.4349862209
 O   -3.3272196915   -1.7575563512   -3.3421517406
 H    0.8965430605    1.8212843367   -0.3595875450
 H   -0.7256410948    1.7083289829   -1.0911681328
 H   -0.5483356915    1.9314199593    0.6595797698
 H    0.3516142946   -0.5322793185   -0.9275692618
 H    0.3184538244   -0.1291845891    1.9611160775
 H    0.8766872928   -1.4221291192    1.1782712675
 H   -3.5432580888   -2.1132171378   -0.6761795173
 H   -4.1053824141   -0.4666575761   -0.3113523776
 H   -5.0889097793   -1.2890737062   -2.4631359934
 H   -4.0348608504    0.1108357297   -2.7357012149
 H   -2.4016013715   -1.5025782852   -3.2620779015