18

 C   -0.0658604512    1.4754317433   -0.0047651053
 C   -0.0123434776   -0.0372313520    0.0047906886
 C    1.3122371661   -0.7207964089   -0.2628793335
 C    0.7105370492   -0.7332315621    1.1390090354
 C    0.5222005177   -2.2574954227    1.3282796278
 N    1.7720450935   -2.8774676984    0.7454684908
 C    1.3294805336   -2.2408115794   -0.5525882348
 C   -0.0640847150   -2.6755715058   -0.0408188955
 O   -1.0472084446   -3.1909478660   -0.4673532809
 H    0.8574031439    1.9077024324    0.3953814794
 H   -0.1997491060    1.8571190104   -1.0223103603
 H   -0.8981428806    1.8426885094    0.6046917217
 H   -0.9093412873   -0.5123285206   -0.3844204512
 H    2.1776825998   -0.1233115353   -0.5293693031
 H    1.1097385117   -0.1453817935    1.9588087600
 H    0.1631765260   -2.6349029605    2.2837822992
 H    2.6148407349   -2.4308418024    1.1111631790
 H    1.7771516059   -2.6015471981   -1.4765906274