20

 C   -0.2983287697    1.4782697558    0.1162290666
 C   -0.0370543705   -0.0334134421    0.0582063150
 C    0.7647665596   -0.4833336052   -1.1311332740
 C    0.2238124230   -0.7126504479   -2.5204812597
 C    0.8917197054   -1.8543253835   -1.7902680459
 C    2.4162263235   -1.6816218669   -1.7978156177
 N    2.2284545285   -0.3446945480   -1.2017883154
 C    3.0041605993    0.7496433355   -1.4275092686
 O    4.1341190228    0.7089707633   -1.8676796017
 H    0.6326952630    2.0425859033    0.2280302890
 H   -0.7952716039    1.8271616318   -0.7946122220
 H   -0.9381961535    1.7273144334    0.9681136292
 H    0.4728404490   -0.3594129629    0.9727732343
 H   -0.9959138467   -0.5649531523    0.0278252596
 H   -0.8571923805   -0.7870673941   -2.5899487654
 H    0.7030144163   -0.2526798730   -3.3807021381
 H    0.3705227663   -2.7664928529   -1.5343903854
 H    2.9446454691   -2.3619720835   -1.1236852741
 H    2.9199292747   -1.6667357532   -2.7691586541
 H    2.5015856143    1.6906996523   -1.1266014217