18

 C   -0.4587777811    1.1124603103    0.1611286295
 O    0.4557418396    0.0659378907   -0.1403828024
 C    0.9536002329   -0.5659089956    0.9756658836
 C    0.1484743862   -1.7105392751    1.6377253838
 C   -1.1275286144   -2.0891022897    1.1177950004
 N   -2.1611058962   -2.3998844823    0.6972607464
 C    1.4433030663   -1.9571769418    0.8216890211
 C    1.3723059326   -2.6587031108   -0.5117246183
 O    2.5759420212   -2.2268298024    1.5915327425
 H    0.0177101713    1.8873673236    0.7779176568
 H   -0.7613178238    1.5477018906   -0.7926019930
 H   -1.3442987668    0.7300663053    0.6827467033
 H    1.4937017214    0.0655079252    1.6824499356
 H    0.2586503190   -1.7993737829    2.7130761404
 H    0.5014472883   -2.3374869050   -1.0836020225
 H    2.2734870136   -2.4320470550   -1.0885708937
 H    1.3114872687   -3.7439778053   -0.3718872552
 H    2.6119881812   -3.1779067898    1.7472514817