15

 N   -0.0879269728    1.2942253800   -0.2657773922
 C   -0.1523172529   -0.0782401711   -0.1278327120
 C   -1.1769121968   -0.9327094373    0.0592405055
 C   -2.6469221374   -0.6755570585    0.0824128672
 O   -3.0055152878    0.3929250334   -0.7927916473
 N   -0.5670644956   -2.1965895869    0.2531838005
 C    0.7919359791   -2.0994252903    0.1581264305
 O    1.6501897496   -2.9343484454    0.2426842244
 O    1.0449344001   -0.7459637399   -0.0835322912
 H    0.6263677664    1.5954228326   -0.9177115846
 H   -0.9969778088    1.6776243487   -0.4962137286
 H   -3.1918773993   -1.6004875575   -0.1661522296
 H   -3.0018196829   -0.3565881690    1.0703655600
 H   -2.7484576947    0.1254432077   -1.6827159954
 H   -1.0271051761   -3.0708940564    0.4330987229