14

 C    0.0013957513    1.3008512914    0.0094541571
 C    1.2823990937    1.8100968619   -0.0002368631
 N    2.1032719571    0.7105430342   -0.0141410974
 C    3.4557004488    0.5604178509   -0.0280703629
 C    3.9641622498   -0.7050407623   -0.0398558278
 C    3.0608478710   -1.8010435068   -0.0370289962
 N    1.7531159650   -1.6741566743   -0.0236582109
 C    1.2496350652   -0.4311989350   -0.0120484884
 N   -0.0201193759   -0.0599070561    0.0022998445
 H   -0.9158408827    1.8719310309    0.0214541112
 H    1.6705541519    2.8150081404    0.0014281871
 H    4.0535193465    1.4639243711   -0.0289790930
 H    5.0341376037   -0.8643043383   -0.0510996398
 H    3.4509260745   -2.8160050881   -0.0463086204