13

 O    0.0499748352    1.3666643201    0.0085437563
 C   -0.0128434734   -0.0309376902    0.0017828523
 C   -1.4698239875   -0.4608695279    0.0112914763
 O   -2.4043646601    0.3013891574    0.0227365779
 C   -1.7143500677   -1.9296571214    0.0059703056
 C   -2.8775801059   -2.6393342214    0.0120567612
 N   -2.5312408173   -3.9669589513    0.0024407086
 N   -1.2812111059   -4.1041358682   -0.0084530760
 O   -0.6967360131   -2.7944998485   -0.0066817779
 H    0.9762308173    1.6249244963    0.0011921152
 H    0.4600476568   -0.4859695513   -0.8858583821
 H    0.4742790678   -0.4951123879    0.8769169639
 H   -3.8984645262   -2.3008372656    0.0221681388