14

 C    0.1085997187    1.5388136821   -0.0668838613
 C   -0.0330848282    0.0394480194    0.1170186644
 O    0.7710696811   -0.7334938731   -0.8225326071
 C    1.4857419099   -1.4172392224    0.2336979439
 C    0.7158931820   -0.6193617875    1.2541250790
 N    0.6643044846   -0.4699731071    2.5058602179
 O    1.5908822729   -1.3078842936    3.1508605981
 H    1.1560759964    1.8425060572    0.0087028561
 H   -0.2716560296    1.8323909861   -1.0499145442
 H   -0.4665384360    2.0658394106    0.7007717270
 H   -1.0887527907   -0.2605524650    0.0548249237
 H    1.2988637405   -2.4988569913    0.2434425428
 H    2.5681260604   -1.2410192115    0.2010080158
 H    1.4479673083   -1.0953568340    4.0795816541