21

 C   -0.1110940396    1.5276177680    0.0431455614
 C   -0.0121332098    0.0133759064    0.0044448392
 C   -0.8228564255   -0.7783563005    1.0133162215
 C    0.6853830529   -0.7130813015    1.1331499478
 C    1.5358545447   -1.9384263448    0.8038124643
 C    2.1956277498   -1.8389195886   -0.5766161375
 O    2.7408718147   -3.1247123374   -0.8609522891
 C    1.1897003153   -1.4056069918   -1.6218888941
 C    0.1845919150   -0.5745233092   -1.3501237428
 H    0.7951917528    1.9956675816   -0.3571538211
 H   -0.9598890136    1.8829620885   -0.5534308732
 H   -0.2520841146    1.8862832810    1.0678602078
 H   -1.4247390042   -0.2250591744    1.7278698300
 H   -1.2556327942   -1.7198970319    0.6912540808
 H    1.0681594978   -0.0821799970    1.9300079438
 H    2.3080129757   -2.0869430709    1.5646015705
 H    0.9254267808   -2.8476088989    0.7950111041
 H    3.0095436258   -1.0937782346   -0.5321222922
 H    3.2263218118   -3.0668180300   -1.6898744466
 H    1.3210175015   -1.8121608744   -2.6227096012
 H   -0.5189508472   -0.2824216196   -2.1280939133