19

 O   -0.5849526104    1.7071391130    0.4269718459
 C   -0.2245495502    0.3896553902    0.1601643167
 C   -0.2716249790   -0.7652941292    1.1317574687
 C   -1.1765363128   -0.6611596106    2.3528357936
 C   -2.5236157745   -0.2072845208    1.7996690068
 C   -3.6782120708    0.1412980291    2.6275073763
 O   -2.8692048277    1.1759024951    2.0562237329
 C   -2.6141091319   -0.6473794511    0.3420259492
 C   -1.1666294460   -0.7566578321   -0.1201321638
 H   -1.3693054276    1.7498606946    0.9877000717
 H    0.6590213978    0.4008630046   -0.4714609985
 H    0.5941166333   -1.4153978509    1.2025839571
 H   -1.2724064295   -1.6470610993    2.8237610966
 H   -0.8231306261    0.0400477998    3.1154785156
 H   -4.6838114603    0.0615475842    2.2161657741
 H   -3.6148742071    0.0512930265    3.7113353687
 H   -3.0970408693   -1.6296046190    0.2714765340
 H   -3.2168779464    0.0629358997   -0.2327215379
 H   -0.9577502415   -1.4004010938   -0.9681447879