18

 C   -0.0571345002    1.4566696316   -0.0617946914
 C   -0.0708514002   -0.0313562443   -0.0429229968
 C   -0.2163646280   -1.0896530145   -1.1100338113
 C    0.7707095250   -1.9589116307   -0.2973677900
 C   -0.1342835478   -1.9415712016    0.8797951710
 N    0.9316205823   -0.8857003087    0.7463810643
 C   -1.1648952401   -1.0701097219    0.1071657292
 C   -2.6501877559   -0.9519373714    0.1463212749
 O   -3.3377371457   -2.0681979500   -0.4099158668
 H    0.8930102556    1.8288683492   -0.4605076509
 H   -0.8641166192    1.8430471392   -0.6929926989
 H   -0.1847421202    1.8641412151    0.9471221766
 H   -0.4708417211   -1.0197121546   -2.1583083880
 H    1.5819973311   -2.6218352405   -0.5733382406
 H   -0.1991215409   -2.5816277003    1.7532941363
 H   -2.9845938385   -0.7617973025    1.1793571031
 H   -2.9609268599   -0.0883402281   -0.4526651653
 H   -3.0864997164   -2.8481703662    0.0948642344