17

 O    0.0293611614    0.0249323125    0.2914348349
 C    0.0367869023    1.1817167805   -0.0288490579
 O   -1.1605235951    1.8333979629   -0.1759170311
 C   -1.3138161071    2.9577483732   -1.0144602751
 C   -1.2605890048    4.3351237102   -0.4229479517
 C   -0.1296936189    3.8347170356   -1.3005822679
 C    1.2006834574    3.3914418876   -0.7567190444
 C    1.4585355446    3.1991707310    0.7037130735
 C    1.2790562344    1.9820336051   -0.1952538892
 H   -2.0359838461    2.7484731610   -1.7970293054
 H   -1.9287509042    5.0878055114   -0.8260357169
 H   -1.0864529950    4.4128372956    0.6437480875
 H   -0.0772384756    4.2475044849   -2.3021971528
 H    2.0528420674    3.7035319561   -1.3502929705
 H    2.4599021792    3.3843207375    1.0741648239
 H    0.6725086145    3.4149035996    1.4175480538
 H    2.1496766254    1.3690998654   -0.3883590709