16

 C   -0.0060187015    1.6011222595    0.0022048800
 C    0.1069968935    0.0777642457   -0.0557929856
 N    0.8513191096   -0.3248452385   -1.2509666305
 C    1.4567087805   -1.4234467142   -1.2237573579
 O    1.4908323082   -2.3529024345   -0.1973438055
 C    0.9938552226   -2.0042200661    1.0358176676
 O    0.8840436531   -2.8372892496    1.8864556086
 C    0.7234058502   -0.5133214765    1.2162047162
 O    1.9716210521    0.1272787062    1.4508755743
 H    0.9826205677    2.0506445610    0.1094279598
 H   -0.4606118394    1.9686973393   -0.9203454330
 H   -0.6250821961    1.9119793108    0.8495068193
 H   -0.9042307764   -0.3466851199   -0.1493313222
 H    2.0265698360   -1.7999419078   -2.0680213340
 H    0.0430197917   -0.3986258437    2.0687107497
 H    2.3283483282   -0.2076773617    2.2808410633