20

 C   -0.0054769268    1.5312832595    0.1535418946
 C   -0.0453441745    0.0110524405   -0.0019297454
 N   -1.4043022095   -0.5276324212   -0.1098579945
 C   -2.0644331634   -0.1172087697   -1.3430482040
 C   -1.4330782148   -1.9730811827    0.0665698704
 C   -2.8163851419   -2.4543014627    0.5579057244
 C   -2.8375138401   -3.8938257480    0.8011369652
 N   -2.8318582239   -5.0340396600    0.9892709996
 H    1.0173490430    1.8533549906    0.3711145746
 H   -0.3236129571    2.0538663069   -0.7527762447
 H   -0.6517779957    1.8482263077    0.9773737535
 H    0.5789146882   -0.2887316646   -0.8666674618
 H    0.4125118889   -0.4412399686    0.8842883564
 H   -1.5344510476   -0.4709941915   -2.2481146896
 H   -3.0853475655   -0.5065006710   -1.3789203306
 H   -2.1357306348    0.9711313126   -1.3929049874
 H   -1.1624871955   -2.5224901217   -0.8536276646
 H   -0.6938763464   -2.2463537476    0.8246150555
 H   -3.0721534070   -1.9251647198    1.4814776431
 H   -3.5973882756   -2.2182686888   -0.1718933145