22

 C    0.0766996786    1.4899147780   -0.1102064994
 C    0.0509982729   -0.0309544769    0.0833204800
 C    0.7198721864   -0.4284631799    1.4067564244
 O    2.0743358182   -0.0085854338    1.5004436142
 C   -1.3702627593   -0.5899527215    0.0107116802
 C   -2.1473206222   -0.5175971614   -1.3604931078
 C   -2.3041432641   -2.0395875032   -1.3073609451
 N   -0.9284075697   -2.5964939971   -1.2819572125
 C   -1.5584793496   -2.1189194961   -0.0242638162
 H    1.0957519861    1.8699132203   -0.0028982159
 H   -0.2984569921    1.7769199230   -1.0972814701
 H   -0.5451553509    1.9904105280    0.6425346307
 H    0.6232994008   -0.5027250472   -0.7278853466
 H    0.2063201755    0.0551921544    2.2471291455
 H    0.6365620287   -1.5162939941    1.5554525295
 H    2.5613276249   -0.4491762391    0.7963628611
 H   -1.9855375323   -0.1530228526    0.8058219431
 H   -3.0921341446    0.0236249215   -1.2798318608
 H   -1.5833113813   -0.1438534304   -2.2191697268
 H   -3.1321379513   -2.6367200533   -1.6691469971
 H   -1.0185211787   -3.6123356267   -1.2886189391
 H   -1.6877549461   -2.7919356118    0.8149758589