19

 C    0.3858110416    0.8364809998    0.6651999933
 N   -0.3780408815    0.1997251377   -0.4160467212
 C    0.3891814473   -0.4601955543   -1.3951056516
 C    0.8883545048   -0.0610367596   -2.6198150195
 C    1.5620271931   -1.1885133560   -3.1734881312
 O    2.2152351563   -1.2695552282   -4.3758564112
 C    1.4779549416   -2.2391316258   -2.2888501998
 C    2.0174901964   -3.6252484926   -2.3746523710
 N    0.7547115522   -1.7658536371   -1.2035571818
 H    0.9560821797    0.0741625990    1.2033571377
 H    1.0950265895    1.6021586301    0.3144458196
 H   -0.3103259022    1.2975019177    1.3724069251
 H   -0.9864510394    0.8784758503   -0.8565939840
 H    0.7982202411    0.9240600075   -3.0541797135
 H    2.1524861467   -0.4155311165   -4.8111328400
 H    2.7437153938   -3.8445863421   -1.5805656394
 H    1.2306829081   -4.3893228368   -2.3164950387
 H    2.5280195381   -3.7505709815   -3.3322168846
 H    0.4236027825   -2.3241034917   -0.4357783882