20

 C   -0.0322636973    1.5633391297   -0.0279559769
 C   -0.0088364225    0.0265262985   -0.0039994382
 C   -1.4555548308   -0.5145706204    0.0352917386
 C    0.7937142527   -0.5703326057   -1.2013295329
 C    1.5819993247   -1.7798619346   -0.6439827494
 C    1.6139766955   -1.4894747026    0.8472814527
 C    0.7615959193   -0.5130605161    1.1827745689
 C    2.4313311029   -2.2208158227    1.7518490221
 N    3.1120962199   -2.8329598895    2.4621567079
 H    0.9813352921    1.9758448185   -0.0097572613
 H   -0.5291496037    1.9258522698   -0.9344412214
 H   -0.5774970015    1.9656585162    0.8327269155
 H   -2.0256532908   -0.1381168829   -0.8209955267
 H   -1.4729804101   -1.6083418203    0.0033204933
 H   -1.9719581228   -0.1979384539    0.9475854484
 H    0.1437793953   -0.8425758986   -2.0370642056
 H    1.4994487936    0.1807949167   -1.5695360814
 H    1.0764458372   -2.7353353882   -0.8314019373
 H    2.5840354885   -1.8684159009   -1.0737668156
 H    0.5924159379   -0.1642089428    2.1958705792