18

 O    0.0783551791    1.4290551838   -0.5085801870
 C    0.0436705104    0.0261414441   -0.6447360653
 C   -0.9952806666   -0.5769577845    0.3040741965
 O   -2.2633876300    0.0814578851    0.0998550933
 C   -1.1336866302   -2.0602310725    0.1842107254
 C   -0.3564002906   -3.0316553226   -0.4131951181
 C   -0.9768777692   -4.2890368534   -0.1744056364
 C   -2.1176315932   -4.0510037865    0.5570801687
 N   -2.1997573363   -2.7011311294    0.7731547658
 H   -0.8460272213    1.7032175507   -0.4447810538
 H   -0.1948962839   -0.2800402631   -1.6783023731
 H    1.0421472580   -0.3552302766   -0.4082326662
 H   -0.7243376003   -0.2844574065    1.3271008968
 H   -2.6141092718   -0.2450382341   -0.7388390085
 H    0.5621368184   -2.8619265781   -0.9538285400
 H   -0.6270771166   -5.2546068678   -0.5053896567
 H   -2.8747526239   -4.7216861676    0.9305197889
 H   -2.9449620019   -2.2176799610    1.2450451596