21

 C   -0.0541017967    1.5952190230   -0.0396073245
 C    0.0625240397    0.0809395767    0.0179325027
 C    1.0319379490   -0.6530782627   -0.9548655232
 C    1.3942549776   -1.6256517369    0.2161586264
 C    2.8103956307   -2.0189131590    0.4805766908
 C    3.4942850717   -1.4611079947    1.4777562991
 C    2.8975737726   -0.3628414441    2.3191738503
 O    1.8175651224    0.2965674116    1.6823384524
 C    0.8137968002   -0.5800925948    1.2055792567
 H    0.9220216260    2.0642437079    0.1049677258
 H   -0.4514282526    1.9138116717   -1.0096452807
 H   -0.7269876416    1.9744939124    0.7373778976
 H   -0.9305326873   -0.3780759134   -0.0501330195
 H    0.6060382190   -1.0894971761   -1.8612821663
 H    1.8842158294   -0.0247075395   -1.2256737955
 H    0.7502422732   -2.5115563371    0.1760672760
 H    3.2629603862   -2.7817598295   -0.1486956384
 H    4.5101677926   -1.7663128269    1.7132602786
 H    2.5850911000   -0.7583712262    3.3033511691
 H    3.6448756668    0.4141704084    2.5164150458
 H    0.2130026713   -0.9608365607    2.0451312770