17

 C   -0.0174012540    1.5091784934    0.0141010148
 C   -0.0186466431    0.0033742106    0.0054031368
 C    0.9423609322   -0.8853401972   -0.7825774728
 O    0.2651888798   -1.9618727941   -1.3840494596
 C   -0.9734072663   -2.0789668478   -0.7285525193
 C   -0.9265362522   -2.0879327394    0.7726289636
 O    0.3505590179   -1.9781594031    1.3509734516
 C    0.9892918177   -0.8943010057    0.7213283128
 C   -1.2965347240   -0.8034252741    0.0404796761
 H    1.0043427276    1.9004770231   -0.0120433435
 H   -0.5470197415    1.9137228015   -0.8555279970
 H   -0.4976298604    1.9033414224    0.9165472774
 H    1.7612878557   -0.5078391151   -1.3843289427
 H   -1.7001457163   -2.6568127727   -1.2869036001
 H   -1.6172623730   -2.6726481789    1.3682919079
 H    1.8442621052   -0.5236573797    1.2753190572
 H   -2.2661346453   -0.3259381133    0.0735965667