19

 O    0.3509290882    1.2078183614   -0.1558881513
 C    0.0336435750   -0.1452674340   -0.0329645785
 C    0.2092156244   -1.0421452498   -1.2933711759
 C   -1.3224926896   -1.3450822734   -1.2814701630
 C   -1.4588372293   -0.6005426771    0.0674697361
 C   -1.0914754671   -1.4586650960    1.3114697628
 C    0.3476589438   -0.8316596929    1.3412479268
 C    1.4997117949   -1.6982207343    1.4619613826
 C    2.4559091769   -2.4271331069    1.5249047455
 H    1.2906066629    1.2806318110   -0.3605088459
 H    0.5456156294   -0.4748175158   -2.1642268966
 H    0.8675239176   -1.9025833280   -1.1536607454
 H   -1.8529404577   -0.8476325946   -2.0968072847
 H   -1.6099473330   -2.4000051214   -1.2746538542
 H   -2.2744885735    0.1113444771    0.1916813194
 H   -1.6766181480   -1.2622528634    2.2111837664
 H   -1.0930290809   -2.5343730823    1.1222746718
 H    0.3873963612   -0.0379164242    2.0943506673
 H    3.2991337349   -3.0681341152    1.5981825367