15

 O   -0.4766335163    0.4885873318    0.6444006892
 C    0.0842091073    0.9875906237   -0.2948951613
 C    1.3569133559    1.8014277049   -0.2127090279
 C    1.2293968229    3.1413060215   -0.9655138552
 C    2.5406825691    3.8451730700   -1.0789508581
 N    2.7424366009    5.0440732398   -0.5991808096
 O    4.0815973351    5.3063994194   -0.9236528089
 C    4.5238078433    4.2240337423   -1.5612769659
 N    3.6442227545    3.2851235170   -1.6969605348
 H   -0.3136441718    0.8681094664   -1.3311316219
 H    1.6176900852    1.9503467586    0.8381285146
 H    2.1560298678    1.2138315984   -0.6852132044
 H    0.8505014483    2.9529655294   -1.9779920294
 H    0.5185416867    3.8036882198   -0.4650782756
 H    5.5505163113    4.2346225972   -1.8971494808