18

 O    0.1714321702    1.4081587168    0.0005786231
 C    0.0543292603    0.0144993093   -0.0478418026
 C    0.3771803709   -0.8274978596    1.2196155276
 C   -0.8812628642   -1.6880217268    0.9141315894
 C   -1.7960872984   -2.1083810783    2.0697281584
 C   -1.1248732944   -3.0175799363    2.9962514349
 N   -0.5773516335   -3.7358063494    3.7174205526
 C   -1.3975619058   -0.5662734639   -0.0245045249
 O   -2.2686212021    0.2972643742    0.6935863340
 H   -0.4055374996    1.7002311995    0.7175070786
 H    0.6168033533   -0.3234267408   -0.9221102692
 H    1.3423530518   -1.3336347111    1.2673471823
 H    0.2480663245   -0.2312565315    2.1284670106
 H   -0.6132901768   -2.5665989482    0.3209792857
 H   -2.1335607969   -1.2230924901    2.6166214734
 H   -2.6967881431   -2.6018153852    1.6863017372
 H   -1.8482183626   -0.8753164278   -0.9750053154
 H   -2.5639062939    0.9833429294    0.0860605843