18

 C    0.0635914996    1.3190071718   -0.2404633903
 C   -0.1161088605   -0.1360772884    0.1058654850
 C   -0.8675662724   -0.5745767178    1.3386119640
 C    0.6217244683   -0.7968420445    1.2346884900
 O    1.0543389967   -2.1019585105    0.9915072738
 C    1.6373959339   -2.1944470323   -0.2978624745
 C    0.6476944384   -1.8305064466   -1.3959508271
 N    0.6212726355   -2.2875395921   -2.5749102931
 O   -0.3159743329   -0.9395325748   -1.0449612655
 H    0.9385734496    1.4631871894   -0.8828297366
 H   -0.8154393469    1.6955766484   -0.7724644100
 H    0.1985663650    1.9165616772    0.6656596797
 H   -1.2324109783    0.1859424042    2.0198018457
 H   -1.4868026123   -1.4583934711    1.2403952785
 H    1.3003946743   -0.2019647796    1.8458543876
 H    2.5275887048   -1.5494701123   -0.3722590408
 H    1.9565394807   -3.2301170613   -0.4321757365
 H    1.3473054866   -2.9924692297   -2.6968587201