17

 C    0.3519302413    0.7957335038    0.9519398630
 C   -0.1585138728    0.1779318247   -0.3347799982
 O    0.3732880482    0.3582211987   -1.4082794571
 C   -1.3736859679   -0.6928589296   -0.2279449388
 C   -2.2692716898   -1.2553608634   -1.3473663344
 C   -2.8829256981   -1.8797787961   -0.0744345366
 C   -1.4945432616   -2.0270504515    0.6142491498
 O   -1.8853847582   -1.3679487337    1.8506580768
 C   -2.5662916623   -0.6229881402    0.7928227940
 H    1.3998068800    1.0779020184    0.8386119012
 H   -0.2303795657    1.7023864880    1.1604482794
 H    0.2043142335    0.1229899293    1.8006111279
 H   -2.8841617028   -0.5292181492   -1.8841371652
 H   -1.7907994907   -1.9424728629   -2.0481739285
 H   -3.7358272569   -2.5472026828    0.0425973739
 H   -0.8083040368   -2.8724972854    0.6567790499
 H   -3.1928033992    0.2250652120    1.0685017428