20

 C    0.0547343338    1.3432888733    0.3816069066
 O   -0.0488358633   -0.0604597957    0.3882803872
 C   -1.2319882064   -0.5245355111   -0.2255611578
 C   -1.2072539966   -2.0309122120   -0.2114163128
 C   -1.6879122008   -2.8012165036    0.9933244758
 C   -2.4556386559   -2.8800610488   -0.3007769191
 C   -3.8494134674   -2.2778755558   -0.4262630249
 C   -4.8901961793   -3.2145414318    0.0034443381
 N   -5.7036175379   -3.9633757740    0.3390310079
 H    0.9970070037    1.6036427540    0.8692912008
 H    0.0599865167    1.7491629349   -0.6427146672
 H   -0.7731151323    1.8180073672    0.9325831288
 H   -2.1136504682   -0.1334067233    0.3104468302
 H   -1.2945772013   -0.1478953056   -1.2620479594
 H   -0.3404390003   -2.4369208972   -0.7249259275
 H   -1.1289270990   -3.6691715535    1.3225957837
 H   -2.1297771571   -2.2256232587    1.8011484918
 H   -2.3464137595   -3.8008579224   -0.8656134895
 H   -3.9433609870   -1.3688280599    0.1760180091
 H   -4.0569976221   -1.9902392561   -1.4642246919