19

 C    0.0503998841    1.5372108077   -0.0160201795
 C    0.0084070342    0.0438401054   -0.0309460708
 C   -0.1361696284   -0.7512445523   -1.0966692088
 C   -0.1527010225   -2.2078393043   -0.7077912486
 C    0.1879505845   -2.1587202233    0.8037302582
 N    0.1476827734   -0.7264243796    1.1517190483
 C    0.1684585127   -0.2449756983    2.4427548390
 N    0.3438629127   -1.2295572118    3.4117106614
 O    0.0029711945    0.9245175573    2.7455519195
 H    0.9766680718    1.9053559047    0.4338790974
 H   -0.0203340421    1.9050107251   -1.0426777632
 H   -0.7630918246    1.9542493202    0.5804804183
 H   -0.2558419307   -0.3939479492   -2.1091404111
 H   -1.1331089114   -2.6695733394   -0.8843596549
 H    0.5770420293   -2.8091070092   -1.2607343828
 H   -0.5229847725   -2.7166394931    1.4186677741
 H    1.1908414655   -2.5666800775    0.9921148429
 H    0.9070315343   -2.0361946032    3.1906993197
 H    0.5366374353   -0.8255933492    4.3158109208