18

 C   -0.0611496863    1.6079843817   -0.2195349953
 C    0.0323378334    0.1017108858   -0.0203929735
 O   -1.2474527505   -0.5030871536   -0.1338280537
 C    1.1303357396   -0.6974003163   -0.7840978032
 N    1.6611472541   -1.3210265132    0.4828759517
 C    2.1333214045   -0.2132856511    1.3025274260
 C    0.6651978911   -0.4361180769    1.2684826575
 C   -0.0671508425   -0.9739038045    2.4430749270
 O    0.4828254115   -1.4983696608    3.3824911653
 H    0.9038608752    2.1005996457   -0.0741984676
 H   -0.3963709766    1.8380575486   -1.2387957846
 H   -0.7825763493    2.0381147600    0.4818950206
 H   -1.6322312383   -0.2392982545   -0.9765182378
 H    0.7021557835   -1.4666390097   -1.4283889415
 H    1.8854240080   -0.1228869811   -1.3318215032
 H    2.6227743251   -0.5385664462    2.2150121950
 H    2.5578604750    0.6679876479    0.8252600625
 H   -1.1678825274   -0.8601767519    2.3992174750