16

 C   -0.0663619944    1.4963077033    0.0016557662
 C    1.4235685044    1.8936682627   -0.0261746797
 N    2.1987471212    1.4690639527    1.1565753249
 C    2.2888462807    0.6695262171   -0.0982397930
 C    1.3412527936   -0.4734369872   -0.0983438186
 C    0.0742310757    0.0066127086   -0.0278329185
 O   -0.8344024149   -0.9855394117    0.0772242309
 C   -0.1070238400   -2.1499693411    0.0514864296
 C    1.2297651723   -1.8993158012   -0.0482230520
 H   -0.5620692935    1.8659923802    0.9060005711
 H   -0.6054602612    1.9003570571   -0.8644147646
 H    1.7049107422    2.8133989666   -0.5273832029
 H    3.0216997337    2.0656491177    1.2298642765
 H    3.2236654806    0.6568215366   -0.6477145524
 H   -0.6875889771   -3.0559885498    0.1033896988
 H    2.0109558765   -2.6427351213   -0.0801410463