12

 O    0.0265301901    1.2975648685   -0.0763208573
 C    0.0269304682   -0.0275042668    0.0123241469
 N    0.5515137024   -0.7190051351   -1.0102591416
 C    0.5199694644   -2.0312306444   -0.8585928608
 C   -0.0287146571   -2.6006263311    0.2969299992
 C   -0.0861133386   -4.0664242808    0.5116642453
 O    0.3323962041   -4.8702939863   -0.2870096781
 N   -0.5308665841   -1.8311595773    1.2682840887
 N   -0.5105571845   -0.5207492768    1.1395720029
 H    0.4350771834    1.5256414159   -0.9239091013
 H    0.9277093191   -2.6570602887   -1.6472405666
 H   -0.5496990674   -4.3569219271    1.4753290326