16

 O    0.0134081682    0.0009307328    0.0141270748
 C   -0.0245399187    1.1968484061    0.0087110414
 C   -1.1951401581    2.1861271509    0.0522637708
 C   -0.7887928121    3.0182767910    1.2808991738
 C   -0.3115635593    4.1418288434    0.4491751559
 C   -0.6683082397    3.3943511765   -0.8510639389
 C    0.7166199421    2.9398888580   -1.3553337010
 C    1.1031739191    2.2509833494   -0.0282036117
 N    0.6843662278    3.2203896902    1.0435999583
 H   -2.2073973672    1.8127496506   -0.0634000402
 H   -1.1584526204    2.9596841950    2.2972166892
 H   -0.2367163695    5.2056179319    0.6404289872
 H   -1.3697002290    3.8360261284   -1.5547296806
 H    0.6833470230    2.2378380218   -2.1954910878
 H    1.3657277419    3.7816089146   -1.6130649408
 H    2.1205017719    1.8953261994    0.1092175197