17

 C    0.0185895576    1.4682494694   -0.1335508286
 C   -0.0104136411   -0.0173708383    0.0132283228
 O    0.5691559661   -0.8500262478   -1.0555324945
 C    0.0767124543   -1.8175747988   -0.0765980233
 C    0.6035783959   -0.9627888463    1.1201226690
 C   -0.4002191903   -1.0654010662    2.2486565103
 C   -1.5871754374   -1.0797735245    1.6356108780
 C   -1.2468095972   -0.9854387315    0.1561289098
 O   -2.2397584797   -0.8858388741   -0.8024679174
 H    1.0469521177    1.8231330518   -0.2491310623
 H   -0.5571789965    1.7687368426   -1.0138537551
 H   -0.4206682225    1.9389608615    0.7513943632
 H    0.2172256608   -2.8805918731   -0.2892526646
 H    1.6757098493   -0.9234132925    1.2986657742
 H   -0.1750332700   -1.1048013006    3.3053613992
 H   -2.5847141445   -1.1237760707    2.0516976070
 H   -2.7927631124   -1.6730236809   -0.7616183079