19

 O   -0.3565329314   -0.1640323939    0.3427860555
 C   -0.0916499785    0.9636408527   -0.1222785972
 O    0.9546094746    1.4593063395   -0.5591110911
 C   -1.3273996356    1.9871391229   -0.1234342045
 C   -2.6360114793    1.2076399273   -0.1445263907
 C   -3.8193349553    1.9368491870    0.4831256981
 N   -4.9670971093    0.9998964011    0.6025384309
 C   -6.0402378388    1.0228549198   -0.1344092701
 N   -6.9473118750    0.0469400280   -0.2092548902
 H   -7.7359074479    0.1384444675   -0.8266743024
 H   -6.8333296124   -0.8326261136    0.2699141851
 H   -1.2426795599    2.5680694524    0.8055797224
 H   -1.2307351209    2.6890716930   -0.9558032248
 H   -2.9057693193    0.9085437861   -1.1660568283
 H   -2.4046717041    0.2862971196    0.4138061562
 H   -3.5803017805    2.2818191828    1.4929777219
 H   -4.1683269090    2.7963518781   -0.0981809791
 H   -4.7547296401    0.1582682840    1.1293126429
 H   -6.2198911574    1.9105956459   -0.7314776746