21

 C   -0.2467087924    1.5303200673   -0.0176854744
 C    0.1007300223    0.0311732161    0.0101463413
 C    0.8231364282   -0.4309024916   -1.2189017640
 C    2.0457011457   -0.9716201723   -1.3124844245
 C    2.3293759010   -1.3561321557   -2.7240849745
 C    1.2552123264   -2.1583866997   -3.5079440837
 C   -0.1131945349   -2.0698682945   -2.8450194918
 C    0.1626606905   -0.5330196078   -2.5851753009
 C    1.3384737610   -0.6526172581   -3.6098752250
 H    0.6605572697    2.1382915392   -0.0874675486
 H   -0.8796618714    1.7789679397   -0.8757631087
 H   -0.7854977503    1.8233600068    0.8888843907
 H    0.7116684229   -0.1854344755    0.8938696212
 H   -0.8294524997   -0.5429234696    0.1303299598
 H    2.7228915195   -1.1601865932   -0.4875636697
 H    3.3451021786   -1.5023391070   -3.0737035020
 H    1.5686367462   -2.9099927334   -4.2230403527
 H   -0.9025207482   -2.1985466094   -3.5902218698
 H   -0.3261190340   -2.6942944470   -1.9702151468
 H   -0.6642338586    0.1464898218   -2.7881335976
 H    1.5731836474   -0.0030074662   -4.4445611083