17

 C    0.0588965736    1.3713996653   -0.5092786937
 C    1.3624910765    1.6693002334    0.2811576481
 C    1.3648896985    0.2007914397    0.7736371083
 C   -0.1214279730    0.0912318897    0.3518501571
 C    2.4001660550   -0.7979623420    0.2094661067
 O    2.8456242832   -1.1573609644    1.5322530633
 C    1.9065052187   -0.2472420458    2.1405800396
 H   -0.7353268541    2.1199075802   -0.4720787198
 H    0.2608566831    1.1345302704   -1.5575059794
 H    2.2376549528    2.0076734411   -0.2806952305
 H    1.1908141458    2.3675393433    1.1069972964
 H   -0.7914407922    0.2595153420    1.2014303067
 H   -0.4292548581   -0.8284443819   -0.1536453369
 H    1.9842494025   -1.6588986355   -0.3317585304
 H    3.2082933390   -0.3570839479   -0.3902634368
 H    2.4098690792    0.5331380229    2.7279998671
 H    1.1861567097   -0.7684777107    2.7862155041