16

 C   -0.0315160911    1.4528015809   -0.0130365259
 C    0.0719509347   -0.0620795019    0.0139565765
 O    1.1238408421   -0.6486079375    0.0220248980
 C   -1.2725724971   -0.7814152318    0.0283065376
 O   -1.0536777981   -2.1815380898   -0.0093374087
 C   -2.1594336023   -2.9490374962    0.0190122056
 N   -3.3297816009   -2.4504367066    0.0755052727
 C   -1.8353492233   -4.3480688581   -0.0222494648
 C   -1.6177326614   -5.5295849887   -0.0550765962
 H    0.9651460089    1.8861031558    0.0741865134
 H   -0.4901676057    1.7832555763   -0.9521949147
 H   -0.6685509101    1.8183666093    0.7997740742
 H   -1.8373867497   -0.5019173106    0.9273602441
 H   -1.8853344556   -0.4612053757   -0.8243525771
 H   -4.0306828567   -3.1876607965    0.0893629177
 H   -1.4172206637   -6.5727523891   -0.0842121224