19

 C    0.0643549389    1.5965832853   -0.1337697648
 O    1.5329635688    1.4387541276   -0.0129654473
 C    1.1951420533    0.2785354605    0.8459786082
 C    1.2653858826   -1.2719337164    1.1127642454
 C   -0.3389550780   -1.0890254813    1.1463779061
 C   -0.0646652572    0.0544549354    0.1039309376
 C    0.1938589011   -0.6585484730   -1.2551468739
 O    1.3719835058   -1.4442570054   -1.2987346597
 C    1.6800521386   -2.1042133358   -0.0884108520
 H   -0.3263044967    2.2212499593    0.6789356163
 H   -0.2130798053    2.0034645016   -1.1097793970
 H    1.0047488088    0.7190676021    1.8357179021
 H    1.7522933519   -1.6147145977    2.0287840564
 H   -0.9233031721   -1.9460636569    0.7988733210
 H   -0.6972379428   -0.7617764591    2.1234848844
 H   -0.6918332003   -1.2765779404   -1.4841290419
 H    0.3091668773    0.0698299386   -2.0601883387
 H    2.7638217036   -2.2640257116   -0.0948525024
 H    1.1979945717   -3.0962271828   -0.0370898898