18

 C   -0.6999775152    1.1778990584   -0.3647941100
 C    0.4861252887    0.3412557682    0.1484321200
 C    1.2446815932   -0.2957241435   -0.9233780166
 C    1.8528028139   -0.8139351002   -1.8233832761
 C    2.6039204130   -1.4438758364   -2.9127177543
 C    2.1960201551   -2.8232022937   -3.1926134706
 C    1.8654874569   -3.9557340167   -3.4268280810
 C    1.4621458581   -5.3263429341   -3.7067537818
 H   -0.3544465283    1.9764403551   -1.0270209431
 H   -1.4001657760    0.5540424305   -0.9268619288
 H   -1.2377338068    1.6326803236    0.4726042833
 H    1.1556880521    0.9792907324    0.7396657162
 H    0.1190326079   -0.4288134588    0.8391333592
 H    2.4970326676   -0.8400362780   -3.8251707887
 H    3.6770266385   -1.4222261629   -2.6748038800
 H    1.1001802849   -5.4340541625   -4.7352545437
 H    2.2972325096   -6.0232437788   -3.5748959358
 H    0.6559144167   -5.6459843824   -3.0372834580