20

 C    0.2502822828    1.3889649303    0.2983071566
 C   -0.1057611200   -0.0638079319   -0.0415053670
 O    0.3587122455   -0.8502043270    1.0729665361
 C   -1.6359873088   -0.2744051945   -0.2248908003
 C   -2.4906373340    0.3238604772    0.8747356782
 C   -3.5383134440   -0.4927425031    1.5404467744
 N   -2.3282732135   -0.0998215556    2.2751324531
 C    0.5851165630   -0.4962985981   -1.2644857389
 C    1.1369284718   -0.8919800165   -2.2569057377
 H    1.3345592257    1.4997657511    0.3592540860
 H   -0.1319662189    2.0695869197   -0.4669443934
 H   -0.1854119608    1.6515251308    1.2648478624
 H    0.4930766860   -1.7497387244    0.7552553462
 H   -1.9379141611    0.1502621786   -1.1891659696
 H   -1.8047571907   -1.3558759693   -0.2932366617
 H   -2.6744962653    1.3919931285    0.7753621904
 H   -4.4569962033   -0.0271986410    1.8869531726
 H   -3.6512713564   -1.5266610820    1.2213222688
 H   -1.6551901449   -0.8608531610    2.3097398554
 H    1.6338799171   -1.2280323420   -3.1336270017