15

 C   -0.3630765442    1.4769780775    0.0297797824
 C    0.1349955060    0.0360386177   -0.0277646334
 C    1.0326333666   -0.3505557591   -1.2101926465
 C    1.8735613396   -1.4886471972   -0.6163090186
 O    1.9795611928   -1.1987823614    0.7888971131
 C    1.0033724903   -0.3337053401    1.1779084037
 O    0.8918728672    0.0410047710    2.3092306694
 H    0.4707111050    2.1815861798   -0.0536192626
 H   -1.0662112669    1.6833615494   -0.7821674689
 H   -0.8630112786    1.6621376985    0.9836352189
 H   -0.7268635841   -0.6460667228    0.0113828175
 H    0.4837721908   -0.6588669285   -2.1023618488
 H    1.6759891604    0.4934671428   -1.4822911209
 H    1.3877760011   -2.4646773249   -0.7357927196
 H    2.8861056040   -1.5511274627   -1.0200348555