18

 C   -0.1805649474    1.4136115314    0.0250186982
 N    0.0473142324   -0.0241013816   -0.0391717779
 C    0.9024016875   -0.4804563964   -1.1884350148
 C    2.1791049046   -0.3147522763   -0.3291693596
 C    1.1748743870   -0.5071883879    0.8358642022
 C    0.9489256512   -1.9983900624    1.0329812070
 O    1.0033161598   -2.5782118052    2.0797675192
 O    0.7084892031   -2.6782057168   -0.1203080264
 C    0.5813471321   -1.9560285017   -1.3638257426
 H    0.7245602690    2.0366372717   -0.0810816251
 H   -0.8799971465    1.6961751992   -0.7681983511
 H   -0.6478289453    1.6568604892    0.9841159520
 H    0.7933973209    0.0697270634   -2.1269788408
 H    2.9910016688   -1.0370534396   -0.4468285939
 H    2.5816513306    0.6979566972   -0.3626176001
 H    1.3121803073   -0.0077582208    1.7943304988
 H   -0.4505938811   -2.0789510898   -1.7072937990
 H    1.2596242459   -2.4348860438   -2.0782936659