23

 C   -0.1639382683    1.4831569069   -0.0269427401
 C    0.0540917323   -0.0391631552    0.0123424189
 C    0.6971953585   -0.4713701549    1.3305408682
 O   -1.2186397543   -0.6871432242   -0.0348785916
 C    0.8714621479   -0.5178026381   -1.2160900549
 C    2.2134210879    0.1753797470   -1.4097171169
 C    0.9025161818   -2.0544461431   -1.4371806254
 C    0.1583080136   -1.7514188117   -2.7472454250
 O    0.0372798405   -0.3492955379   -2.4142071080
 H    0.7561553643    2.0414979479    0.1673991943
 H   -0.5515327750    1.7896194854   -1.0036490933
 H   -0.8982394483    1.7542940534    0.7361309887
 H    0.0262572149   -0.2217228915    2.1571694213
 H    0.8674950489   -1.5513380051    1.3523753307
 H    1.6500916118    0.0371394009    1.4975810215
 H   -1.5580985385   -0.5063078711   -0.9216027782
 H    2.8679705202    0.0185052004   -0.5464021323
 H    2.7181959860   -0.2265017227   -2.2930518057
 H    2.0844025411    1.2502680047   -1.5576584631
 H    1.8945181317   -2.4985718302   -1.5326815028
 H    0.3080995390   -2.6109428682   -0.7140296274
 H    0.7416972067   -1.8957493371   -3.6648732386
 H   -0.8208902828   -2.2267718556   -2.8718890802