19

 C   -0.0177561242    1.4051762945    0.1860624440
 C    0.1709545672   -0.0923588155   -0.0427146811
 C    0.7230466103   -0.4108521957   -1.4166222525
 O    1.0130899147    0.3943498128   -2.2653764800
 O    0.8568962191   -1.7456423189   -1.5811753496
 C    1.3881656468   -2.1642711053   -2.8492364640
 C    1.3749571136   -3.6641083284   -2.8731804464
 C    2.3458815707   -4.4111960516   -3.6811176126
 O    2.4814152175   -4.3291615987   -2.2634331209
 H    0.9298718262    1.9391646364    0.0806987165
 H   -0.7134481257    1.8285254035   -0.5428464131
 H   -0.4111491027    1.5917362411    1.1890353256
 H    0.8525777567   -0.5299187861    0.6963653476
 H   -0.7714957449   -0.6405204318    0.0730817545
 H    0.7726117283   -1.7504784416   -3.6554199001
 H    2.4073078802   -1.7841446970   -2.9677652324
 H    0.4071856918   -4.1219397602   -2.6667900965
 H    2.0750067477   -5.3891079384   -4.0756008706
 H    3.0988334967   -3.8722726290   -4.2552571085