17

 C   -0.0422985810    1.5597330187    0.0161325675
 C   -0.0743815262    0.0547575733    0.0063060896
 C    0.3921156131   -0.7567180541   -1.2400813408
 C   -0.5509599862   -1.8536979335   -0.7572580177
 C   -0.4874923938   -1.8649745246    0.7784807747
 C    0.4930757832   -0.7747668752    1.1977269351
 C   -1.3673610096   -0.8770000927    0.0528750241
 H    0.9908294564    1.9263902452   -0.0237906020
 H   -0.5758249398    1.9771672753   -0.8450485673
 H   -0.5027895926    1.9640488063    0.9244341070
 H    0.0317951757   -0.3025886641   -2.1686110665
 H    1.4643837978   -0.9720320262   -1.3287824901
 H   -0.9085554711   -2.7175627457   -1.3029417827
 H   -0.7993926105   -2.7369341553    1.3391166838
 H    1.5688616331   -0.9907972487    1.1942412930
 H    0.2111100709   -0.3345867227    2.1594766316
 H   -2.4282745795   -0.6771404760    0.0981868008