14

 N    0.0112253642   -1.1548804811    0.1933683387
 C    0.0462450113   -0.0048152490    0.0802676505
 C    0.0535650810    1.4238217612   -0.1067402599
 C   -0.9441017957    2.1067051614   -1.0492266497
 N   -0.2082961319    3.1964569606   -1.7188540937
 C    1.0418437426    3.4568364860   -0.9702296442
 C    1.2660068528    2.2645191039   -0.0492239947
 O    0.3451099872    2.2283967417    1.0461311016
 H   -1.3610453743    1.4092420636   -1.7795124815
 H   -1.7682146871    2.5035034996   -0.4454186778
 H    0.0378549230    2.8881962938   -2.6514573995
 H    1.8801012048    3.5996575754   -1.6576470595
 H    0.9471466283    4.3633168458   -0.3602771575
 H    2.2547290839    1.8636264170    0.1566051871