19

 O   -0.3219945890    1.4205156900   -0.0359120341
 C   -0.0851433980    0.0125596586   -0.0165973595
 C    0.5991347304   -0.4949462882    1.2856355514
 C   -0.5235237564   -1.3404302187    1.9306697348
 C   -1.7854021289   -0.5510028421    1.5772603841
 C   -1.4820158017   -0.6472796504    0.0572591207
 O   -2.3994005005   -0.1484301420   -0.8668647919
 C   -1.2846141964   -2.1656208946   -0.0736764134
 O   -0.6668149908   -2.5508144883    1.1629882694
 H    0.5008344104    1.8706679356   -0.2465592465
 H    0.4461549677   -0.2903012085   -0.9276613102
 H    1.4901372063   -1.0990229255    1.0998646082
 H    0.8731854337    0.3576815614    1.9150735914
 H   -0.3577511408   -1.6190739803    2.9710490126
 H   -2.7088013152   -1.0605159729    1.8592193584
 H   -1.7866104068    0.4773375814    1.9435986225
 H   -2.2191431254    0.7986276035   -0.9317172498
 H   -2.2511974637   -2.6702067838   -0.1941346288
 H   -0.6415491452   -2.4371416753   -0.9204360692