11

 N   -0.0288553537   -1.0976129127    0.0670500372
 C   -0.0421697609    0.0581378207    0.0673232359
 C   -0.0330222405    1.4930520711    0.0295952686
 O   -0.7138795973    2.2665119923    1.0489720393
 C   -0.1586282327    3.3029843724    0.1898959156
 C    1.1536455294    2.5195050111   -0.1335282341
 O    1.0087184565    2.6403221421   -1.5686220741
 C   -0.3656353008    2.5028361332   -1.1357753132
 H   -0.3319032512    4.3477261548    0.4351773975
 H    2.1448854610    2.5302903190    0.3157306995
 H   -1.1687586899    2.4939349259   -1.8702272423