9

 O   -0.0429681873    1.3190121669    0.0096777273
 N    1.3288629359    1.7579301977   -0.0011278263
 N    2.0980583726    0.7688629194   -0.0139566351
 N    1.3405571277   -0.3526674876   -0.0128388617
 C    1.3535976524   -1.7331116007   -0.0205146280
 N    0.1110185259   -2.1418351523   -0.0110340131
 N   -0.7675768707   -1.0487912773    0.0034987039
 C    0.0205252134   -0.0177099233    0.0016589951
 H    2.2416950000   -2.3406553728   -0.0323382721