16

 C   -0.2710416799    1.3398641945    0.1137374264
 C    1.1732635137    0.8780571810   -0.0425805920
 C    0.0479711982   -0.1035797667   -0.0434429844
 O   -0.1250338936   -1.0636643149    1.0160920527
 C   -0.4889774057   -2.0853860209    0.0685246948
 C   -1.9886471030   -2.1061290122   -0.2684806320
 O   -1.8000787214   -1.1414073569   -1.3379695951
 C   -0.3795684571   -1.0972434722   -1.1111469424
 H   -0.5813728860    1.6661858370    1.1004006361
 H   -0.7555670197    1.8523765864   -0.7103666245
 H    1.6883318024    1.0762582508   -0.9772632533
 H    1.8027910531    0.9014998367    0.8404082296
 H    0.0541240899   -3.0190703557    0.2161068594
 H   -2.3652562342   -3.0591463958   -0.6604341014
 H   -2.6446216000   -1.7380784970    0.5271310720
 H    0.2065492834   -1.1922317842   -2.0267198459