18

 O    0.1289663143    1.4723996091    0.1353402853
 C    0.1140639481    0.0635501231    0.1592472800
 C    0.1383856832   -0.6934145354    1.5193826187
 N   -1.1862076015   -1.3514346610    1.2313649889
 C   -2.1350980903   -0.2303269867    1.1066338347
 C   -1.2693808419   -0.5333560682   -0.0551294229
 C   -1.7743204681   -1.0782688004   -1.3641868357
 C   -2.2243649678    0.0363882762   -2.2928958548
 O   -1.8400334543    0.1780618927   -3.4240045838
 H    1.0431191825    1.7730473548    0.1270237846
 H    0.8431241423   -0.3544708320   -0.5461439510
 H    0.9269937010   -1.4437058069    1.6037612847
 H    0.1294548025   -0.0613332891    2.4127526046
 H   -3.1696119726   -0.5552190964    1.0480017932
 H   -1.9711177109    0.6735494950    1.6876005864
 H   -1.0165776131   -1.6772194879   -1.8783089541
 H   -2.6425176361   -1.7216690357   -1.1658977729
 H   -2.9604126774    0.7389264088   -1.8405203060