20

 C   -0.1676099794    1.3797194678   -0.0451703706
 N    0.1557650711   -0.0293149741    0.0904304435
 C    1.4818055855   -0.5547419408   -0.1447870488
 C    2.6304349728    0.3572427403    0.3546220347
 C    1.9890401743    0.3467716763    1.7759347201
 C    0.8596301257   -0.5648791085    1.2339064381
 C    0.5396890663   -2.0069750817    1.5438632930
 O    0.6397026516   -2.6952267004    0.2892234675
 C    1.5104947973   -1.9911601940   -0.6073397160
 H    0.6058548275    2.0766687879    0.3091809947
 H   -0.3581003254    1.5937757716   -1.1011903507
 H   -1.0868364854    1.5818659785    0.5129022099
 H    3.5964626856   -0.1506789610    0.3272625604
 H    2.7335648462    1.3227235875   -0.1485200883
 H    2.6104823035   -0.1667988090    2.5121402557
 H    1.6747080495    1.3054375801    2.1979486900
 H    1.2646625241   -2.3969748025    2.2767959640
 H   -0.4713315653   -2.1905669286    1.9199318630
 H    1.1245844431   -2.1645733025   -1.6164469288
 H    2.5418700217   -2.3761639667   -0.5533561913