14

 O    0.0078543524    0.1764939644    0.6152026505
 C    0.0540516000    1.2728715109    0.1035477907
 N    1.1970205196    1.8714878257   -0.3427802377
 C    2.4617908760    1.2305922339   -0.2560503006
 C    3.6463587085    1.7513994672   -0.9638550348
 O    3.5629477099    3.2025661581   -1.0141167374
 C    3.7101506034    3.2632746208    0.3817715977
 O    3.8396468583    4.2385027931    1.0408180108
 C    3.6705506979    1.7734177989    0.5550825901
 H   -0.8352047711    1.9083479278   -0.0669652021
 H    1.1565349358    2.7838644480   -0.7712208341
 H    2.3667608354    0.1531030091   -0.1714028862
 H    4.2849721167    1.2701318653   -1.6916037304
 H    4.1957739874    1.1817127866    1.2898792037