15

 O    0.1563146065    1.3616977223    0.0663036983
 C    0.0411032327   -0.0125228465    0.0296552185
 C   -0.4626752420   -0.7288629435    1.2414058375
 O   -0.8791027336    0.0803040615    2.3012228131
 C   -1.3584283770   -0.6857333895   -0.0007840718
 C   -2.5221930653    0.1278540103   -0.0175460025
 C   -3.5146518967    0.8195458522   -0.0596764238
 C   -4.6780699074    1.6592408578   -0.0777247299
 O   -5.6938382198    1.4218044159   -0.6936342341
 H   -0.3790653425    1.6697332900    0.8108415234
 H    0.8027228287   -0.4635480180   -0.5967563855
 H   -0.0641639755   -1.7035766680    1.5167634809
 H   -0.1106182545    0.2557876601    2.8570165435
 H   -1.4217251839   -1.6177651421   -0.5546055422
 H   -4.5783597797    2.5777448974    0.5372296447