19

 C   -0.1027676043    1.4186691163    0.4699556780
 C   -0.1139725732   -0.0402888220   -0.0091922062
 C   -1.5685089392   -0.4794917275   -0.2628460438
 C    1.0457268635   -0.2936052981   -1.0341117203
 O    1.9901131443   -0.2094840786    0.0939810803
 C    0.9062900185   -0.8998876102    0.8152408111
 C    0.9830523230   -2.2784227766    0.1109762982
 O   -0.0588224870   -2.5656401649   -0.8329311671
 C    1.0875190805   -1.8241830821   -1.2746118448
 H    0.9064886183    1.7808939601    0.6647995770
 H   -0.5691612108    2.0620659030   -0.2846082846
 H   -0.6951816932    1.5140781893    1.3869030756
 H   -1.7305133985   -0.7842614883   -1.2981161447
 H   -1.8555793934   -1.3279736940    0.3605196394
 H   -2.2533044676    0.3456938842   -0.0439788854
 H    1.2812025407    0.3803657324   -1.8584395104
 H    0.9977614655   -0.8520524292    1.9008496917
 H    1.5015879667   -3.1274067953    0.5417893092
 H    1.6968292262   -2.2784937085   -2.0476561132