14

 C   -0.0207766811    1.4962800506   -0.0028832032
 C   -0.0003316381   -0.0010731645   -0.0616972690
 N   -0.0232216526   -0.6133856107   -1.2140929800
 C   -0.0003619441   -1.9756889459   -1.1208847077
 O   -0.0231777557   -2.5772858435   -2.3086589094
 N    0.0410207040   -2.7287298932   -0.0532295262
 C    0.0657953167   -2.1102410390    1.1716389549
 O    0.1041661748   -2.6466896657    2.2524344417
 N    0.0422263876   -0.6821838943    1.1020161925
 H    0.8750202684    1.8739085754    0.5013945380
 H   -0.0598150576    1.8934156383   -1.0160463799
 H   -0.8919561410    1.8479928653    0.5598011083
 H   -0.0034559810   -3.5287424655   -2.1273869224
 H    0.0597205497   -0.2039886173    1.9920388824