16

 O    0.0539102290    1.3774042734    0.1911449349
 C    0.0154441249    0.0065363258   -0.1118174455
 C   -1.4366980208   -0.5229458818   -0.1188966410
 C   -1.6030172785   -2.0746791941    0.0564417266
 N   -2.1454383192   -1.8025136742    1.3927556437
 C   -1.9944759369   -0.4477429110    1.3428316396
 O   -2.1337256897    0.4441305756    2.1395958522
 C   -2.2615260791    0.0841381827   -1.1408269796
 C   -2.9519136749    0.5704169529   -1.9959870468
 H   -0.4588558245    1.5125536213    1.0001870463
 H    0.4683862618   -0.1191457006   -1.1000546552
 H    0.5960974847   -0.5956083921    0.6077413915
 H   -2.3133270020   -2.5362842283   -0.6320366821
 H   -0.6605877663   -2.6316308338    0.0621188427
 H   -2.3481080507   -2.4134625048    2.1706624039
 H   -3.5577647778    1.0166055790   -2.7455520610