19

 O   -0.0955579658    1.4910471952   -0.5597634404
 C   -0.1192659283    0.0786710199   -0.7090750384
 C   -1.4029908519   -0.4332651822   -0.0619008709
 C   -1.4788860737   -1.9493614370   -0.0833755552
 C   -2.8007329854   -2.7561338960    0.0014643267
 C   -3.0227337210   -2.3286823221   -1.4644546392
 N   -1.5202639854   -2.6757652594   -1.4590519820
 C   -1.9657316950   -3.8922521764   -0.6260331103
 H    0.6804438541    1.8267528837   -1.0175084550
 H   -0.0997862100   -0.2186633101   -1.7675031553
 H    0.7537889833   -0.3882719882   -0.2238143935
 H   -1.4225200927   -0.1009471205    0.9836081487
 H   -2.2544931816    0.0445463987   -0.5536523721
 H   -0.6628377534   -2.3566696252    0.5267098074
 H   -3.5236172264   -2.8058001009    0.8241069470
 H   -3.6115159970   -2.9929892756   -2.1029967254
 H   -3.2441997504   -1.2857934752   -1.6910012560
 H   -1.1608155566   -4.3340450218   -0.0316729118
 H   -2.4891841428   -4.6495266471   -1.2155774744