19

 C    0.0211722507    1.5245910597    0.1506824436
 C    0.1400061737    0.0003311162    0.0523528547
 C    0.8247449781   -0.5129598848   -1.1974504348
 C    1.6492255066   -1.5264575984   -0.9453401090
 C    1.6716587290   -1.8783998195    0.5227296604
 C    0.9642087999   -0.6758079119    1.1861924310
 O    1.9756709683    0.2302341738    1.6666165114
 C    1.9654242568    0.5795710489    2.9642479706
 O    2.7685481717    1.3226836307    3.4433775271
 H    1.0025788505    2.0016513989    0.1080147936
 H   -0.5851103052    1.9072900273   -0.6761869129
 H   -0.4641696858    1.8286736996    1.0840411445
 H   -0.8769819619   -0.4197727803    0.0946457522
 H    0.6193646574   -0.0946824446   -2.1766484468
 H    2.2244147911   -2.0721590917   -1.6841003734
 H    1.1254111140   -2.8113582925    0.7179437249
 H    2.6786796911   -2.0071826233    0.9321435789
 H    0.3339658158   -0.9691726242    2.0328466949
 H    1.1401478780    0.1032415761    3.5303826091