18

 O    0.1473192347    0.7849472695    0.9295860853
 C   -0.0880803476    0.2355583081   -0.3571287609
 C   -1.3908841420   -0.5253794744   -0.2558875811
 N   -1.9474643793   -1.4053981921   -1.2774184444
 C   -0.8153784064   -2.2136351342   -1.8771964667
 C   -0.3997485619   -2.8162074942   -0.5146475766
 C   -1.5005688321   -1.9663133720    0.1061751730
 C   -2.5079334166   -2.4575819734    1.0643247078
 O   -2.3986847525   -3.4872903248    1.6856481524
 H    0.9354020884    1.3341841361    0.8836125020
 H   -0.2027281823    1.0227553380   -1.1196345224
 H    0.7404273346   -0.4113252197   -0.6724321691
 H   -2.1748957713    0.0981397856    0.1717112623
 H   -1.2394325530   -2.9440108165   -2.5673244461
 H   -0.0787228046   -1.6097327027   -2.4146473822
 H   -0.6154286498   -3.8812827721   -0.4282671156
 H    0.6167465121   -2.6338863610   -0.1570426393
 H   -3.4002242503   -1.8003165203    1.1658085215