18

 C   -0.0985770273    1.5151085687    0.0102825761
 C    0.0815502704    0.0249960345    0.0347576509
 C    1.0346139368   -0.7685985237   -0.9021810597
 C    0.7030572003   -1.9025056204    0.1271252936
 C    0.7040391177   -0.7737936316    1.2139237306
 C   -0.8167949376   -2.0360546659   -0.1105600482
 O   -1.1817388280   -0.6474189775   -0.1642314701
 C    1.4830973369   -3.1101643326    0.2460449727
 N    2.1089227665   -4.0778093254    0.3424750111
 H    0.8590611687    2.0204580544    0.1609748358
 H   -0.5144729941    1.8326539034   -0.9504930925
 H   -0.7876898581    1.8283711031    0.8001448704
 H    0.7181365752   -0.9170144408   -1.9364238857
 H    2.0751998505   -0.4484932048   -0.8438621453
 H    1.7126020478   -0.4542160901    1.4772794593
 H    0.0873126353   -0.9269037127    2.1016472613
 H   -1.0565174897   -2.5384479163   -1.0537495511
 H   -1.3323639514   -2.5426882025    0.7122334307