17

 C    0.0439290907    1.5716503603    0.1233096596
 C    0.0074043109    0.0464384348    0.0398720973
 O    0.6548558867   -0.5510666861    1.1610770319
 C   -1.4219991021   -0.4920183867   -0.1287363689
 C   -1.4607982500   -2.0218978395   -0.2704055084
 C   -2.8641194698   -2.5669116576   -0.1788067890
 O   -3.3980298686   -3.2620256407   -1.0043493269
 H    1.0715242707    1.9194478358    0.2580899974
 H   -0.3624048579    2.0292034340   -0.7841457562
 H   -0.5537829759    1.9292192832    0.9716683256
 H    0.6060030699   -0.2788324581   -0.8203136449
 H    0.2535921173   -0.1869333542    1.9584916039
 H   -2.0171955718   -0.1838790273    0.7440573670
 H   -1.8869775965   -0.0205630862   -1.0028642144
 H   -1.0150622244   -2.3516766922   -1.2134265010
 H   -0.8741765320   -2.4487056728    0.5546147928
 H   -3.4070134672   -2.2673221970    0.7506642341