18

 C    0.0590347822    1.4623478728    0.0969167147
 C    0.0007626265   -0.0504193845   -0.0111349759
 C    1.0434569339   -0.6851651806   -0.9707133582
 C    0.3458547189   -1.7613683060   -1.8747007934
 N   -0.1435848167   -2.7493483636   -0.8964430966
 C   -0.8833219369   -2.1374989257   -0.0837536129
 O   -0.6823716413   -2.1722699046    1.3013394907
 C   -0.7264840861   -0.7139274476    1.2253149674
 C   -1.3681123678   -0.6873633176   -0.1062787798
 H    1.0150913582    1.7881785851    0.5204266067
 H   -0.0438503990    1.9269237245   -0.8904281647
 H   -0.7421604765    1.8537929340    0.7324235097
 H    1.4831141950    0.1095308272   -1.5861234354
 H    1.8610048979   -1.1701380086   -0.4292279606
 H   -0.4407839371   -1.2837688173   -2.4765884704
 H    1.0525750857   -2.2425938825   -2.5536584463
 H   -0.9253432222   -0.1906221441    2.1518456494
 H   -2.2928535748   -0.2689512908   -0.4801418446