14

 O   -0.2293933647    1.3797779521    0.1897817552
 C   -0.0583804807    0.0518509511    0.0514308489
 C    0.0530145589   -0.6507472258   -1.1297969320
 C    0.0512787414   -0.2389207160   -2.5642241366
 C    1.4361493518   -0.4169917883   -3.1797683146
 O    1.6823352185   -1.1863895133   -4.0702850103
 N    0.2114383520   -1.9316586551   -0.6815982505
 N    0.1886572214   -2.0128858460    0.6511367770
 N    0.0235540674   -0.7938440711    1.1038659890
 H   -0.2915166225    1.5592622945    1.1365861016
 H   -0.6672817687   -0.8093104517   -3.1615779053
 H   -0.2203786484    0.8218058705   -2.6090011229
 H    2.2270293655    0.2088496844   -2.7110298224
 H    0.3299001481   -2.7732745252   -1.2248468171