18

 C    0.2064032145    1.4930910908    0.0335504878
 C   -0.0096864552    0.0186183908    0.0426702751
 N   -1.1109011098   -0.5840435060   -0.1630720626
 C   -0.8354728181   -2.0258052825   -0.0477358335
 C    0.6863764516   -2.1014098498    0.2634975290
 O    1.1057521370   -0.7201188264    0.2934924844
 C   -1.6949891723   -2.6501795586    1.0287727716
 C   -2.9467615061   -3.3428585779    0.7177730898
 O   -1.7577378597   -4.0787180446    1.0240825886
 H    0.9385809269    1.7621176274   -0.7341601106
 H   -0.7362526756    2.0018008637   -0.1638187409
 H    0.6101648525    1.8215941091    0.9962169977
 H   -1.0719186752   -2.5233368777   -0.9951637508
 H    0.9052843024   -2.5524976881    1.2361599428
 H    1.2620114872   -2.6217981857   -0.5055610267
 H   -1.5813213425   -2.2055809235    2.0195346379
 H   -3.7352132890   -3.3968092239    1.4664198101
 H   -3.2812733986   -3.4039697272   -0.3167794197