22

 C    0.1113617612    1.7737352750    0.2071493739
 C    0.0128450263    0.2901264833    0.4852458041
 N    0.8723496843   -0.7981096006   -0.0645988826
 C    2.3363385362   -0.4080576548   -0.0473879037
 C    2.8463916003    0.5361387378   -1.1239116167
 C    2.2892596782   -0.0193209741    1.4554669630
 C    0.8300349494   -0.4855857187    1.4359772769
 C    0.2456547101   -1.5327956220    2.3568299742
 O   -0.7966017405   -2.2389062616    1.7171772432
 H    1.0688864994    2.2125785073    0.4913659602
 H   -0.0633356576    1.9876204103   -0.8523343708
 H   -0.6673362688    2.2903601661    0.7788721617
 H   -1.0133379073   -0.0683702575    0.4397299839
 H    2.8753451618   -1.3551440779   -0.1509327061
 H    2.4348478640    1.5433798557   -1.0465442794
 H    3.9376602110    0.6138029741   -1.0635862522
 H    2.5930600310    0.1417858493   -2.1137852433
 H    2.9382507902   -0.6314509621    2.0852155744
 H    2.4535005351    1.0315939080    1.7103250998
 H    1.0509782330   -2.2131844503    2.6841094851
 H   -0.1775313275   -1.0740563161    3.2590947321
 H   -0.4737119999   -2.4094699012    0.8195914724