20

 C   -0.0876343738    1.5375273915   -0.1174420319
 C   -0.0810928202    0.0392515522    0.0974319839
 C   -1.2268212940   -0.7004941395   -0.5624112702
 O    1.2004453001   -0.6018283315   -0.0510064503
 C    0.5976422764   -0.5834952553    1.2515001127
 C    1.3084378848    0.1416263931    2.3428982927
 C    0.8214360377   -0.0200985069    3.7650338858
 C    2.1216160364   -0.6486027292    3.3422138756
 H    0.7933455108    2.0139936685    0.3145607163
 H   -0.0982325325    1.7617203345   -1.1898326799
 H   -0.9822112601    1.9885111043    0.3257721447
 H   -1.2216291801   -0.5265297089   -1.6442657283
 H   -1.1457370213   -1.7766225809   -0.3905601075
 H   -2.1910693898   -0.3556608972   -0.1731042277
 H    0.2143245845   -1.5593690221    1.5659679607
 H    1.7021553722    1.1146290923    2.0726262152
 H    0.8480296172    0.8478575715    4.4139418039
 H   -0.0265907329   -0.6751463141    3.9374811817
 H    2.1509688554   -1.7269708310    3.2257253123
 H    3.0484627292   -0.2146606414    3.6996692104