22

 C    0.0364250604    1.5747720089   -0.0287665475
 C   -0.0576747244    0.0557733103    0.1342856932
 C   -1.4756896593   -0.4859316613   -0.0882586060
 O   -1.9810466581   -0.1247251207   -1.3719396321
 C   -1.5393479536   -2.0063433519    0.1473091064
 N   -2.8744309228   -2.5727486674    0.1449045102
 C   -3.5653110202   -2.7895379811   -1.1191671749
 C   -3.4678535710   -2.9614209513    1.3107767359
 O   -4.5719352523   -3.4522274238    1.4176431130
 H    1.0685623984    1.9199248318    0.0800744190
 H   -0.3295800907    1.8822377829   -1.0116104039
 H   -0.5705691394    2.0876129989    0.7249367009
 H    0.6234480454   -0.4405771527   -0.5736534438
 H    0.2817977430   -0.2368191220    1.1356963039
 H   -2.1637410068   -0.0054249345    0.6186548027
 H   -1.3690830202   -0.4638638327   -2.0358657758
 H   -0.9289923838   -2.5144988607   -0.6150451390
 H   -1.0805449622   -2.2263045198    1.1178220435
 H   -2.9635208799   -3.4328394707   -1.7742234904
 H   -4.5094190881   -3.2858202365   -0.8948999750
 H   -3.7478814091   -1.8423957883   -1.6304619889
 H   -2.8097489052   -2.7761998473    2.1837184688