20

 C    0.0362839864    1.5591914600   -0.0174309614
 N   -0.0194998048    0.1128171578    0.0851208161
 C   -1.3545208994   -0.4663278310    0.3635991682
 C   -0.9854264565   -1.4010327323    1.5490693117
 C   -0.2356191620   -0.3844321572    2.4813297497
 C    0.7479989695   -0.4694318858    1.1815210335
 C    0.3402765332   -1.9894528336    1.2027120683
 C   -0.5494775733   -3.1126712327    0.5763806467
 O   -1.6539359624   -2.6936688437    1.4825130782
 H    1.0701562205    1.8745018325   -0.1934212148
 H   -0.5616005034    1.8855024822   -0.8740556884
 H   -0.3357500259    2.0929187610    0.8769672700
 H   -2.0851615533    0.2912902614    0.6759644506
 H   -1.7623992837   -0.9958896679   -0.5016887211
 H   -0.6931126929    0.5858789598    2.6969537265
 H    0.1963946556   -0.8253274162    3.3783997504
 H    1.7831834772   -0.1291060353    1.2308956066
 H    0.7763403426   -2.4267127964    2.1029607552
 H   -0.8399538581   -3.0019799449   -0.4710336250
 H   -0.2417586591   -4.1395257178    0.7848067887