23

 C   -0.0245410371    1.5843742414    0.0612847627
 C    0.0300853193    0.0548983948    0.0395248686
 C   -1.3678472020   -0.5738976034   -0.0268667347
 N   -1.3557266439   -2.0330764081   -0.0271208984
 C   -1.2926172965   -2.7374919256    1.2388014369
 C   -1.3175614121   -2.6750809873   -1.2469726194
 O   -1.2173071746   -2.0695916434   -2.3057101338
 N   -1.3671814900   -4.0580167868   -1.1924824084
 C   -1.4866060262   -4.7993197565   -2.4361916282
 H    0.9793873493    2.0176333062    0.0973759060
 H   -0.5227274228    1.9733305335   -0.8334379646
 H   -0.5767163445    1.9530572488    0.9336232720
 H    0.5963229040   -0.2920926498   -0.8311102956
 H    0.5576401277   -0.3116886624    0.9299173111
 H   -1.9767716415   -0.2364974018    0.8216346878
 H   -1.8649717054   -0.2520122742   -0.9442648689
 H   -2.2630619683   -3.1598644571    1.5443370854
 H   -0.5571097629   -3.5481246841    1.2062088316
 H   -0.9797006448   -2.0427322397    2.0211704082
 H   -1.7972329730   -4.4782035272   -0.3850357387
 H   -1.1684333465   -5.8326668789   -2.2732345964
 H   -2.5088630386   -4.8020842935   -2.8384855010
 H   -0.8380840598   -4.3340113250   -3.1784020520