16

 C   -0.0483213655    1.5739932487    0.2334751208
 C   -0.0278584303    0.0569470517    0.0085181825
 O    0.7318168923   -0.6019661240    1.0229064456
 C   -1.4022130568   -0.5218224747   -0.1076640380
 C   -2.0685183821   -1.2060832917   -1.0748879066
 C   -3.3704716017   -1.4985992793   -0.5482612050
 C   -3.3947329932   -0.9746824861    0.7028432310
 O   -2.2078775016   -0.3719330015    0.9884998333
 H    0.9749722277    1.9443732338    0.3354817001
 H   -0.5319028210    2.0880677111   -0.6030504316
 H   -0.6023013668    1.8183763404    1.1456184602
 H    0.4962992504   -0.1641857333   -0.9269151250
 H    0.2265404881   -0.5384373198    1.8411725390
 H   -1.6797637427   -1.4745812720   -2.0447983353
 H   -4.1717270708   -2.0298599738   -1.0373701210
 H   -4.1358211360   -0.9418969394    1.4842634899