18

 C   -0.0321577856    1.6025348299   -0.2210589887
 C    1.5287399112    1.4532050558    0.0837156477
 C    1.1128496709    0.2473179261    0.9765596791
 C    1.1172929782   -1.3076968366    1.1670009705
 C   -0.4702874780   -1.1348041976    1.0327842977
 O   -1.0221034868   -0.7300604331    2.2833806459
 C   -0.2961851222    0.2770585146    2.8257266954
 N    0.7209068559    0.8082132681    2.2931844426
 C   -0.0954971234    0.0637271926    0.0866950304
 H   -0.5186581752    2.2337054034    0.5215860605
 H   -0.3253263452    1.9160696870   -1.2252352221
 H    2.0771010379    1.1639807206   -0.8161228204
 H    2.0280852937    2.2825416464    0.5886182473
 H    1.5189669067   -1.8616222608    0.3179126740
 H    1.4895842907   -1.7141253737    2.1111180726
 H   -1.0853173373   -1.9607187682    0.6755435297
 H   -0.6835853465    0.5800484575    3.7950778824
 H    0.2398238748   -0.4301531520   -0.8320173345