19

 C   -0.2139563392    1.5701207187   -0.0701709792
 C    0.0336101934    0.0735209566   -0.0061625759
 C    1.1341261588   -0.5486184797   -0.9083563088
 O    2.3503412664    0.2276160020   -0.9822600481
 C    2.9208798951   -0.4646232538    0.1867928307
 C    2.9021182719    0.3868927896    1.4306890594
 C    1.6981557251    0.3388540154    2.0067866476
 C    0.7471697916   -0.5668483674    1.2642140842
 C    1.6686834449   -1.3634941770    0.2886577770
 H    0.7247297202    2.1197732435    0.0312195421
 H   -0.6631781171    1.8489537349   -1.0298148329
 H   -0.8954486826    1.8949302896    0.7240073737
 H   -0.8971028457   -0.4781661030   -0.1855334047
 H    0.8465824507   -0.9475372394   -1.8846483051
 H    3.8864034843   -0.9055137068   -0.0760076962
 H    3.7369260533    1.0004795158    1.7480120233
 H    1.3984705335    0.9162139115    2.8751026411
 H    0.0732952826   -1.1285774091    1.9142053014
 H    1.7515796927   -2.4462570114    0.3508846104