17

 C   -0.1203779954    1.4363644745    0.1724224758
 C    0.1003233167   -0.0482350169   -0.0785558039
 O    1.1126441766   -0.5040732595   -0.5426260317
 N   -1.0094601592   -0.8220325963    0.2861750867
 C   -1.1249297749   -2.2139365518    0.2592326502
 O   -0.2397900013   -2.9881942773    0.0098514600
 N   -2.4420837885   -2.5827887485    0.6400469750
 C   -3.4745531832   -2.6732352383   -0.4064387481
 C   -2.9060741924   -3.8952929542    0.2283301924
 H    0.7627066831    1.9797225483   -0.1608749958
 H   -0.9984093941    1.8015371742   -0.3711438789
 H   -0.2840755716    1.6289244173    1.2381870073
 H   -1.8158365194   -0.3384241547    0.6515551997
 H   -4.4575725992   -2.3067502934   -0.1257672739
 H   -3.1719024304   -2.4540345001   -1.4272732018
 H   -2.2084033122   -4.4912417792   -0.3519378086
 H   -3.4814223345   -4.4337013741    0.9747462655