16

 O    0.0716029426    1.3333835197   -0.1689866117
 C    0.0360138976   -0.0772335327   -0.1214951222
 C   -1.3642525856   -0.5919641323    0.1945639292
 O   -2.2603807336   -0.1006747476   -0.8373969610
 C   -3.0947214048   -1.0864422955   -1.2983395964
 N   -4.1041007882   -0.9137077453   -2.0331653882
 C   -2.6177634079   -2.3975056544   -0.7701774971
 O   -1.2427113038   -2.6463859076   -1.1209392135
 C   -1.5280092213   -2.0988517671    0.1648865065
 H   -0.5522978558    1.6038345949   -0.8520298770
 H    0.3717917230   -0.5353668698   -1.0618179238
 H    0.7228064615   -0.3851017499    0.6743354877
 H   -1.7061295613   -0.1847262685    1.1541120819
 H   -4.2461071208    0.0783676275   -2.2319415593
 H   -3.2783314025   -3.2545306008   -0.7288362873
 H   -1.2809983590   -2.7102776006    1.0271837122