19

 O   -0.0687004215    1.4461664208    0.0145494722
 C    0.0170824327    0.0295621805   -0.0063918369
 C   -1.4079128927   -0.5126441512    0.0827745821
 C   -1.4126418938   -2.0472683147    0.1484348246
 C   -0.4258659612   -2.6658448298   -0.7970354852
 C    0.5265340216   -1.9747507488   -1.4420356840
 C    0.7057335415   -0.4864592521   -1.2758002721
 C    1.4461967841   -2.6977984633   -2.3372763203
 O    2.3589108884   -2.1825585410   -2.9436469564
 H    0.8200952513    1.8011331314   -0.0899740781
 H    0.5827286650   -0.3309349709    0.8706584055
 H   -1.9090801412   -0.0852474587    0.9559124393
 H   -1.9592764067   -0.1727219248   -0.8019922356
 H   -1.1786443492   -2.3916663002    1.1673258056
 H   -2.4168547929   -2.4380389591   -0.0584989001
 H   -0.4878312408   -3.7425295580   -0.9506618677
 H    0.2864531292    0.0429684817   -2.1417689752
 H    1.7769789292   -0.2530769632   -1.2717402818
 H    1.2425240070   -3.7894833487   -2.4220187858