16

 O   -0.0931412779    0.6059623427    1.2232525253
 C   -0.0580615636    1.1677406928    0.1431716992
 N    1.0678780541    1.4001065662   -0.5800227999
 C    2.3879041360    1.0373445605   -0.0913261391
 C    3.3332515232    2.1482689311   -0.1624544252
 C    4.1119729658    3.0590452480   -0.2468050291
 C   -1.3165372579    1.6964848095   -0.5035362360
 C   -1.4804455537    3.1410908339   -0.7388591399
 O   -1.2012556886    2.2482415086   -1.8185035722
 H    0.9613848141    1.8288691328   -1.4873303298
 H    2.2476228019    0.7043467128    0.9423065230
 H    2.7850822594    0.1802929415   -0.6520788101
 H    4.8037162550    3.8627321393   -0.3061568365
 H   -2.1979497713    1.0879211492   -0.3169211846
 H   -2.4801166270    3.5704285052   -0.7354474598
 H   -0.6711278496    3.8175229161   -0.4712832453