20

 C   -0.0014463078    1.4720073720    0.0923616678
 C   -0.0030048580   -0.0358591614   -0.0228037455
 C    0.6930094626   -0.7049471254   -1.2333725768
 C    0.4375894798   -2.1282860151   -0.6694686943
 C    1.0530249214   -1.9502096645    0.7283957774
 O    0.7214971567   -0.5938268585    1.0807075280
 C   -1.1036257871   -2.0993593116   -0.5490595888
 N   -1.6190340559   -1.8353579529    0.8131111953
 C   -1.4045454435   -0.7105199534   -0.1187859094
 H    1.0209930240    1.8586047685    0.0673106263
 H   -0.5653869256    1.9242549983   -0.7295387124
 H   -0.4594938476    1.7810907339    1.0366262859
 H    0.1785060181   -0.5249236372   -2.1813569010
 H    1.7492541078   -0.4334204420   -1.3226696349
 H    0.8383374405   -2.9691866068   -1.2359745137
 H    0.6303081538   -2.6319251725    1.4697051547
 H    2.1449906236   -2.0635240852    0.7016835916
 H   -1.7147899962   -2.6504305177   -1.2557032352
 H   -2.6133643885   -2.0544408689    0.8360162855
 H   -2.2565102081   -0.1397047496   -0.4750915105