25

 C   -1.8744108323   -0.3217470051    1.4034411357
 C   -0.7394000867    0.0301456297    0.4639160370
 C   -0.2484107156    1.4517821492    0.3187093871
 C    0.6851586162    0.3899353112    0.8501721718
 C    1.3581242961    0.4027916125    2.2294951608
 C    2.6997117387    1.1530991439    2.0811134767
 C    0.5519604457    1.0751534964    3.3549031787
 C    1.6355926202   -1.0642730369    2.6074394424
 O    2.3612139137   -1.1070083633    3.8294974730
 H   -1.9420305217    0.3608887920    2.2523138365
 H   -2.8296853394   -0.2670853483    0.8687562337
 H   -1.7794466042   -1.3400503567    1.7977444194
 H   -0.7898279269   -0.5308382216   -0.4671672749
 H   -0.0698753672    1.8647495607   -0.6686373966
 H   -0.6472672693    2.1708175809    1.0273931189
 H    1.3966732299    0.0422060285    0.1021229487
 H    2.5264903082    2.2007894624    1.8152931525
 H    3.2665248264    1.1177858896    3.0143352587
 H    3.3178690483    0.7063937772    1.2941342611
 H   -0.3741118212    0.5415808780    3.5799382776
 H    1.1493571758    1.0854447721    4.2695709318
 H    0.3021291751    2.1101506474    3.1036625197
 H    0.6789818137   -1.6014816868    2.6997948128
 H    2.2070458672   -1.5440269834    1.7961457991
 H    2.5273195391   -2.0278143196    4.0486683379