12

 N   -0.0725599625   -1.1064597872    0.4177828338
 C   -0.0207810741    0.0198084273    0.1691196909
 C    0.0354471310    1.4505755261   -0.1421061581
 C    1.4279468286    1.9986752123   -0.1562537615
 N    2.0275922265    2.5964564199   -1.1336100813
 C    3.2775350814    2.9239558633   -0.6191573321
 C    3.3551092310    2.4920814646    0.6601113665
 O    2.1657052532    1.8943241283    0.9737839863
 H   -0.3960926356    1.6277305621   -1.1304294149
 H   -0.5795384687    1.9885424293    0.5897807897
 H    4.0175357007    3.4395964777   -1.2093988498
 H    4.1016020785    2.5126738064    1.4347567904