15

 C   -0.1399346286    1.4559869471    0.0398291693
 C    0.0979868104   -0.0149730335    0.0551301834
 O   -1.0761630900   -0.8810528412   -0.0827787724
 C   -0.6031584489   -1.6959292224    0.9610102141
 N   -1.1712673017   -2.6378148147    1.5577254514
 C    0.6983153721   -0.9930879093    1.0784799600
 C    1.2728867559   -0.8230695208   -0.3473392612
 O    1.2428101676   -1.7905288666   -1.3345082625
 H    0.7961847858    1.9898449873    0.2261154746
 H   -0.5235717174    1.7739421875   -0.9355536163
 H   -0.8656568405    1.7430813105    0.8066182227
 H   -2.1075180228   -2.8044934691    1.1857078351
 H    1.2770518471   -0.8440222677    1.9786209086
 H    2.2254530965   -0.2999613002   -0.3425948772
 H    0.3138736445   -1.9882964470   -1.5121668196