18

 C   -0.0525541642    1.5703492743    0.0782137678
 C    0.0206955737    0.0483624505   -0.0341623731
 C    0.7233842923   -0.4681343580   -1.2664065625
 N    1.2004067920    0.3860150800   -2.1200081957
 N    1.8230241006   -0.1066578372   -3.2116310834
 C    2.0328051772   -1.4440837734   -3.5630774717
 N    2.6348947840   -1.8587354702   -4.6198102186
 C    1.4815989662   -2.3599996419   -2.5777549898
 C    0.8556112285   -1.8915648671   -1.4797641424
 H    0.9468439696    2.0125047165    0.0958557743
 H   -0.5841044216    2.0029749667   -0.7731766406
 H   -0.5749088590    1.8570091735    0.9953167750
 H    0.5249239072   -0.3695561617    0.8487768529
 H   -0.9919892705   -0.3788660868   -0.0123475964
 H    2.1688414706    0.6105077166   -3.8317396675
 H    2.9576153669   -1.0822720196   -5.2001393762
 H    1.6062028187   -3.4162133741   -2.7827816218
 H    0.4422630678   -2.5710753880   -0.7408400604