17

 N   -0.1462393666    1.4502087770    0.0683732101
 C   -0.0375734305    0.0378517598   -0.0671799689
 C    0.7109279643   -0.7842994577   -1.1337167449
 C   -0.4966371064   -1.7928351721   -1.1476015160
 O   -0.2826120834   -3.1654157963   -1.0018284028
 C   -1.1737935044   -0.9819037505   -0.0286674044
 C   -0.2587399530   -0.8103160635    1.1729430116
 C    0.6669039311   -1.8250910960    1.5994697672
 N    1.4209210196   -2.6509689852    1.9019035856
 H    0.7358373482    1.8550339650    0.3697828656
 H   -0.3835571547    1.8800027201   -0.8209885801
 H    0.8263805052   -0.2529916865   -2.0813883370
 H    1.6791570433   -1.1977445202   -0.8365435458
 H   -1.0672307297   -1.6800218575   -2.0730950531
 H    0.2684880119   -3.3216462285   -0.2253985213
 H   -2.2382105034   -0.8225931747    0.0968960522
 H   -0.7164435716   -0.2534731832    1.9838490421