17

 C   -0.2434896196    1.5344537136    0.0766707234
 C   -0.1032511542    0.0431130139    0.0183004917
 C    0.0620599998   -0.7356658511   -1.1207762479
 N    0.1053997534   -2.0627505889   -0.7195907858
 C    0.0046568170   -2.1330657725    0.6379384783
 C   -0.1467938203   -0.8515349533    1.1211315757
 C    0.1445572615   -0.3508803107   -2.5331374167
 N   -0.0642379821   -1.3964772892   -3.4344784030
 O    0.4158353369    0.7730266458   -2.9193452458
 H   -0.1332859453    1.9703451739   -0.9159864840
 H   -1.2169675802    1.8254814969    0.4885924847
 H    0.5214261347    1.9706379848    0.7293867968
 H    0.3918168805   -2.8177130376   -1.3192878445
 H    0.0562642859   -3.0800295437    1.1519613293
 H   -0.2766508698   -0.5787950523    2.1578014929
 H   -0.7699443501   -2.0766122833   -3.1907349205
 H   -0.1240325581   -1.0738371165   -4.3907550948