17

 O    0.0655530844    0.0181286310    0.5767328456
 C    0.0169656949    1.1135749620    0.0881638627
 C   -1.3042429550    1.8504594790   -0.1091534092
 C   -1.2872814034    2.9987385346   -1.1400399451
 C   -0.0111505715    3.8272069386   -0.8901883591
 C    1.2128044167    2.9368491512   -1.0282628184
 O    1.1710208923    1.7585255520   -0.2031724994
 C   -1.3496048223    2.4981823873   -2.5122267435
 C   -1.3887706898    2.0765390611   -3.6373468155
 H   -2.0603119310    1.0997294764   -0.3426311660
 H   -1.5595257706    2.2645482109    0.8744882443
 H   -2.1666361012    3.6306277504   -0.9674627523
 H    0.0673977681    4.6537213472   -1.6024390610
 H   -0.0584296281    4.2550742720    0.1176516319
 H    1.3266662433    2.6138245704   -2.0692913375
 H    2.1233089886    3.4623552398   -0.7307635433
 H   -1.4346075153    1.7041231860   -4.6310811144