16

 O   -0.0870130321    1.4112955616    0.1006309387
 C    0.0152930756    0.0362923002    0.0646607032
 C    0.9167695920   -0.8378496560    1.0163715862
 C    0.7147731722   -1.9547954800   -0.0594550289
 C   -0.8109490859   -2.1533910142   -0.0613913163
 N   -1.5089256815   -1.6846305813    1.1559538642
 C   -1.3020997738   -0.7479287841    0.0324543548
 C    0.7980157850   -0.7444477253   -1.0408346214
 O    1.3892099513   -0.4439441501   -2.0322163973
 H    0.6897886902    1.7817456124   -0.3352273028
 H    1.9469224433   -0.4796130527    1.0528867590
 H    0.5125381535   -1.0402705097    2.0042972505
 H    1.3733138712   -2.8148518028   -0.1367658384
 H   -1.2679416545   -2.8971528640   -0.7025213693
 H   -2.4695251015   -2.0177759262    1.1191841166
 H   -2.1381551250   -0.3563452979   -0.5338311588