19

 C    0.1776483560    1.5488175913   -0.0915395893
 C   -0.1202126813    0.0556810855    0.0898568244
 C   -1.6312146381   -0.2004156997    0.1964540429
 O    0.3962792183   -0.6409416382   -1.0674375542
 C    1.2667484415   -1.7047654958   -0.6790035211
 C    1.4248839468   -1.5411191785    0.8185904859
 C    0.6430633064   -0.5583464331    1.2401298220
 C    0.7246968360   -3.0196186074   -1.0474691486
 C    0.2962312706   -4.1032257913   -1.3421271095
 H    1.2545688762    1.7168318692   -0.1728822309
 H   -0.3012277290    1.9169623579   -1.0036711438
 H   -0.2043629324    2.1287823780    0.7549646732
 H   -2.1385111871    0.1783333013   -0.6957957745
 H   -1.8292376387   -1.2717537448    0.2805184477
 H   -2.0529304821    0.3036945641    1.0725500257
 H    2.2263932106   -1.5717630047   -1.2026265444
 H    2.0712752066   -2.1782966921    1.4070488187
 H    0.5271680043   -0.2172486904    2.2615632858
 H   -0.0875893549   -5.0571854413   -1.6077425898