17

 N    0.0046046985   -1.0552409108   -0.7623812899
 C   -0.0128022506    0.0097320379   -0.3149319154
 C   -0.0063358772    1.3534180620    0.2641495161
 C    1.3812137437    1.9757254589    0.2495864966
 N    1.7568727317    2.6799133175   -0.9875167873
 C    1.5758228944    3.4403356557    0.2362071846
 C    0.6036835689    4.6016725968    0.4251835613
 O    1.5873512115    5.3080155324    1.2149613859
 C    2.5843833133    4.2860762133    1.0106157269
 H   -0.6944222801    1.9869028544   -0.3044473419
 H   -0.3849487437    1.2927407361    1.2914217874
 H    2.1449588066    1.3843375570    0.7517452924
 H    2.7409618402    2.5477732626   -1.2080661935
 H    0.3469876418    5.1341656188   -0.4986887735
 H   -0.3105322805    4.3972765087    0.9965663427
 H    2.9541689998    3.8698130386    1.9560392885
 H    3.4355616317    4.6506595101    0.4185004891