21

 C    0.0572414688    1.4675546557   -0.1761535473
 C    0.0385145737   -0.0396753561    0.0006592697
 O    0.0400473467   -0.5576866998    1.0947980361
 C    0.0170900871   -0.8685931151   -1.2749675180
 C    0.0114552196   -2.3665115160   -1.0110477334
 O   -0.0227163759   -3.0288855410   -2.2600003884
 C   -0.0146317013   -4.4417634367   -2.1562192046
 C    0.0934095404   -4.9825372753   -3.5731966781
 O    1.2691369166   -4.5231502092   -4.2099353321
 H    0.9383167250    1.7730881538   -0.7515891597
 H   -0.8207564656    1.7966339707   -0.7432518719
 H    0.0685720766    1.9544857109    0.7994973658
 H   -0.8626426653   -0.5870359544   -1.8684518700
 H    0.8830518349   -0.5957535667   -1.8924294614
 H    0.9044641047   -2.6577623888   -0.4384773716
 H   -0.8611691891   -2.6419639837   -0.4009311928
 H    0.8496663575   -4.7740802561   -1.5594378814
 H   -0.9319566846   -4.8053826946   -1.6649205309
 H    0.1400168813   -6.0761784619   -3.5500627624
 H   -0.8088279868   -4.6941318356   -4.1363200162
 H    1.2897336756   -3.5713992801   -4.0550846914