19

 O   -0.0082103190    1.5850908325    0.3246523490
 C    0.1073352605    0.2262442533    0.0291980080
 C    0.2832083409   -0.7090298421    1.2369270773
 N   -0.8764419738   -0.3883655686    2.1011004770
 C   -1.0302238994   -1.3708072014    0.9920650549
 C   -1.2127155895   -0.5871396056   -0.3255042869
 N   -2.3869188208    0.1584272264   -0.7051189136
 C   -3.6919036223   -0.4645640735   -0.5095877792
 C   -3.2788125448    0.7087151479    0.3103550908
 H   -0.5406722975    1.6299384893    1.1308937001
 H    0.8731530101    0.1225937237   -0.7415404989
 H    1.1941689108   -1.1119345558    1.6613199263
 H   -0.7753199022   -0.9130293552    2.9678801382
 H   -1.3171836184   -2.3929602685    1.2092734405
 H   -0.9793028600   -1.2668904369   -1.1529755329
 H   -4.3970735339   -0.3510981472   -1.3285980017
 H   -3.7321161817   -1.4294683313   -0.0062324240
 H   -3.0457639920    0.5314706363    1.3547197777
 H   -3.6733666269    1.6954007668    0.0825694673