17

 C   -0.3225724643    1.5448664512    0.0608417203
 C   -0.1175932151    0.1043266538    0.0278340832
 C    0.0673495184   -1.0858747582    0.0169455023
 C    0.2313076810   -2.5355088944   -0.0310416218
 C   -1.1583329901   -3.1850257814    0.0774186424
 O   -1.4943084614   -3.9110256762    0.9703168057
 C    0.8996600602   -2.9658102082   -1.3337095036
 C    2.3401486155   -3.2244050990   -1.4041901008
 O    1.3958083775   -4.2992228080   -1.3715735200
 H    0.5612143350    2.0606920308    0.4515335879
 H   -0.5232971476    1.9403915407   -0.9406254988
 H   -1.1718198963    1.8090321817    0.7001410046
 H    0.8225043439   -2.9036380588    0.8142726501
 H   -1.8457671972   -2.9096993174   -0.7532451834
 H    0.3830046038   -2.6432916558   -2.2384980941
 H    2.8674268658   -3.0932272819   -2.3474278837
 H    2.9477455010   -3.1092837589   -0.5080492002