20

 C   -0.0684102727    1.5555339535   -0.0477233394
 C    0.0694873829    0.0521157091    0.0333761261
 O   -1.0743313340   -0.6301212809   -0.4246456405
 C    1.3592181863   -0.7015524477   -0.2277952285
 C    2.5614634073   -0.0171942728    0.3786189912
 N    3.1344142491   -0.7819490408    1.4894136274
 C    1.9111525552   -0.0168717178    1.7479961683
 C    1.9255555517    0.9914401106    2.8605455473
 C    0.6906680616   -0.7110078370    1.1723907540
 H    0.8203711382    2.0708479764    0.3196415730
 H   -0.2226197645    1.8641667801   -1.0897930788
 H   -0.9350844173    1.8882151510    0.5323751853
 H   -1.2099810478   -0.3889288490   -1.3477010937
 H    1.3782847561   -1.5178714855   -0.9420051837
 H    3.1836914247    0.7426024898   -0.0809805405
 H    2.9541826205   -1.7791258554    1.3890895313
 H    2.9057306107    1.4698755505    2.9286333408
 H    1.1631297340    1.7627468415    2.7152074445
 H    1.7257474019    0.5045653561    3.8224400638
 H    0.1397701562   -1.5250770019    1.6311593619