19

 C    0.0281532377    1.5548303744    0.1088270378
 C    0.0708390032    0.0618614952   -0.1212426834
 C    0.7115437205   -0.6460580361   -1.2460349262
 N    1.2669471561   -0.7850124083    0.1899737441
 C    2.4183957133   -0.0201103702   -0.2330676724
 N    3.3612400345    0.3899319586    0.4886260222
 C    2.0377440554   -0.0250266418   -1.7210748118
 C    2.8803009017   -1.0112184989   -2.5295115302
 O    2.0377846028    1.2580289306   -2.3081665128
 H    0.8694738126    2.0779668791   -0.3433773977
 H   -0.8934711197    1.9594066804   -0.3228966218
 H    0.0175572629    1.7646747054    1.1831874007
 H   -0.8152068381   -0.4516018937    0.2487182858
 H    0.2483538869   -1.5031682528   -1.7255812812
 H    4.0470974784    0.8912539412   -0.0804169683
 H    2.9228049947   -1.9903467482   -2.0456240239
 H    2.4487145185   -1.1474427981   -3.5294872995
 H    3.8992994348   -0.6302585039   -2.6406761218
 H    1.9145944136    1.1621241571   -3.2589213297