21

 O    0.0807045584    1.4252003187   -0.0013293281
 C    0.0529553566    0.0338038697    0.2353377110
 C   -1.3484752152   -0.5284979376   -0.0268408155
 O   -1.7830136971   -0.1155641167   -1.3207921067
 C   -1.4115061637   -2.0539649255    0.0882561988
 C   -2.8181287153   -2.6566037791    0.0374574604
 C   -2.5486452817   -4.0496554744   -0.5478819149
 C   -1.3942109278   -3.7767175564   -1.5243118689
 O   -0.7292051380   -2.5949510556   -1.0553537533
 H   -0.4259652797    1.5491304636   -0.8148956552
 H    0.7782478979   -0.5036259213   -0.3981013145
 H    0.3385551674   -0.1293825667    1.2810287106
 H   -2.0486732608   -0.0782644302    0.6866792240
 H   -1.3487379028   -0.7314038559   -1.9292455629
 H   -0.8903606119   -2.3712178802    1.0057687150
 H   -3.2978814551   -2.6834794111    1.0185436247
 H   -3.4394558803   -2.0594366368   -0.6377815403
 H   -2.2279135224   -4.7384527611    0.2405407366
 H   -3.4175375197   -4.4897321370   -1.0425466271
 H   -0.6713788159   -4.5988531970   -1.5684440741
 H   -1.7605714629   -3.5923504193   -2.5426838995