15

 O   -0.0595869606    1.9411350331   -1.7254331855
 C   -0.0954679503    1.8050249206   -0.5289023854
 C   -1.3777418917    1.6248374765    0.2644659222
 C   -1.5599794981    2.5928158049    1.4065526668
 C   -0.7300385363    3.5720718904    1.7630483754
 C    0.5832281901    3.8891121385    1.0871550571
 O    1.5083071875    2.7761705377    1.0706950612
 C    1.2132382217    1.7234620869    0.2867764290
 O    1.9211506865    0.7584455760    0.2323787374
 H   -2.2179395729    1.6848143575   -0.4371349416
 H   -1.3737791065    0.5987318452    0.6637140310
 H   -2.4738356657    2.4498126312    1.9776564906
 H   -0.9934669200    4.1992997009    2.6091710325
 H    0.4355761802    4.2489577109    0.0614002040
 H    1.1161496559    4.6677879899    1.6324733355