19

 C    0.2033555422    1.5693903122   -0.2567830814
 C    0.0104931572    0.0950767185    0.0624053076
 C    0.6761610185   -0.9734422559   -0.8487088879
 N    1.2752719284   -1.6880410724    0.3291726711
 C    2.7073421470   -1.2938643668    0.5569294371
 C    2.2463866392   -0.1488739190    1.4358634385
 N    2.7702386347    0.7648707595    2.1372772769
 O    4.1724850126    0.7317008377    2.0346479576
 C    0.8043700198   -0.5491445132    1.2344828783
 H    1.2620270694    1.8188980603   -0.3749002459
 H   -0.3132713055    1.8340741373   -1.1858563318
 H   -0.1983370876    2.2026860004    0.5412855558
 H   -1.0543460865   -0.1189679673    0.1935892553
 H   -0.0074939614   -1.6084258620   -1.4189959419
 H    1.4274871971   -0.5694818195   -1.5390007802
 H    3.2731915750   -2.0652707746    1.0911739095
 H    3.2640933544   -1.0221665873   -0.3471848477
 H    4.4371610076    1.4498427120    2.6195541000
 H    0.2439344579   -0.8031261999    2.1385934991