16

 N    0.0899246554    1.4023217509    0.1362952459
 C   -0.0037925241    0.0084610837    0.0241878609
 C   -1.1575306914   -0.7044258338    0.0016045839
 C   -1.1840428526   -2.1546597486    0.0016539518
 N   -2.2941643644   -2.8120019486   -0.0056217319
 C    0.1564343914   -2.7679482424   -0.0169971814
 O    0.1561731456   -4.1322545658   -0.0532984626
 C    1.2763367924   -2.0172905066   -0.0093329185
 N    1.2168031009   -0.6265671540   -0.0223806363
 H    0.6757219839    1.8182347097   -0.5796450826
 H   -0.8202017829    1.8429104121    0.1285132622
 H   -2.1116064015   -0.1923793322   -0.0321969895
 H   -2.0966175917   -3.8133256611   -0.0192897239
 H    1.0616110299   -4.4588598467   -0.0633336647
 H    2.2745719212   -2.4403064308   -0.0258684365
 H    2.0090644977   -0.1156458357    0.3341095331