18

 O    0.0057993537   -0.0196429620   -0.1592969295
 C   -0.0029671484    1.1793937947   -0.0259627590
 C   -1.2746360434    2.0231381555    0.1194521061
 C   -0.8878837098    3.3367540735    0.8078503692
 C    0.0251689953    2.9724509028    2.0065841186
 N    1.2322974248    3.0846000942    1.1228370981
 C    0.4132892974    3.9439641237    0.1702395620
 C    1.0207907633    3.2013505018   -1.0221972969
 C    1.2479048040    2.0454675500   -0.0030055538
 H   -1.7027221421    2.1900322409   -0.8769272694
 H   -2.0139803791    1.4583981967    0.6956470556
 H   -1.7392054453    4.0032282907    0.9654844353
 H    0.0890128411    3.7518117240    2.7715732176
 H   -0.1297304878    2.0038437541    2.4949960715
 H    0.5153271218    5.0287680699    0.2573557849
 H    0.4187991391    2.9998026419   -1.9106784629
 H    1.9679513725    3.6577782025   -1.3161562353
 H    2.1561175629    1.4447952250   -0.0544012220