14

 N    0.1524410802    1.4128786879    0.0175846040
 C    0.0387814186    0.0003475415    0.0608903344
 C   -0.4695398648   -0.6951250587    1.2624271699
 C   -1.3650995976   -0.7445095571    0.0066577304
 C   -2.5387334829    0.0755576532   -0.0218391046
 C   -3.4892953194    0.8123353278   -0.0454618030
 C   -1.4114778010   -1.9826899724   -0.7221887396
 N   -1.4053199198   -2.9772643281   -1.3143630325
 H    0.1166108295    1.7534547279   -0.9380822371
 H   -0.5983657478    1.8653688938    0.5288247271
 H    0.8009909329   -0.5135633528   -0.5155363551
 H   -0.0086487689   -1.6282850371    1.5639053999
 H   -0.8581014503   -0.0936934029    2.0770865564
 H   -4.3504015487    1.4337622972   -0.0648599001