17

 C   -1.7937285026    0.8135157139   -0.7476945456
 N   -0.8288811353   -0.2577310427   -0.5144472469
 C    0.3664626295   -0.3762894183   -1.3239564622
 C    0.7269656395    0.5858533004   -2.4511435380
 C   -0.0113143155    0.2912726562   -3.6750229626
 C   -0.6272045983    0.0301460872   -4.6730915234
 C    0.4615355112    0.0400188010    0.1229194726
 C    0.8338535568    1.3977022606    0.4381773660
 N    1.1185805458    2.4869880931    0.7062895232
 H   -1.3540855195    1.8049017400   -0.9160951995
 H   -2.3949112736    0.5434919332   -1.6191803905
 H   -2.4504381909    0.8783983888    0.1239636095
 H    0.6340446749   -1.4089253533   -1.5419108435
 H    0.5603272969    1.6247533491   -2.1502925678
 H    1.8045391121    0.4979620305   -2.6399320271
 H   -1.1674965414   -0.1897712517   -5.5605223971
 H    0.7831045204   -0.6817029180    0.8694783230