15

 C    0.0952664488    1.5542061637    0.0122613499
 C   -0.0582503843    0.0362044048   -0.0562809080
 N    0.6555691214   -0.5362609360   -1.1928365971
 N    0.0320314414   -1.0371545605   -2.2556557646
 N    0.9639436762   -1.4290091811   -3.0806856731
 C    2.1506932105   -1.1422635250   -2.4735903656
 N    1.9746591193   -0.5746459524   -1.2758215261
 C    3.4172965030   -1.4155072161   -3.0405649016
 C    4.4856277748   -1.6535832608   -3.5363274545
 H    1.1479472222    1.8308215458    0.1060014610
 H   -0.3140793147    2.0273594916   -0.8842859121
 H   -0.4442486997    1.9365611680    0.8830981368
 H    0.3316458957   -0.4410037714    0.8464463774
 H   -1.0999672784   -0.2604166603   -0.1886884724
 H    5.4307842138   -1.8637681402   -3.9732015401