13

 C   -0.0319303257    1.3749079967   -0.0533880964
 N    0.0143265812   -0.0733794890   -0.0211707555
 N    0.1293789343   -0.7972815829   -1.1440777218
 C    0.1354140939   -2.0476264788   -0.7001209707
 O    0.2350758478   -3.1208640103   -1.4868104974
 C    0.0214523513   -2.0382813315    0.7071340243
 N   -0.0534155076   -0.7523065048    1.0993882969
 C   -0.0146307014   -3.1283498186    1.6085028882
 N   -0.0415646677   -4.0394129755    2.3216802496
 H    0.8849698693    1.7645571420   -0.5015834436
 H   -0.8901775947    1.7047939453   -0.6433224155
 H   -0.1256561400    1.7188238076    0.9751261321
 H    0.2993059192   -2.8209967201   -2.4026594601