21

 C    0.0757151861    1.5649820009   -0.2192108641
 C    0.1437424506    0.0622505737   -0.0558423895
 C    1.4594716868   -0.6751431285   -0.0859690253
 C    0.6632345919   -0.6004490192    1.1991499810
 C    1.1388562016    0.2236132672    2.3841381201
 O    0.0519362668    0.7953520240    3.0633204286
 C    1.9609741693   -0.6288842683    3.3622656695
 C    3.2083408239   -1.3148048574    2.8593701085
 O    1.5852009899   -0.7230953943    4.5123017197
 H    0.9630146335    2.0624824025    0.1828357443
 H    0.0042794356    1.8337977004   -1.2786699374
 H   -0.7958716397    1.9773048250    0.2983742031
 H   -0.6904037938   -0.4629622017   -0.5139143905
 H    1.5281898566   -1.6262136284   -0.6026822270
 H    2.3608888557   -0.0724135927   -0.1519339143
 H    0.1365845008   -1.5037199309    1.4980300347
 H    1.8163149542    1.0149019746    2.0185556054
 H    0.1349833896    0.4818822417    3.9794798843
 H    3.8480636567   -0.6101323555    2.3188586751
 H    3.7533735987   -1.7494084439    3.6981222371
 H    2.9376047955   -2.1035045492    2.1497439167