18

 C   -0.2427532521    1.5762891649   -0.0562297239
 C    0.0259635400    0.0716247249    0.0422428829
 C    0.9660115177   -0.4592437594   -1.1042922533
 N    1.7283842709   -1.6116454204   -0.5475658157
 C    1.7410317222   -1.3559250865    0.8352607619
 C    0.8239773083   -0.4208870163    1.2084382583
 N    0.8411651975   -0.4459822260    2.5891223204
 C    1.8082988812   -1.3503907280    2.9420310345
 N    2.3707068092   -1.9364238480    1.8952815368
 H    0.6906851613    2.1446682835    0.0089480834
 H   -0.7309675857    1.8258621304   -1.0045492846
 H   -0.9026749013    1.9145222498    0.7498818587
 H   -0.9401952463   -0.4549250534   -0.0146288969
 H    0.4011035503   -0.7615473727   -1.9900167540
 H    1.6443486608    0.3585979788   -1.3916989718
 H    2.6446791293   -1.7210469103   -0.9660640847
 H    0.3184597465    0.1323300442    3.2242018146
 H    2.0727535003   -1.5264192056    3.9739277133