18

 O    0.5009194604    1.1801014700    0.5860754532
 C    0.2008326961   -0.1044446872    0.0879559379
 C   -1.2985513152   -0.3183117709   -0.0588676374
 C   -1.7166652857   -1.7336455730   -0.5309744156
 C   -2.7532615635   -2.1885401797    0.5400707500
 C   -3.0941769736   -0.8566041306    1.2568052614
 O   -1.8768088993   -0.1472901652    1.2414307368
 C   -3.9173460779   -2.8744254131   -0.0044767320
 N   -4.8503340734   -3.4048302683   -0.4338437286
 H   -0.0125883100    1.2867934738    1.3951539455
 H    0.6834523400   -0.1898461732   -0.8914049080
 H    0.6055271084   -0.9008550761    0.7351422166
 H   -1.7092562357    0.4477478351   -0.7327405387
 H   -2.1617134114   -1.7065421543   -1.5265985609
 H   -0.8676971346   -2.4211391199   -0.5616146644
 H   -2.2685353610   -2.8548449414    1.2597544800
 H   -3.8844628590   -0.3216297860    0.7085641998
 H   -3.4090203445   -0.9914678001    2.2932777144