17

 C   -0.0459048151    1.5682828293    0.0492053231
 C    0.0761102511    0.0419456648    0.0118603126
 C   -1.2492925228   -0.5658199122    0.1639394003
 N   -2.3126183765   -1.0006436012    0.2919887948
 C    0.8491008880   -0.6498551464   -1.1125419838
 C    2.2952172786   -0.7090083811   -0.7383492245
 C    2.4857204330   -0.0986633831    0.6376068788
 C    1.1040838270   -0.7110757205    0.9211322411
 N    1.3400791690   -1.7513880605   -0.2200588781
 H    0.9230106491    2.0409920049   -0.1211481787
 H   -0.7337477539    1.9130205700   -0.7280929200
 H   -0.4368128549    1.9035325977    1.0144639144
 H    0.4934875277   -0.8525598393   -2.1159015116
 H    3.0531658798   -0.9620187882   -1.4708586511
 H    3.2572349193   -0.6411742739    1.1894746939
 H    2.6385351547    0.9773867808    0.7560950973
 H    0.8076034859   -1.0513680609    1.9102194515