16

 N   -0.0958301569    1.3072164467   -0.0113082159
 C   -0.0297698950    0.0381549253   -0.0193036912
 C    1.1753215389   -0.9162713982   -0.0334661470
 O    0.6347146933   -2.2544183813   -0.0381358032
 C   -0.7050096528   -2.1510802910   -0.0284037707
 N   -1.5980611804   -3.0460015221   -0.0284516753
 C   -2.8776962478   -2.3012793258   -0.0147059923
 C   -2.5422693434   -0.7578686003   -0.0077056410
 N   -1.0913155209   -0.8202275011   -0.0169209338
 H    0.8353686444    1.7206432621   -0.0153796830
 H    1.7897686701   -0.7769589282   -0.9283469827
 H    1.8020084052   -0.7881477439    0.8545655670
 H   -3.4722938974   -2.5723329426   -0.8927175938
 H   -3.4594896262   -2.5830131004    0.8685238380
 H   -2.9190509113   -0.2302606326   -0.8885985546
 H   -2.9083650597   -0.2406245067    0.8837523095