21

 C   -0.3802518648    1.4343294989    0.1144109013
 C    0.1554070123   -0.0015566959   -0.0396267754
 C    0.9035494229   -0.5031456893    1.1549192144
 C    2.2489072730   -0.7302375895    1.3513484653
 C    2.4290640752   -1.1740085607    2.6956145441
 N    3.6512101575   -1.4894394834    3.3484850547
 C    1.1868788168   -1.2061870335    3.2956004122
 C    0.7993575636   -1.5794413293    4.6854982958
 N    0.2730304018   -0.8081073097    2.3373249425
 H    0.4396804156    2.1352993290    0.2966465859
 H   -0.9134334941    1.7536827302   -0.7871007958
 H   -1.0741702509    1.5131003337    0.9580758714
 H   -0.6827126789   -0.6739400755   -0.2720238924
 H    0.8266296466   -0.0471675305   -0.9033384113
 H    3.0237263518   -0.5938285308    0.6101757002
 H    4.4418940329   -1.2597259103    2.7586967590
 H    3.7203793296   -2.4768609310    3.5709448801
 H    1.6909379432   -1.5664035897    5.3188383091
 H    0.0774792424   -0.8724233465    5.1133093435
 H    0.3539364130   -2.5815459930    4.7607996790
 H   -0.7182880995   -0.7434763332    2.4910628866