16

 C    0.0004955341    1.4628744249    0.0320752713
 N   -0.0997686043    0.0152076951    0.0935969299
 C    0.5934983974   -0.6751195558    1.0712013249
 N    1.1538346540   -0.0014981450    2.0391054037
 N    1.7512032559   -0.7340736552    3.0112652457
 C    1.8894044125   -2.1099132647    3.1121099268
 O    2.4756665257   -2.6307715637    4.0489080462
 C    1.2599656738   -2.8057987551    1.9913038366
 C    0.6331634207   -2.1154668874    1.0165186045
 H    1.0341948553    1.8158858778   -0.0897809317
 H   -0.6044980545    1.8197242354   -0.8040339640
 H   -0.3865030138    1.8964909286    0.9574841388
 H   -0.1267674722   -0.4509355211   -0.7998545516
 H    2.1653266401   -0.1868980221    3.7529281272
 H    1.3204236843   -3.8874526863    1.9963286419
 H    0.1483525008   -2.6247744755    0.1880918197