20

 C    0.0265589890    1.4869375604   -0.0311998905
 N   -0.0043962053    0.0312936055    0.0670622379
 C    0.8371299105   -0.4668735578    1.1501762134
 C   -1.3161982637   -0.5144141251    0.0645414574
 C   -1.8344794112   -1.3292093207   -0.9306565774
 C   -1.2078655182   -1.8271230795   -2.1876985276
 N   -3.1010219270   -1.6183031676   -0.5391058852
 N   -3.4518017940   -1.0543697935    0.6382164711
 C   -2.3689056826   -0.3821175369    1.0087136790
 H    1.0581977159    1.8196334770   -0.1911118665
 H   -0.5763411912    1.8099781073   -0.8835046836
 H   -0.3558013344    1.9964635399    0.8718704583
 H    0.5208941036   -0.1159219271    2.1492652079
 H    0.8213486685   -1.5595772733    1.1540752580
 H    1.8695690803   -0.1362268530    0.9911894335
 H   -1.1599352452   -2.9217714358   -2.2191443579
 H   -1.7510761986   -1.4937430409   -3.0795061972
 H   -0.1890853081   -1.4368356721   -2.2398744019
 H   -3.7753580335   -2.1883306398   -1.0209784009
 H   -2.3775936948    0.1728892830    1.9357943623