21

 C   -0.0808349089    1.4966638876   -0.3154437467
 C   -0.0033973840   -0.0028707461   -0.1393843062
 C    1.3366336570   -0.7228524343   -0.0413884916
 C    1.5762923106   -2.0075873430   -0.7976445523
 O    2.4985845980    0.0543442544    0.0027158540
 C    0.4389944038   -0.6302792996    1.1807203797
 O    0.9889816615    0.2248890316    2.1573959913
 C   -0.3089020579   -1.8139342184    1.7509247704
 O    0.4782471512   -2.6322396386    2.5958383965
 H    0.7925984526    1.9936138595    0.1108320938
 H   -0.1143501106    1.7541384484   -1.3787315759
 H   -0.9805154825    1.9141633381    0.1517973870
 H   -0.7855965924   -0.5584208144   -0.6529073187
 H    1.9197530866   -1.7755094663   -1.8110102030
 H    2.3579975667   -2.6057293565   -0.3162859860
 H    0.6687932142   -2.6103664134   -0.8802195155
 H    2.5144602911    0.4643062796    0.8790723028
 H    0.3088513627    0.8367148237    2.4588568458
 H   -1.1353679063   -1.4540514375    2.3771303749
 H   -0.7608757580   -2.3892722151    0.9283534158
 H    1.2630191945   -2.8929513898    2.1028695240