16

 C   -0.1346152871    1.6367688582   -0.3288519242
 C    0.0522114279    0.2118971170    0.1864134934
 N   -1.2365882997   -0.4864931580    0.1658038495
 C   -1.5495104198   -1.3239419268   -0.9613997615
 C   -1.3216637022   -1.9363002376    0.3978009654
 C   -0.1229597890   -2.7936945871    0.5830913406
 O   -0.1176202887   -3.7853369520    1.2711899584
 H    0.8105279806    2.1863875557   -0.2858915021
 H   -0.4779782087    1.6343724883   -1.3684056652
 H   -0.8777216490    2.1678110274    0.2718882815
 H    0.8248949392   -0.2940124344   -0.4131954402
 H    0.4041366697    0.2279019624    1.2239503221
 H   -2.5635308729   -1.2779023824   -1.3492185035
 H   -0.7755606364   -1.4892326777   -1.7126266372
 H   -2.1772152363   -2.2522229352    0.9892337138
 H    0.7871805623   -2.4740918779    0.0300608591