15

 C    0.0580960970    1.4872573557   -0.1245502421
 C    0.0015589799    0.0020463006    0.0090048564
 O    0.6052114964   -0.8434644412   -1.0348297777
 C    0.0441256243   -1.8030021811   -0.0853628170
 C    0.5594800936   -0.9576829701    1.1047580623
 O   -0.3445977632   -1.0327715260    2.2044144923
 C   -1.5835583113   -1.0335779249    1.5890329872
 O   -2.6175071448   -1.0812863332    2.1796733636
 C   -1.2505825873   -0.9543563982    0.1162734114
 H    1.0976784553    1.8178010089   -0.2075306439
 H   -0.4848752552    1.8163446333   -1.0150359447
 H   -0.3906805315    1.9606538575    0.7539871709
 H    0.1392853849   -2.8658926099   -0.3011307708
 H    1.6000731616   -0.9516529053    1.4165916750
 H   -2.0505542897   -0.9377032861   -0.6174515529