18

 C    0.0546538718    1.5654618921    0.1319624256
 C   -0.0995797192    0.0464010009   -0.0556468790
 C    0.6551255095   -0.4874159203   -1.2405586274
 C    0.1055346989   -0.8999074781   -2.4494968513
 N    1.1072539500   -1.2918858073   -3.2764265385
 C    2.3169094949   -1.1495239607   -2.6381337366
 C    3.5434147480   -1.5095665324   -3.3095749635
 O    3.5890294629   -1.9454991759   -4.4467935228
 C    2.0550896976   -0.6485251724   -1.3683348359
 H    1.1053764790    1.8398796602    0.2689849522
 H   -0.3164934168    2.1071173509   -0.7436872959
 H   -0.5019907265    1.9107469057    1.0090405890
 H    0.2381375682   -0.4629327845    0.8553615403
 H   -1.1622735479   -0.1992108221   -0.1643855942
 H   -0.9275034536   -0.9389292499   -2.7606078639
 H    1.0338636136   -1.6493738585   -4.2152864898
 H    4.4634449494   -1.3591197260   -2.7070128210
 H    2.8016411601   -0.4300075219   -0.6182284771