15

 N   -0.0349655238    0.9746959605    0.0426130267
 H   -0.0268751820   -0.0475878567    0.0224298008
 H    0.9317145573    1.3082846086    0.0284434199
 H   -0.5126697001    1.3131235142   -0.7959718975
 C   -0.7366785721    1.4924545392    1.2750503457
 C   -2.0903235541    1.6854917189    1.1472440715
 C   -2.7990486545    2.1516032279    2.3180541745
 O   -3.9999171664    2.3779233537    2.3891446630
 N   -1.9674998681    2.3405785130    3.4364828597
 C   -0.5824527332    2.1448266839    3.5829350808
 O   -0.0317824385    2.3656529840    4.6536134986
 C    0.0628192663    1.6787613032    2.3759904750
 H    1.1285296813    1.4940378745    2.3943840163
 H   -2.6491812270    1.5055802802    0.2386694971
 H   -2.4409461650    2.6689927548    4.2679420680