20

 C    0.1238658856    1.4631462423    0.0420683558
 C   -0.0768751482   -0.0417625157   -0.0405066904
 C   -1.5593492777   -0.4322844003   -0.0783414535
 O    0.6244552043   -0.4727939833   -1.1785962275
 C    0.7840663677   -1.8814777250   -1.2795081846
 C    1.5498351626   -2.3903321537   -0.0602347585
 C    0.9386716158   -1.8722825386    1.2173722398
 N    0.9278014870   -2.5585535919    2.2809972892
 O    0.4943975637   -0.5801590257    1.1821658436
 H    1.1926766717    1.6852871036    0.0550826285
 H   -0.3289435312    1.9472722289   -0.8263621799
 H   -0.3350779092    1.8546368609    0.9522218669
 H   -2.0199178026   -0.0571703308   -0.9960429546
 H   -1.6955935093   -1.5154717646   -0.0336845436
 H   -2.0756403389    0.0007626102    0.7814474513
 H   -0.1867183355   -2.3867034742   -1.3752585532
 H    1.3415684130   -2.0557936790   -2.2026029716
 H    1.5898152473   -3.4798704926   -0.0186180667
 H    2.5778007367   -2.0118509854   -0.1137952376
 H    0.5038398870   -2.0164608750    3.0375872068