20

 C   -0.2350239201    1.6513508304    0.0387723025
 C    0.0290728450    0.1431437755    0.0074246400
 C   -1.2912014320   -0.6390762974   -0.0129739876
 O   -2.0527500113   -0.2823043924    1.1323133911
 C    0.9008834185   -0.3093150118   -1.2019718664
 C    2.0032340591   -1.1903562363   -0.5677223350
 O    1.5529768395   -1.5029813032    0.7425057810
 C    0.8822994107   -0.3413060146    1.2027768839
 H    0.7054051427    2.2119053458    0.0620489295
 H   -0.7930300400    1.9699200650   -0.8486971474
 H   -0.8244637295    1.9259140543    0.9172603162
 H   -1.8392306214   -0.4037786752   -0.9401263965
 H   -1.0633403858   -1.7155922310   -0.0180969595
 H   -2.8311630642   -0.8450003195    1.1660202308
 H    0.3048428886   -0.8722982267   -1.9273673159
 H    1.3270122174    0.5473920401   -1.7304498310
 H    2.1799117445   -2.1304065659   -1.0968923513
 H    2.9566982603   -0.6396924043   -0.5213804867
 H    1.6071214283    0.4366389816    1.4975090747
 H    0.2800221697   -0.6102056444    2.0725500576