15

 N    0.1984905705    1.4165742100    0.0345731416
 C    0.0325680354    0.0097521284   -0.0208907066
 C   -1.0850672112   -0.7672519834   -0.0343028094
 O   -0.7486906948   -2.0828247626   -0.0253327885
 C    0.6130518492   -2.1642501964   -0.0168268555
 C    1.1400892418   -0.9084064598   -0.0005497993
 N    2.4661950211   -0.4801137261    0.0541765539
 C    3.5536322174   -1.3019322766    0.0503874045
 O    3.5070586791   -2.5090067909   -0.0533562076
 H    0.3992885049    1.8079791939   -0.8814910742
 H   -0.6328742348    1.8776269464    0.3853381012
 H   -2.1388874152   -0.5427626376   -0.0369086892
 H    1.0499791279   -3.1444580925   -0.0170083527
 H    2.5958495244    0.5089354800    0.2151725549
 H    4.4973282744   -0.7323910828    0.1477714568