25

 C    0.0608197261    1.5040130376   -0.1724938046
 C    0.0138632053   -0.0140742760    0.0616972922
 C    0.7897804442   -0.3993043678    1.3305220625
 C   -1.4294005808   -0.5560190354    0.0452005414
 C   -2.2983511855   -0.0327825129    1.1951674890
 C   -2.1784264731   -0.4326141597   -1.3239840119
 C   -2.6402347548   -1.9068694686   -1.1888795306
 C   -1.5843040477   -2.1141654354   -0.0690956601
 O   -0.3836886796   -2.7116600983   -0.5295955885
 H    1.0956564591    1.8395729435   -0.2980487550
 H   -0.4926725589    1.7941813442   -1.0718223724
 H   -0.3602164161    2.0601444948    0.6723576623
 H    0.5222335107   -0.4948542607   -0.7812342393
 H    0.3784002202    0.0833781038    2.2239272570
 H    0.7787815663   -1.4815456583    1.4836355444
 H    1.8357869300   -0.0848614976    1.2467456201
 H   -2.3881756167    1.0574431111    1.1647548518
 H   -3.3128469174   -0.4420361856    1.1383868925
 H   -1.8889002053   -0.3131195672    2.1708147159
 H   -2.9608581313    0.3280988252   -1.3882212365
 H   -1.4867162975   -0.2922241108   -2.1587499110
 H   -3.6676573392   -2.0078469280   -0.8291841805
 H   -2.5149230615   -2.5464375106   -2.0668015939
 H   -1.9374049526   -2.6147500225    0.8439507651
 H   -0.5849237140   -3.6180104449   -0.7830069098