20

 C   -0.4273150984    1.3808893283    0.3029072780
 C    0.0406415530   -0.0689809721    0.1399337271
 C    1.0264253568   -0.5284579018    1.2056178511
 C    2.3428072286    0.2219461829    1.2392835849
 O    0.3799604048   -0.4734242577    2.5570648671
 C    0.3346465612   -1.8366178236    2.6379267850
 N   -0.2456198668   -2.6162895260    3.4337404867
 C    1.1277795337   -2.0812065293    1.3748042104
 O    0.5317562750   -2.8998842837    0.4052506919
 H    0.3884016702    2.0963726515    0.1617429014
 H   -1.2005245903    1.6160307092   -0.4340460837
 H   -0.8492621056    1.5405022461    1.2993932849
 H   -0.8198534836   -0.7442042366    0.1589285011
 H    0.5130740700   -0.2141807702   -0.8390101306
 H    2.1872270363    1.2852864289    1.4382469964
 H    2.9949044100   -0.1765646956    2.0216821219
 H    2.8561512042    0.1229296661    0.2772039214
 H   -0.7707443731   -2.1096692791    4.1484838624
 H    2.1603660842   -2.3997851615    1.5690626877
 H   -0.1103014502   -3.4565856560    0.8612657747