16

 O    0.3033304676    1.0823771877   -0.6277960487
 C    0.0525878721   -0.1456332200    0.0213174258
 C    0.4103552026   -0.1338446857    1.5326978043
 N   -0.6035085673   -0.9962236856    2.1198370138
 C   -1.7295856983   -1.1618387713    1.3564426690
 O   -2.7543612898   -1.7166565044    1.6787994216
 C   -1.4252269025   -0.4910772070    0.0290973381
 C   -2.4660748801    0.2624410951   -0.6836854948
 O   -2.0281211002   -1.0175584493   -1.1408918696
 H    1.2126879351    1.0860985481   -0.9399453921
 H    0.5830900781   -0.9692790040   -0.4757423403
 H    1.4190540581   -0.5105365968    1.7295582022
 H    0.3472835668    0.8995006440    1.8986841294
 H   -0.6138333725   -1.2486538852    3.0959741600
 H   -3.4700355838    0.2828282645   -0.2645817373
 H   -2.1621747859    1.1083893197   -1.2945509313