17

 C   -0.0352878729    1.4945093891    0.0767190007
 C    1.5037771675    1.3954242805   -0.0270086205
 C    1.8742023536    0.6062984052    1.2329670201
 C    0.6551483338   -0.3920400001    1.2335241950
 C    1.6725878937   -1.4819015909    0.8909560510
 C    2.1839610324   -0.9683687496   -0.4011402380
 C    1.2248319158    0.1099474036   -0.8619453373
 N   -0.0559934646   -0.0175606675   -0.0212348265
 N    2.8300376026   -0.5241733973    0.8729333101
 H   -0.4847879576    1.9073397247    0.9848860257
 H   -0.5088599778    1.9345405119   -0.8038295586
 H    2.1557214477    2.2052053680   -0.3555648873
 H    2.1683070448    1.1449530863    2.1309376158
 H    0.0017636638   -0.4878963236    2.0977163302
 H    1.7505901188   -2.4966865812    1.2619419178
 H    2.7964598305   -1.5579758771   -1.0708888018
 H    1.0232106777    0.2105140682   -1.9264960864