23

 C   -0.2830520898    1.5318236642    0.0989092121
 C   -0.0662054426    0.0290884992    0.0261058769
 C    1.1326446284   -0.4509835843   -0.8213827636
 O    1.6908971330   -1.1992194392    0.2743451573
 C    0.6689236716   -0.7235998113    1.1998712018
 C    1.2907794768    0.0550046478    2.3424032618
 C   -0.2449327309   -1.8781962172    1.6217069852
 C   -1.0893244405   -2.1737863448    0.3705765357
 C   -1.3565736170   -0.7765929123   -0.2209377689
 H    0.6481225562    2.0707879399    0.3001299489
 H   -0.6832161333    1.9104119467   -0.8491828854
 H   -1.0010167917    1.7942112522    0.8838915096
 H    0.8946628424   -1.0917113194   -1.6808910177
 H    1.8087558478    0.3480301032   -1.1560282130
 H    1.9422808561    0.8507625520    1.9709531344
 H    0.5219030907    0.5032493248    2.9805144186
 H    1.8992804814   -0.6123835477    2.9620545430
 H    0.3377566004   -2.7362753063    1.9698956747
 H   -0.8869481221   -1.5502819981    2.4494473253
 H   -0.5057944636   -2.7794895076   -0.3304860457
 H   -2.0082365222   -2.7236207039    0.5907036266
 H   -2.1861453443   -0.2984728147    0.3158188915
 H   -1.6336392966   -0.8027205432   -1.2804318193