19

 C    0.0713212898    1.4785237741   -0.0174836327
 C    0.0159925330    0.0263051845    0.0755823757
 C   -0.0180145759   -1.1746864741    0.1565620342
 C   -0.0921226428   -2.6284976488    0.2391093508
 C   -1.4420582037   -3.1810392414   -0.2506034544
 N   -1.4470450312   -4.6359247273   -0.1704538504
 C   -1.9220753569   -5.2116064149    1.0850217966
 C   -2.7569897432   -5.2747863660   -0.1458989608
 H    0.8826833889    1.8060540964   -0.6771487548
 H   -0.8632427956    1.8884427969   -0.4166806662
 H    0.2388842819    1.9361427041    0.9639927803
 H    0.7064459114   -3.0893977380   -0.3546131158
 H    0.0708733337   -2.9550517530    1.2746359611
 H   -2.2592961630   -2.7235718127    0.3348610220
 H   -1.5937615245   -2.8943842984   -1.2968006547
 H   -1.3881799082   -6.0891080052    1.4379518944
 H   -2.2471472121   -4.5284959715    1.8689640571
 H   -3.6375453276   -4.6347763513   -0.1803555781
 H   -2.8436485440   -6.1989332733   -0.7101980443