12

 O    0.0139288332    1.3261120900    0.0078406204
 C   -0.0093651102   -0.0148432465    0.0009193143
 C   -1.2013543021   -0.6853271357    0.0038942732
 C   -1.2160977062   -2.1205568386   -0.0036397222
 O   -2.1648536707   -2.8798891185   -0.0022677587
 N    0.1106764069   -2.6601321337   -0.0135978422
 C    1.2252079682   -1.9080769379   -0.0157289372
 N    1.2260359482   -0.6097326567   -0.0089500993
 H    0.9462718687    1.5834819244    0.0041007587
 H   -2.1440368606   -0.1567504592    0.0118549548
 H    0.1645394166   -3.6698040908   -0.0191456984
 H    2.1726717879   -2.4409305970   -0.0236533173