19

 C    0.0217097145    1.5150895461    0.0421156807
 C    0.1937420167    0.0077902013    0.1078981299
 O    0.5339711139   -0.4538555259   -1.1913065239
 C    0.6952950541   -1.8528552458   -1.2904946858
 C    0.7487972393   -2.1949059473   -2.7968415858
 C   -0.5073043147   -1.9191519658   -3.4802842044
 C   -1.5511462130   -1.7118422550   -4.0377880923
 C    1.9082936546   -2.3255842514   -0.6069228597
 C    2.9078482223   -2.7098021591   -0.0608227992
 H    0.9518449104    1.9936964499   -0.2767705686
 H   -0.7634827441    1.7812981758   -0.6708729795
 H   -0.2517787941    1.9081959482    1.0258609089
 H    0.9819564835   -0.2651245859    0.8249616963
 H   -0.7383388861   -0.4769919285    0.4420685727
 H   -0.1773694587   -2.3622627999   -0.8495051956
 H    1.5638290641   -1.6127219541   -3.2408143110
 H    1.0142033183   -3.2523396306   -2.9032736888
 H   -2.4684135574   -1.5202939866   -4.5368467035
 H    3.7870596463   -3.0501386553    0.4286520097