18

 C   -0.0185348786    1.4475654420   -0.2141454963
 C   -0.0096699716    0.0007531800   -0.0455582222
 C    0.0297945887   -1.1962348708    0.0880379714
 C    0.0038688926   -2.6481519225    0.2610823289
 C   -1.4014450129   -3.2083578881    0.0633141234
 O   -2.3501695019   -2.6636828977    0.9358125466
 C   -1.8597127958   -3.6111511637   -1.3154917693
 C   -1.5930077735   -4.6572170739   -0.2441358991
 H    0.9422692854    1.8053811244   -0.6004016837
 H   -0.7951407264    1.7633585445   -0.9194742387
 H   -0.2044397036    1.9607270429    0.7357844074
 H    0.6950572674   -3.1278493790   -0.4421936927
 H    0.3479385147   -2.9058743414    1.2712780363
 H   -2.3375144692   -1.7077853410    0.7971220716
 H   -2.8960091087   -3.4105948191   -1.5617897852
 H   -1.1662377812   -3.5306315986   -2.1458951031
 H   -0.7168228121   -5.2892744731   -0.3422527464
 H   -2.4524496033   -5.1366095148    0.2098765510