19

 C   -0.2203952313    1.5204952536   -0.2879549865
 N   -0.3171391013    0.0986344852   -0.5607054748
 C    0.7715451723   -0.6307478111   -0.9168376357
 O    1.8872483168   -0.1545592116   -1.0804808580
 C    0.5294356234   -2.1201418735   -1.0919467301
 C   -0.8759708282   -2.6771677668   -1.0368044016
 O   -1.5415165867   -2.3892691135    0.1928996151
 C    1.5508742720   -2.8375932993   -1.9024372676
 N    1.5510365030   -2.9845115950   -0.4444419453
 H    0.6447953408    1.9120580119   -0.8232637689
 H   -1.1251260784    2.0300242314   -0.6310269500
 H   -0.0860128744    1.7269588526    0.7814524182
 H   -1.1109621800   -0.4171390543   -0.2025944726
 H   -1.4964839725   -2.2316784796   -1.8208685605
 H   -0.8313323184   -3.7598689802   -1.2090241469
 H   -0.9956564481   -2.7612769911    0.8961445615
 H    1.2548389820   -3.7237875739   -2.4570661541
 H    2.3232899851   -2.2225491889   -2.3509174560
 H    2.2762472139   -2.3706291960   -0.0742589263