17

 C   -0.3949501192    1.5812574596   -0.0048606942
 C   -0.0632849520    0.1174266268    0.0674797335
 C   -1.1776873035   -0.9486449212    0.2071300794
 N   -0.3116601088   -1.7323805164    1.1395170697
 C    0.6943379859   -0.6552867887    1.1832315379
 C    1.7812913421   -0.8871088415    0.1015613439
 O    0.9459311847   -0.2782501220   -0.9082883861
 C    3.0324084941   -0.1483269134    0.2951110538
 N    4.0093573594    0.4397709650    0.4843218486
 H    0.5095284687    2.1892210420    0.0830650638
 H   -0.8662056860    1.8104913706   -0.9672326243
 H   -1.0902860850    1.8638537064    0.7914493534
 H   -2.0899235980   -0.5502515246    0.6678753877
 H   -1.4375152149   -1.4805797909   -0.7127572048
 H   -0.7382195230   -1.9300001565    2.0355817649
 H    0.9971213555   -0.2637919342    2.1542403910
 H    1.9908204299   -1.9406375210   -0.1073217281