21

 C    0.0123594016    1.5017374894    0.0627075445
 C    0.0026441234    0.0037825009   -0.0233588144
 C   -0.0235087909   -0.6918495583   -1.1638965754
 C   -0.0322886538   -2.2028129289   -1.0951922254
 C   -1.0835939533   -2.6461871988   -0.0285354709
 C    0.0026630125   -2.3002529637    1.0140286969
 O   -0.0600094988   -3.0536825913    2.1988501833
 C    1.0581627192   -2.6592572675   -0.0756828642
 C    0.0172743676   -0.7837523120    1.2748933308
 H    0.9024496855    1.8661861257    0.5926251897
 H   -0.0024779854    1.9609326030   -0.9295526452
 H   -0.8547844922    1.8750408328    0.6233865763
 H   -0.0392636422   -0.1964054629   -2.1305991172
 H   -0.0577112765   -2.6800970300   -2.0743636958
 H   -2.0336923720   -2.1081232697    0.0109234795
 H   -1.2563758638   -3.7253274792   -0.0460680683
 H    0.6049466420   -2.7160341660    2.8092286957
 H    1.2185674137   -3.7403013868   -0.1004192891
 H    2.0141267488   -2.1286685988   -0.0814711099
 H    0.9104259029   -0.5188315266    1.8647320690
 H   -0.8477068083   -0.5173773011    1.8991861502