20

 C   -0.0583810545    1.4795307301   -0.1330494102
 C    1.4923194441    1.4881662981   -0.0582643556
 C    1.4264962263    0.0735325300    0.5839639811
 C   -0.0255722981   -0.0634911210    0.0398285165
 C    2.4716040639   -0.9614147415    0.2132034085
 C    2.1805234720   -2.4082380910    0.7038314439
 N    2.1564002459   -3.2383218656   -0.5139014008
 C    2.3531609038   -2.4370980900   -1.4741800488
 O    2.5398378039   -1.1174301447   -1.2367853381
 H   -0.5090551891    1.9746191890    0.7319345925
 H   -0.5222463190    1.8746434748   -1.0393660552
 H    1.9436256842    1.4416213182   -1.0527071468
 H    1.9754714879    2.2838367466    0.5140366825
 H    1.4165118187    0.1528476018    1.6778410643
 H   -0.7740786394   -0.5225679434    0.6895645821
 H   -0.0360003046   -0.5733221422   -0.9270132063
 H    3.4622958243   -0.6158714566    0.5309976855
 H    2.9456023475   -2.7787026193    1.3927752058
 H    1.2147729468   -2.4813756228    1.2176150701
 H    2.3881255654   -2.7108918004   -2.5232655508