16

 N   -0.0963135175    1.3095521701    0.0366255975
 C   -0.0536632353   -0.0660546276    0.0128890144
 O    0.8430500205   -0.7180560755    0.5054725098
 N   -1.1542401389   -0.6192473688   -0.6820309060
 C   -2.4588061613   -0.6905976256    0.0125351774
 C   -3.4882536661   -1.1356460849   -1.0324392142
 C   -2.6226486990   -2.4266054322   -1.2732904862
 C   -1.6336327796   -1.9192879073   -0.2157398125
 H    0.7708118797    1.7583256493    0.2854972764
 H   -0.6590119101    1.7741800607   -0.6576305662
 H   -2.6112854795   -0.1153772646    0.9176317260
 H   -4.4623279227   -1.3647860098   -0.5948288228
 H   -3.6197763349   -0.4611408136   -1.8818043953
 H   -3.1432796130   -3.3356956941   -0.9660236950
 H   -2.2068786470   -2.5629370680   -2.2739277655
 H   -1.0154731454   -2.4787164280    0.4733078623