16

 N    0.0343866316   -1.1493295556   -0.0433943143
 C   -0.0230074557    0.0085979922   -0.0182842445
 C   -0.0501693787    1.4189795350    0.0124309833
 C   -1.0971625099    2.2616594236    0.0170187234
 C   -0.4615156707    3.6316530066    0.0557084907
 C    0.8149500881    3.5745996698   -0.8715203302
 C    1.5622764604    4.5148901469    0.1022334829
 C    0.7897499121    3.5330547866    1.0132994376
 C    1.1616452244    2.3495079127    0.0491476556
 H   -2.1518003316    2.0278494272   -0.0022315580
 H   -1.0858411470    4.5244065210    0.0670396408
 H    0.8171704633    3.5855084093   -1.9639288696
 H    2.6526712453    4.4425787460    0.1152190233
 H    1.2379269772    5.5585077004    0.1208997721
 H    0.7627729918    3.4958262512    2.1047968431
 H    2.1651780293    1.9265228870    0.0532402339