19

 O    0.1113727302    1.2836685481    0.2503368562
 C   -0.0847880715   -0.1283002811    0.1355564498
 C    0.5077697714   -0.7110981640   -1.1860624131
 C    1.8190758936   -1.4400838756   -0.7980724695
 C    1.7325230871   -1.5375220357    0.7054607491
 C    0.6967689905   -0.8657145087    1.2059205654
 C   -1.5789890577   -0.3761977151    0.2423403177
 C   -2.5142409042    0.5882887326    0.8299058634
 O   -2.4355694310    0.4024562197   -0.5879640969
 H    1.0527459654    1.4291506535    0.3881317515
 H   -0.1972802355   -1.4211701029   -1.6274174827
 H    0.6493999184    0.0938908982   -1.9094284922
 H    1.8977366313   -2.4262817327   -1.2696538749
 H    2.7197902120   -0.8908753261   -1.1036176134
 H    2.4601121059   -2.0865722775    1.2945903762
 H    0.4439327318   -0.7713974739    2.2563143819
 H   -1.8346723029   -1.4369065900    0.2786198934
 H   -3.4316279804    0.2304933827    1.2960674440
 H   -2.1312742042    1.5390758883    1.1887253641