23

 C   -0.0911905031    1.6405834176   -0.2695651237
 C   -0.0170193036    0.1498738224    0.0722592162
 C   -1.3742923195   -0.5539340073   -0.0208583690
 C   -1.3031397337   -2.0441969736    0.3169907915
 N   -2.6328313961   -2.6408751101    0.2527914084
 C   -3.0480532609   -3.2473670865   -1.0086727890
 C   -2.7887490926   -4.0953028098    0.1905066559
 C   -1.6262256060   -5.0638791954    0.2372550763
 H    0.8905779780    2.1184814612   -0.1931251593
 H   -0.4581464824    1.7943337489   -1.2905299109
 H   -0.7724279766    2.1677522210    0.4074822116
 H    0.6980741643   -0.3437610728   -0.5995254048
 H    0.3875282681    0.0273589240    1.0859788726
 H   -2.0948208258   -0.0763772310    0.6539969170
 H   -1.7806702154   -0.4379625203   -1.0347503804
 H   -0.5759065062   -2.5318477182   -0.3549971112
 H   -0.9259446195   -2.1720497096    1.3399242926
 H   -4.0603072864   -3.0299761026   -1.3407258360
 H   -2.3114986692   -3.2999683948   -1.8115968511
 H   -3.6565236446   -4.4373340646    0.7544479389
 H   -0.7987294388   -4.7588902408   -0.4074703073
 H   -1.2406356987   -5.1714847878    1.2574325680
 H   -1.9561062512   -6.0539979900   -0.0951077762