14

 N   -0.2564788597    1.2529883369    0.1430308663
 C   -0.1338099314    0.0380413312   -0.1506912315
 O   -1.0905387260   -0.8310511764    0.3180547823
 C   -0.9414714360   -2.1582287122    0.0039716298
 O   -0.0392162177   -2.6294749548   -0.6433972863
 N   -1.9709394415   -2.8503577625    0.5631719649
 C   -2.1270820923   -4.2682344181    0.3275164660
 C   -3.3005072687   -4.5835312421   -0.5011138242
 N   -4.2367253369   -4.8275038339   -1.1316198111
 H    0.5094651967    1.7871871029   -0.2640271518
 H    0.6347793886   -0.4628256743   -0.7392858439
 H   -2.6995116626   -2.3285906145    1.0238547592
 H   -1.2202161004   -4.6099752154   -0.1794800723
 H   -2.2102471320   -4.8155954268    1.2733203127