11

 C   -0.1042662257    1.4242144273   -0.0168865049
 N    0.0290791830   -0.0275276815    0.0101789322
 N    0.6690202587   -0.6165802857   -1.0259802167
 N    0.7212945050   -1.8808082835   -1.0392149594
 C   -0.0251987108   -2.5646819060   -0.0440619727
 O   -0.5314857731   -3.6336614399   -0.2376236637
 N   -0.0749395866   -1.9119880870    1.2156061198
 N   -0.1183303739   -0.6474120911    1.2035502695
 H    0.6479146350    1.8238868529   -0.6967353048
 H   -1.1019282506    1.7012317021   -0.3668143182
 H    0.0481219389    1.8001527022    0.9946178989