20

 C   -1.5215318798   -1.3623586887    2.8485075246
 C   -0.7770295920   -1.2688543166    1.5385506444
 N   -0.8341721461   -0.0042616226    0.7810556128
 C    0.4650572475   -0.4944825652    1.2581576945
 C    1.2962165598    0.4100094670    2.1708480885
 C    2.3932662398   -0.4095257412    2.8634987142
 O    1.9867242097    1.3420719433    1.3242457330
 C    0.5203564557    1.1653629710    3.1664889460
 C   -0.0336149467    1.8486701497    3.9858882508
 H   -1.4604293111   -0.4336230542    3.4132820803
 H   -2.5776038936   -1.5839112655    2.6594337470
 H   -1.1159665145   -2.1748665664    3.4617230646
 H   -0.8509262671   -2.1790210496    0.9413890524
 H   -0.9442997683   -0.1778486460   -0.2138304103
 H    1.1275429328   -0.9376567995    0.5144918949
 H    2.9932044240   -0.9276203945    2.1099814787
 H    3.0456762145    0.2541971462    3.4342398808
 H    1.9524923165   -1.1460674560    3.5391488651
 H    1.3100070937    1.9005512420    0.9229824781
 H   -0.5442558947    2.4451348667    4.7012135198