19

 C    0.0276384102    1.5962368792   -0.0865780171
 C    1.5558580683    1.5351259333   -0.1099451210
 C    2.0946373222    0.9177365702    1.1575900078
 C    1.4695170087    1.0529068702    2.5447833378
 O    0.6682233121   -0.0571167745    2.9311148382
 C   -0.6211497292   -0.0782363423    2.3896686599
 O   -0.7140542437   -0.6158439181    1.0954840507
 C    0.0100197454    0.0294928487    0.0707566456
 C    1.5412808519    0.0122089762    0.0945531214
 H   -0.4221689853    2.1964237135    0.7086094966
 H   -0.4161931418    1.9057834294   -1.0345042550
 H    2.1892017517    2.1168165920   -0.7682275515
 H    3.1817064989    0.8995069452    1.1722258119
 H    2.2637954013    1.1119754565    3.2943188335
 H    0.8802295709    1.9790365833    2.6256287652
 H   -1.2162246230   -0.7464861886    3.0168747180
 H   -1.0525255452    0.9373646050    2.4183769808
 H   -0.3582900632   -0.4266782336   -0.8508557107
 H    2.1517657400   -0.7527933956   -0.3702148419