23

 C   -0.2308588243    1.4809265121   -0.0292381251
 C    0.0295045158   -0.0070043356    0.0819896419
 C    1.4194779976   -0.5756935292   -0.0624213109
 C    0.7125675281   -0.6517383907    1.2696074960
 C    1.2086166988    0.1383473490    2.4498507296
 O    2.2509386772   -0.6010601555    3.0740549837
 C    2.7591741107    0.0212713940    4.2093995141
 C    2.0590587848   -0.1661093259    5.5332293091
 C    3.3705750112   -0.8701033256    5.2393717083
 H    0.6034182452    2.0754442467    0.3536611232
 H   -0.3775331766    1.7662347107   -1.0769241939
 H   -1.1309127934    1.7755436519    0.5223727801
 H   -0.7635251788   -0.6126355591   -0.3500762755
 H    1.5644610927   -1.4879648999   -0.6303257567
 H    2.2397990667    0.1314298862   -0.1435667024
 H    0.3349707509   -1.6307342337    1.5523343842
 H    1.5866199518    1.1241975562    2.1374441300
 H    0.3961216155    0.3174242679    3.1721589061
 H    3.2286200824    0.9885673060    4.0201017766
 H    2.0505803091    0.6531665491    6.2438544533
 H    1.1639135877   -0.7780713767    5.5308395103
 H    3.3242291881   -1.9344570509    5.0397233521
 H    4.2704270389   -0.5387197871    5.7450112859