19

 C   -0.0995564785    1.5270463428   -0.0980285049
 C   -0.0032796834    0.0167761659   -0.0318726662
 C   -1.2382464331   -0.7176366519   -0.5166393857
 C    1.3330161200   -0.6266329321   -0.2597475432
 C    0.7407855275   -0.6221865808    1.1501427671
 C    1.3320611100    0.1634532277    2.1833735708
 C    1.8253612961    0.8178156171    3.0774770049
 C    2.3848414106    1.5567871272    4.0717251610
 C    2.8815457146    2.2133556536    4.9563234908
 H    0.7987867742    2.0077726450    0.2962366316
 H   -0.2364873848    1.8548337736   -1.1347539802
 H   -0.9539410168    1.8910352837    0.4834943711
 H   -1.4410492716   -0.4796406400   -1.5673821553
 H   -1.1203471677   -1.8028517657   -0.4381696128
 H   -2.1212508522   -0.4312993031    0.0656067527
 H    1.3766715558   -1.5840115170   -0.7681256089
 H    2.1902473379    0.0155369340   -0.4276527289
 H    0.3338270363   -1.5721540326    1.4873390418
 H    3.3197265448    2.7899604027    5.7322449844