11

 O   -0.1714893300    1.2538424443    0.0118245356
 C    0.0433540760   -0.0550541940    0.0026825425
 N    1.1786085742   -0.6838497052   -0.0069859844
 C    0.7981998107   -2.0167594635   -0.0133816800
 C   -0.5590117762   -2.1195443484   -0.0067952758
 O   -1.0554340638   -0.8119261533    0.0036320731
 C   -1.4661555040   -3.1848698786   -0.0086163168
 C   -2.2360636356   -4.1117066004   -0.0103249950
 H    0.6958407721    1.6799190563    0.0102324231
 H    1.5205366380   -2.8168069016   -0.0220941449
 H   -2.9144157015   -4.9285275057   -0.0118487275