13

 N    0.0021572566    1.2872848848    0.2819008037
 C   -0.0783016258    0.0847548876   -0.0789902537
 O   -1.0717486100   -0.6968640298    0.4244605528
 C   -0.9844647114   -2.0448259835    0.2251026331
 C    0.1136676939   -2.8522421210    0.2592797497
 O   -0.2690009101   -4.1395327093    0.0310342720
 C   -1.6155771635   -4.1383363526   -0.1339897322
 C   -2.1169525379   -2.8813361442   -0.0281579656
 H    0.7651332663    1.7482848520   -0.2096658951
 H    0.5582319119   -0.4506966118   -0.7937573166
 H    1.1603125476   -2.6853280642    0.4443820607
 H   -2.0649335613   -5.0995507862   -0.3201174863
 H   -3.1444737763   -2.5684950618   -0.1154162524