16

 O   -0.1048576275    1.4253858067    0.1028037283
 C   -0.0402703791    0.0340270056    0.0585239037
 C   -0.3127134742   -0.7380319749   -1.2063084525
 C   -1.2983899518   -0.7919221634   -0.0520264583
 C   -1.2359014673   -1.9390822150    0.9620444293
 C    0.1319591267   -1.8285735306    1.6270357263
 O    1.2483095603   -1.9816698757    0.7354694788
 C    0.8384117890   -0.6548552464    1.0916101865
 H    0.6276302185    1.7752089876   -0.4163577242
 H   -0.6295681580   -0.1516864132   -2.0626699731
 H    0.3025619509   -1.6022526949   -1.4244678533
 H   -2.2478405014   -0.2916495714   -0.2040641702
 H   -2.0128450327   -1.8074759679    1.7237731894
 H   -1.3857781829   -2.9252980301    0.5093576855
 H    0.2895640042   -2.2243849037    2.6279351512
 H    1.5562078954   -0.0610499127    1.6515432726