17

 O    0.1263115019    1.5525522085   -0.2578690712
 C   -0.0417337924    0.1851163417   -0.0047925500
 C    0.4122459406   -0.1653760209    1.4539870911
 O   -0.4392176726   -1.1825905920    1.9471953589
 C   -1.6521476362   -1.1208366585    1.2362992004
 C   -2.3623705021    0.1985270796    1.1163942095
 C   -1.4881397435   -0.3124701585   -0.0164837182
 C    0.7661154936   -0.6203537016   -1.0055717845
 O    1.4108427506   -0.0950655520   -1.8809784613
 H    0.6783666462    1.6074001695   -1.0543158367
 H    1.4445181055   -0.5234663106    1.5205125199
 H    0.3342019257    0.7628614965    2.0337974789
 H   -2.2012500300   -2.0526089205    1.2938389132
 H   -3.4339337447    0.1704167364    0.9521131274
 H   -2.0201247417    1.0483413146    1.6957260444
 H   -1.9388744674   -0.5940225587   -0.9611164841
 H    0.7329194763   -1.7212531638   -0.8803946376