18

 C   -0.0292184910    1.5155224867    0.1804101719
 C    0.0893099026   -0.0067429954    0.0717476174
 C    0.7060017159   -0.4912687190   -1.2672375922
 C    2.1731965110   -0.0481049544   -1.4507907687
 C    0.6041917852   -1.9445158967   -1.3599904909
 C    0.5419105857   -3.1512683181   -1.3990316714
 C    0.4340970997   -4.5832829992   -1.4860187611
 O    1.0440584928   -5.3644581942   -0.7911771454
 H    0.9478375810    2.0072561628    0.1759940620
 H   -0.6166841749    1.9286670448   -0.6472587006
 H   -0.5304958331    1.7924819399    1.1125238233
 H    0.6944176063   -0.4010272742    0.8964441245
 H   -0.9035744117   -0.4573283109    0.1748061158
 H    0.1123503608   -0.0566461486   -2.0842151909
 H    2.7946603654   -0.4306420115   -0.6357089970
 H    2.5783197543   -0.4263617629   -2.3926568774
 H    2.2459818460    1.0421445371   -1.4631542431
 H   -0.2739734560   -4.9374510863   -2.2635063061