17

 C   -0.0104588185    1.4752057190    0.0888186626
 C    0.1309594491   -0.0476360450    0.0144895594
 C    0.6922240287   -0.4995593634   -1.3237812679
 O    0.7885388112   -1.9362036900   -1.2998808049
 C    1.2727688814   -2.5124366170   -2.4196946021
 C    1.3231445235   -4.0143912990   -2.2673248400
 O    1.6126567654   -1.8938328439   -3.3965176882
 H    0.9567184629    1.9727425168   -0.0413264087
 H   -0.6839166094    1.8519792867   -0.6886187050
 H   -0.4150730979    1.7833293216    1.0568732021
 H    0.7884975994   -0.4066318878    0.8146040646
 H   -0.8423812110   -0.5266768144    0.1711594450
 H    0.0486474231   -0.1977001200   -2.1573745143
 H    1.6854758194   -0.0772216879   -1.5115810968
 H    0.3222409992   -4.4047792255   -2.0624514234
 H    1.7161855258   -4.4586508946   -3.1808753980
 H    1.9566410179   -4.2845591955   -1.4176966943