19

 C    0.0600712726    1.5283141430   -0.0909444950
 C    0.0055520217    0.0165041882    0.0590434896
 O    0.5953521766   -0.6022145668   -1.1045831433
 C    1.3323960032   -1.7083797582   -0.7714938623
 O    1.7055137212   -2.4961756379   -1.5913654116
 C    1.5571286035   -1.7097534558    0.7051234634
 C    2.2287724128   -0.4458107305    1.2226077261
 C    0.7363160919   -0.5721198281    1.2688590851
 C   -0.0060268415   -0.6452359569    2.5800897046
 H    1.0929838372    1.8844654715   -0.1263207876
 H   -0.4439813413    1.8375211584   -1.0101365048
 H   -0.4440253291    2.0074146652    0.7542713126
 H   -1.0442507122   -0.3070862813    0.0954095240
 H    1.7209290961   -2.6580277799    1.1989850832
 H    2.7629391143   -0.5455729650    2.1611674879
 H    2.7010320387    0.2165335655    0.5045417635
 H   -0.2280388467    0.3561063600    2.9662514217
 H   -0.9557928392   -1.1800775681    2.4694678061
 H    0.5862384801   -1.1653608430    3.3384627267