16

 C    0.1048694550    1.5478522907    0.1865483565
 C   -0.0398500726    0.0733858794    0.1048506020
 C   -1.0841252386   -0.7929683612    0.0099345267
 C   -2.5517347707   -0.5194605481   -0.0809309936
 C   -3.0754652892   -0.7245531999   -1.4976280203
 O   -3.7862584556    0.0550512176   -2.0751925138
 N   -0.5914313779   -2.0990988189   -0.0330373704
 C    0.6887849095   -1.9584783138    0.0427166301
 O    1.1105228471   -0.6781263621    0.1326146309
 H    0.6852366591    1.9399394775   -0.6558900744
 H   -0.8786275598    2.0219668333    0.1688457358
 H    0.6154105636    1.8491127479    1.1078875924
 H   -3.0845019708   -1.2287169256    0.5670715130
 H   -2.8060933581    0.4938955974    0.2376587055
 H   -2.7418050128   -1.6738337278   -1.9705260398
 H    1.4497740218   -2.7229972165    0.0468123794