17

 O   -0.0992125323    1.4235839337   -0.0076690194
 C   -0.0152313961    0.0377412075    0.0100840507
 C    0.3410071587   -0.7976175823    1.2933608667
 C   -0.3520697608   -1.9305082980    0.4402737774
 C   -1.3310743392   -0.7895422149   -0.0489886372
 C    0.6151529394   -1.9861866971   -0.7657266031
 C    0.8322989668   -0.7022792522   -1.0458719926
 C   -0.8248287373   -3.1564364963    1.0245718994
 C   -1.2222285014   -4.1802518876    1.5150395383
 H    0.7918209945    1.7863387788    0.0390608165
 H    1.3948035604   -0.9445763793    1.5388142731
 H   -0.2442589005   -0.5082354048    2.1702495002
 H   -2.0575972566   -0.4994056528    0.7144688809
 H   -1.8015677597   -0.9266567692   -1.0237402032
 H    0.9826885844   -2.8915999222   -1.2259310596
 H    1.4302766337   -0.2385846061   -1.8182161879
 H   -1.5734613741   -5.0831562570    1.9491993998