18

 C   -0.0861655586    1.5641235589   -0.1226903812
 C    0.0453341806    0.0651783197    0.0183220150
 O   -1.1150147105   -0.6292022572   -0.3812763114
 C    1.3015314349   -0.7333338361   -0.2333061568
 C    2.5553944745   -0.0241249804    0.2869251439
 C    1.9316276297   -0.0297128352    1.7339938118
 C    1.8336049699    1.2255953434    2.4706256580
 N    1.7670824612    2.2234733265    3.0514034094
 C    0.6582616393   -0.6796156690    1.1691123765
 H    0.7845497402    2.1114420599    0.2410248501
 H   -0.2289548130    1.8286310087   -1.1780579925
 H   -0.9589924713    1.9133931395    0.4362439442
 H   -1.2381523320   -0.4745135266   -1.3245145210
 H    1.2940902791   -1.5577181605   -0.9354475222
 H    3.4567966693   -0.6370163425    0.2435034135
 H    2.7787447869    0.9569304508   -0.1390205776
 H    2.4690454707   -0.7450458549    2.3616758678
 H    0.0787995990   -1.4323212951    1.6879691324