20

 C    0.1078593416    1.2196418098   -0.4878167529
 C    0.0609707814   -0.1717610756    0.1757524075
 C    0.6560251494   -0.1269416176    1.5894282371
 C   -1.3365381002   -0.7327975516    0.1594353919
 C   -2.1898774917   -0.9263601239    1.2026046226
 O   -3.3793910522   -1.4238079959    0.7882286562
 C   -3.2926166898   -1.5700431123   -0.5693233792
 C   -2.0706563739   -1.1613129561   -1.0100937266
 N   -1.5988543510   -1.0731927057   -2.3313286896
 H    1.1379977249    1.5876232770   -0.5456726901
 H   -0.3070881115    1.1883580913   -1.4986364347
 H   -0.4791465460    1.9381060287    0.0942191460
 H    0.6974614507   -0.8405918684   -0.4253469002
 H    0.0859841438    0.5533012503    2.2324196510
 H    0.6538162091   -1.1161027675    2.0572493131
 H    1.6880518702    0.2359919201    1.5614239559
 H   -2.0955505559   -0.7676764195    2.2639204617
 H   -4.1671937412   -1.9599793735   -1.0623102652
 H   -2.1525015126   -1.6192829672   -2.9793342987
 H   -0.6291074851   -1.3544585424   -2.4137514760