12

 N   -0.1337197708    1.3647046809   -0.0747175239
 C    0.1211720349    0.0137624546    0.1316758983
 O    1.1972834564   -0.4232412389    0.4496197047
 N   -1.0489402135   -0.7533646140    0.0087837518
 C   -1.0938179074   -2.1502510507   -0.1306540194
 N   -2.3737197471   -2.6422161148    0.0983313252
 O   -0.1660276261   -2.8347703798   -0.4780944925
 H    0.7140445014    1.9118881064   -0.1032930579
 H   -0.8047564175    1.6131491867   -0.7867169863
 H   -1.9282671418   -0.2612337717    0.0217311319
 H   -2.9202493093   -2.2092247063    0.8282504036
 H   -2.3962605493   -3.6512515025    0.1147632045