18

 C   -0.0784185108    1.5473333360   -0.0055484143
 C    0.0194962874    0.0161449354    0.0149727259
 C    0.7430234829   -0.5052153947   -1.2332488263
 O    0.9920864426   -1.8974030271   -1.1601040967
 C    1.9032576583   -2.2272961696   -0.1369386351
 C    1.6281445855   -1.5215304404    1.1565462829
 C    0.7495593714   -0.5128419829    1.2433623563
 C    0.4754621681    0.0937182962    2.5087090719
 N    0.2296189968    0.6010386495    3.5209882651
 H    0.9157915701    2.0067192431   -0.0077880602
 H   -0.6094702961    1.8820999816   -0.9021111831
 H   -0.6184597303    1.9215849911    0.8676533808
 H   -0.9981948159   -0.3969618434    0.0211351607
 H    0.1301367881   -0.3492000757   -2.1250234127
 H    1.6872285639    0.0491627198   -1.3680465994
 H    1.8310075020   -3.3119353497    0.0083325146
 H    2.9443396999   -2.0200663589   -0.4497159418
 H    2.1684628163   -1.8635510703    2.0340449514