18

 C   -0.0957052768    1.5647642460    0.0406312831
 C    0.0472885833    0.0628260984    0.0273426052
 O   -1.0706198851   -0.6175565707   -0.4886777182
 C    1.3689053246   -0.6637062854   -0.2404408839
 N    2.6047031379    0.0581099038   -0.0481863625
 C    2.6116892560    0.3938695005    1.1787504182
 O    1.5777010228    0.0151133185    1.9730977650
 C    0.6895248589   -0.7353360023    1.1332958602
 C    0.0571670168   -1.9029341385    1.8291443242
 H    0.8027461677    2.0678326152    0.3990896562
 H   -0.2935619824    1.9277210369   -0.9748388979
 H   -0.9372902885    1.8566110643    0.6759836449
 H   -1.0935210770   -0.4620513099   -1.4400926203
 H    1.3687050894   -1.4717206421   -0.9638495927
 H    3.3826929475    0.9668741872    1.6793660246
 H   -0.5264832466   -1.5682505747    2.6930874102
 H   -0.6144891355   -2.4180717842    1.1419323754
 H    0.8206994870   -2.6033168930    2.1809280484