21

 C   -0.3058460746    1.5351803789   -0.1564081631
 C    0.0496098590    0.0610871924   -0.0531798464
 O    1.1964410987   -0.2978109861    0.1029768380
 C   -1.1285906914   -0.8984454776   -0.1601608493
 C   -0.8303705021   -2.4028446381   -0.0626826724
 C    0.0892512544   -2.8915373531   -1.2047120625
 C   -0.2207799683   -2.7904780758    1.3036326042
 C   -2.1385333165   -3.1743532318   -0.1933788127
 O   -3.2317678640   -2.6938419421   -0.3481669044
 H    0.5979756950    2.1389183559   -0.0688337317
 H   -0.7986438325    1.7441417920   -1.1124546998
 H   -1.0144647618    1.8142442288    0.6313196402
 H   -1.8594893396   -0.6155099968    0.6087859924
 H   -1.6478174420   -0.6845158760   -1.1036531581
 H    1.0771190913   -2.4402859694   -1.1027474420
 H    0.2009861481   -3.9808552949   -1.1741436846
 H   -0.3187805799   -2.6231218888   -2.1851303885
 H   -0.8522270836   -2.4492199740    2.1310254376
 H   -0.1156582364   -3.8776483417    1.3875630764
 H    0.7666252058   -2.3390974115    1.4094437177
 H   -2.0033967195   -4.2804998202   -0.1318975812