21

 C   -0.0243190043    1.5623090548   -0.0309343866
 C    0.0080427344    0.0329277506    0.0180593646
 C    0.6584062099   -0.5322317601   -1.2679087721
 O    1.0009887634   -1.9146746797   -1.2116004049
 C    1.6296401577   -2.3132836004    0.0180228903
 C    0.6462671635   -2.0735878728    1.1744470588
 C    0.7520469473   -0.5348095603    1.2612813083
 C    2.2602409451   -0.3539791935    1.1048490237
 C    2.7662894978   -1.3703621847    0.4036242594
 H    0.9876093636    1.9813786407   -0.0570379434
 H   -0.5534976155    1.9201268895   -0.9210247211
 H   -0.5346330586    1.9730646189    0.8464732684
 H   -1.0251062955   -0.3337847881    0.0739344383
 H   -0.0268009407   -0.4342958850   -2.1157391237
 H    1.5523110114    0.0657744687   -1.4976149835
 H    1.9203807375   -3.3540853902   -0.1357087711
 H   -0.3577740481   -2.4391081928    0.9429332907
 H    1.0032764214   -2.5463041413    2.0941842552
 H    0.3463490371   -0.1045955535    2.1818216879
 H    2.8048799385    0.5140923409    1.4579175763
 H    3.7879198339   -1.4795577318    0.0610196745