21

 C    0.4369857671    0.9048542681   -0.3982926749
 O    0.3406288455   -0.4124681193    0.1036100198
 C    0.6689352241   -0.6074159813    1.5038321455
 C   -0.3686398340    0.0575033501    2.4062169372
 C    0.7547018577   -2.1390613866    1.6639754189
 C    2.2054205480   -2.4875754913    1.2661267409
 O    2.3531712656   -2.7741291128   -0.1213522051
 C    2.9463711696   -1.2167624428    1.6489434380
 C    2.1098360247   -0.1878240721    1.7743567427
 H    1.4554370811    1.3089459970   -0.3148221357
 H    0.1690697208    0.8545954361   -1.4567429990
 H   -0.2561944962    1.5966606316    0.0990390338
 H   -1.3725710881   -0.3029272877    2.1622347876
 H   -0.1602491562   -0.1752410341    3.4546678406
 H   -0.3610864579    1.1470801323    2.3049837099
 H    0.5790282431   -2.4062339839    2.7103844926
 H    0.0210431346   -2.6543625167    1.0406489632
 H    2.5805626698   -3.3746321548    1.7848874064
 H    1.9098131430   -2.0513167004   -0.5851274655
 H    4.0271930627   -1.1731963824    1.7252205862
 H    2.3904168851    0.8368819010    1.9928647068