19

 C   -0.1288011708    1.5108876707    0.0199194381
 C   -0.0106550390    0.0148036490   -0.0389885120
 C   -0.0070446337   -0.6969945778   -1.1662761103
 C    0.1210648198   -2.2004882665   -1.1537316105
 O    0.8617175017   -2.6865062744   -0.0410185178
 C    0.4657329761   -2.1618354017    1.1903629553
 C    1.3956823556   -1.1604892506    1.8414212126
 C    0.0602921645   -0.7244782106    1.2607229754
 O   -0.9719206998   -0.4382818208    2.1733456768
 H    0.7386871848    1.9584039814    0.5226246029
 H   -0.2043036763    1.9463824510   -0.9795985511
 H   -1.0175921749    1.8073644493    0.5895074448
 H   -0.0963452052   -0.2130689703   -2.1357795718
 H   -0.8790986501   -2.6670670807   -1.1870608226
 H    0.6642555392   -2.5472713843   -2.0386012936
 H   -0.0678587945   -2.8579005868    1.8343910806
 H    1.4817691227   -1.1823421837    2.9229940311
 H    2.2972104793   -0.9111387236    1.2935893635
 H   -0.7155656494    0.3439783003    2.6735341588