18

 O   -0.0155109987    1.5035536277    0.0055581142
 C    0.0675167675    0.0966028562   -0.0201614669
 C    0.5007683265   -0.5547092747    1.3255790603
 C   -0.7939462940   -1.3305269060    1.6448761083
 C   -0.5775329369   -2.7286120250    2.2898836521
 N   -0.3504554572   -3.2501603873    0.8505044413
 C   -1.2094330266   -2.0359553416    0.4286232077
 C   -1.3177680838   -0.5521757907   -0.0871209181
 O   -1.8133002235   -0.2508141249    1.3073825958
 H   -0.6695929543    1.7103420164    0.6868701771
 H    0.7125564209   -0.1618207680   -0.8635471961
 H    1.3899327017   -1.1860026646    1.2437637800
 H    0.6956943757    0.2069993207    2.0847102070
 H    0.2660218845   -2.8618398927    2.9728028835
 H   -1.4772275691   -3.1953023474    2.6936340697
 H    0.6308085796   -3.0999531420    0.6212250099
 H   -2.2373005607   -2.3934214381    0.5088404269
 H   -2.0198306815   -0.2344548481   -0.8583669525