20

 C    0.0060753111    1.4563149373   -0.4491004248
 C   -0.0099891672    0.1690918032    0.3839481845
 C   -1.3821875930   -0.4564177034    0.4451371043
 O   -1.8489517482   -1.1003342294   -0.7619405614
 C   -1.6044628358   -1.9024031572    0.3774035207
 C   -0.6740594619   -3.1194246184    0.3214591184
 N   -1.7642386658   -4.0151999176    0.8639893339
 C   -2.1123965022   -3.4633574662    2.1834187815
 C   -2.6622281837   -2.7911792621    0.9856202205
 H    1.0100433360    1.8887980599   -0.4871915126
 H   -0.3182446983    1.2525491064   -1.4737158771
 H   -0.6678191489    2.2097295973   -0.0269767548
 H    0.6940829495   -0.5575445701   -0.0364771399
 H    0.3221117760    0.3788763892    1.4092469421
 H   -2.1502725866    0.1491190356    0.9327294493
 H   -0.4333822933   -3.4002091468   -0.7059875008
 H    0.2379522659   -3.1112717384    0.9280157715
 H   -2.7777851313   -4.1062754247    2.7516851774
 H   -1.3422783629   -2.9701298922    2.7742485319
 H   -3.7104145596   -2.8077603423    0.7070211955