20

 C   -0.0728712729    1.5384284472    0.1358057611
 C    0.0265320966    0.0193668464    0.0188269302
 C   -1.3519222963   -0.6873153444   -0.0018142754
 C   -1.1028040784   -2.0636190817    0.6351098986
 C   -0.1082441847   -1.7509500119    1.7685412254
 C    0.8193367985   -0.6831461114    1.1794729497
 O    1.9526506387   -1.2971423026    0.5053788864
 C    1.7858775841   -1.0230544499   -0.8089298629
 N    0.7971812788   -0.3342059504   -1.1976154696
 H    0.9211546243    1.9960408509    0.1389326228
 H   -0.6287497551    1.9491176853   -0.7121215261
 H   -0.5891309529    1.8248156375    1.0586385321
 H   -2.0635045028   -0.1161247744    0.6069989823
 H   -1.7474418651   -0.7382269206   -1.0186950214
 H   -2.0178812000   -2.5428899201    0.9925947704
 H   -0.6435505153   -2.7398763227   -0.0942835693
 H   -0.6397012016   -1.3201823401    2.6259877072
 H    0.4519623202   -2.6176382047    2.1282079426
 H    1.2292814705   -0.0008062362    1.9279456755
 H    2.5564174432   -1.4364259360   -1.4515286200