18

 C   -0.1144068546    1.5774147298   -0.0014199275
 C    0.1298824705    0.0805405606   -0.0324548019
 O    1.3625279116   -0.2603589692   -0.7101914328
 C    1.8911929750   -0.9258029551    0.4517326901
 C    0.6109084460   -0.6413009055    1.2642030683
 C    0.7367407632    0.1614041812    2.5320261372
 C    1.8416492034   -0.0288281613    3.4808985242
 O    1.8024559251    1.1115124412    2.6205517668
 H    0.7004143462    2.1005511807    0.5042930949
 H   -0.1887493183    1.9553476765   -1.0259282142
 H   -1.0553085539    1.8070038065    0.5115378188
 H   -0.7186498909   -0.4275158957   -0.5117670250
 H    2.1079021693   -1.9834736711    0.2599500003
 H    2.7934466565   -0.4285684938    0.8260491665
 H    0.0218479521   -1.5370322592    1.4829374432
 H   -0.2079522675    0.5285883144    2.9378929783
 H    1.6902008456    0.1782523143    4.5390009853
 H    2.6241952407   -0.7532245245    3.2578873875