19

 C   -0.1488752085    1.5750634145   -0.0558426710
 C    0.0652394137    0.0657334618   -0.0161787730
 C    0.7532788954   -0.6316597946   -1.1946776550
 C    2.2748046523   -0.4913380603   -1.0565314549
 O    2.8108716562    0.5608790343   -0.2809516009
 C    2.3720321142    0.3356411972    1.0701832518
 C    1.1510441649   -0.5696522133    0.9315617398
 C    1.5601116907   -1.5098701171   -0.2483466352
 O    1.7104062779   -2.8799389402   -0.2362365540
 H    0.7757281241    2.1049958374   -0.2960691279
 H   -0.8887210925    1.8308839317   -0.8225794566
 H   -0.5287153855    1.9491080827    0.9019329369
 H   -0.8878548507   -0.4374030578    0.1791140243
 H    0.3066376207   -0.8855048378   -2.1501912998
 H    2.8856134967   -0.7672279100   -1.9080437356
 H    3.1689574691   -0.1528192400    1.6541090467
 H    2.1581741904    1.3089053352    1.5225413118
 H    0.7975445157   -1.0198507002    1.8586399382
 H    2.6182954151   -3.0878368034    0.0115068344