21

 O   -0.0743586453    1.0467573595   -1.0667858983
 C   -0.1048114597    0.2520154495    0.1315919248
 C   -1.4514863013   -0.4215015864    0.2013114532
 C   -1.8260739566   -1.3276849312   -0.9538818840
 O   -0.8885434814   -1.5323904516   -1.9678105803
 C   -1.5504645682   -1.9184759474    0.3959954944
 C   -0.4441224968   -2.9446241878    0.6664180369
 C   -1.5478225596   -3.9085173573    1.1993967417
 C   -2.5525333629   -2.7180012771    1.2350548761
 H    0.7932458797    1.4591607340   -1.1311953875
 H    0.6963985051   -0.4975048127    0.1062514741
 H    0.0572372820    0.8866756682    1.0140819791
 H   -2.2528738416    0.1827098176    0.6185361079
 H   -2.8636282677   -1.3069197551   -1.2910081079
 H   -0.5401054391   -0.6575252568   -2.1911708739
 H    0.1235150426   -3.2690338725   -0.2080896440
 H    0.2557649280   -2.6347395090    1.4497326469
 H   -1.8262507150   -4.6637169693    0.4607937375
 H   -1.3466100251   -4.4081899823    2.1493070448
 H   -2.6834865936   -2.3089464339    2.2424425571
 H   -3.5412355635   -2.8847267982    0.7973544614