20

 C   -0.1670945734    1.4283224168    0.0899481575
 C   -0.0087328315   -0.0480762375   -0.0405865365
 N   -0.2147335794   -0.7382515297   -1.0909445796
 C    0.0696453737   -2.1299185394   -0.7400800832
 C    1.4821100706   -2.6267099853   -1.1545337138
 C    1.9698737776   -2.4560729770    0.3188069167
 C    0.5261141082   -2.0839020615    0.7556889606
 C   -0.1488773040   -2.9296573052    1.8103219637
 O    0.3915579136   -0.6825896340    1.1013453282
 H    0.7873166864    1.8893710406    0.3637541110
 H   -0.5176130080    1.8452221063   -0.8534895155
 H   -0.8802896329    1.6632254471    0.8862985431
 H   -0.7692400824   -2.7768339724   -1.0136172036
 H    1.4971217473   -3.6614733452   -1.5058007391
 H    1.9726355174   -1.9954581067   -1.8976317402
 H    2.3693411695   -3.3589465896    0.7874448669
 H    2.6784292372   -1.6404862729    0.4773185802
 H    0.3363694307   -2.8021882029    2.7836569577
 H   -1.2028317327   -2.6530300923    1.9117780481
 H   -0.0944034179   -3.9888778593    1.5399222977