18

 C   -0.0704561285    1.5388821622   -0.0520375225
 C    0.0265106169    0.0232445438    0.0272638650
 C    0.9080909123   -0.6371357303   -1.1398747970
 C    1.8208569503   -1.3257314742   -0.1651053558
 O    2.9675976420   -2.2014395415    0.0421776857
 C    2.4985371580   -1.8214405880    1.4201665590
 C    2.1406853378   -0.3803777596    1.0131748983
 N    0.6638574880   -0.4177216835    1.3440438966
 C    1.0082816088   -1.8559047322    1.0363528054
 H    0.9219226448    2.0028477623   -0.0566141002
 H   -0.5868984019    1.8489158089   -0.9658072174
 H   -0.6218537878    1.9276478670    0.8085435126
 H   -0.9783259028   -0.4108042130    0.0088093775
 H    0.3256678779   -1.3094600352   -1.7736818122
 H    1.3992157601    0.1151237930   -1.7620675323
 H    3.0624499899   -2.2390701024    2.2516879914
 H    2.7550805948    0.5183733567    1.0224343038
 H    0.2908331795   -2.6752924542    1.0670607124