18

 C   -0.0026531483    1.4410171794    0.0445936623
 C    0.0098283939   -0.0682663959   -0.0157378044
 C   -0.4771341853   -0.7530396554   -1.2968983901
 C   -1.1310637306   -2.0575251190   -0.7845627248
 C   -0.5496322932   -2.1868479985    0.6213767962
 N   -0.4558381077   -0.7659482045    1.1852124918
 C    1.0463098746   -0.7675018598    0.8322332656
 C    0.9881415786   -2.2417805486    0.6286968433
 O    1.7954234354   -3.1276755894    0.6748684311
 H    0.6830912516    1.8630879242   -0.6971188149
 H   -1.0084429508    1.8183504691   -0.1671932679
 H    0.2924387963    1.7978578174    1.0343025505
 H   -1.1972401621   -0.1133776002   -1.8150024413
 H    0.3472826096   -0.9418355623   -1.9902419411
 H   -2.2192906901   -1.9544978844   -0.7297383150
 H   -0.9052859640   -2.9297399170   -1.4031962383
 H   -1.0470858967   -2.8887308705    1.2905306184
 H    1.7893812686   -0.2131128145    1.3965640587