19

 C   -0.2539238852    1.5493521558    0.3004686147
 C    0.0110134488    0.0739714209    0.0266785685
 C    1.1060087236   -0.3136149522   -1.0137894901
 C    1.7909337719   -1.0695365317    0.1208792707
 C    2.0833333605   -0.1824066813    1.2611158198
 N    0.7120372350   -0.7058823532    1.1284590688
 C   -1.3302536642   -0.5973098423   -0.3131424736
 N   -1.7572804312   -1.4966257088    0.6042640148
 O   -1.9401096687   -0.2961131274   -1.3237978380
 H    0.6697416864    2.1204847188    0.4225051636
 H   -0.8102227555    1.9687599677   -0.5415778252
 H   -0.8564107005    1.6680817956    1.2072404723
 H    0.7190774220   -0.9419444981   -1.8160021806
 H    1.6786191136    0.5075744574   -1.4542306467
 H    2.1815895982   -2.0799134571    0.0583192895
 H    2.6055886683   -0.6083903750    2.1124058086
 H    2.2775547390    0.8739274163    1.0986461466
 H   -1.1492193522   -1.7342008049    1.3729922899
 H   -2.6210921999   -1.9865918105    0.4433148962