18

 C    0.4980251792    1.3403889588   -0.2242776435
 C   -0.0706131267   -0.0449996701    0.0590296277
 O    0.1144301059   -0.9299268792   -1.0365732278
 C    1.0986817254   -1.8886577348   -0.7104026057
 C    2.5766953812   -1.5160300596   -1.0329401675
 C    2.8546193845   -1.3188114253    0.4887826695
 C    1.3751233184   -1.6925658645    0.8031262156
 O    0.5236102530   -0.6396944707    1.2039837507
 H    1.5733759630    1.2937333312   -0.4146768131
 H    0.0046038129    1.7702418822   -1.1007694633
 H    0.3215256800    1.9949381391    0.6341447470
 H   -1.1510399260    0.0266099370    0.2470685959
 H    0.7612546267   -2.8660607263   -1.0638043288
 H    3.1460674470   -2.3256964834   -1.4955292845
 H    2.6706099841   -0.6251537841   -1.6567527942
 H    3.5852806825   -2.0140011091    0.9089931445
 H    3.1193088617   -0.3066700215    0.8004436273
 H    1.2261585173   -2.5363355298    1.4813054404