17

 C   -0.1297928639    1.5057543197   -0.0030464926
 N    0.0950509370    0.0713145967    0.1142592621
 C    1.3537549149   -0.5534512511   -0.1566448189
 C    2.5798276269    0.2448903427    0.3284965240
 C    1.9736762439    0.2918554036    1.7639920946
 C    0.7604627223   -0.5103128140    1.2661450752
 C    0.0966952664   -1.6135016187    1.9827431646
 O    0.4101279764   -1.9869960509    3.0885198804
 H    0.7097261518    2.1358802837    0.3182138303
 H   -0.3491122665    1.7343087810   -1.0501097296
 H   -1.0063647335    1.7705162098    0.5947784015
 H    1.3741579501   -1.3897789754   -0.8483124972
 H    3.4952240135   -0.3475143813    0.2834058410
 H    2.7580956511    1.1985774339   -0.1763212239
 H    2.5511082236   -0.2840495587    2.4876315073
 H    1.7579152170    1.2753740192    2.1891809559
 H   -0.7222982009   -2.0917203002    1.4024997555