15

 O   -1.0812288908    0.6891989988    0.0772760924
 C   -0.1091537683   -0.3309522646    0.0857046472
 C    0.1400356149   -0.9501594562   -1.3133043252
 C    0.1887142587    0.1404146891   -2.4071604648
 O    0.8488786064    1.3269327591   -1.9938797397
 C    0.7630598830   -0.4007269908   -3.6522053010
 N    1.2323643505   -0.8357265886   -4.6139830402
 C    1.1680605312    0.1372172276    0.6692697877
 N    2.1785677230    0.5036931469    1.0943785719
 H   -0.6853933411    1.4504376061   -0.3696389186
 H   -0.4956183241   -1.1148636310    0.7453487747
 H    1.0689816089   -1.5283932061   -1.2978280855
 H   -0.6732394658   -1.6410461554   -1.5527060560
 H   -0.8352276230    0.4596610407   -2.6230647063
 H    1.7669588065    1.1285971643   -1.7684124466