20

 C    3.4016181371    1.0090869038    0.1204989788
 C    1.9834771738    1.1767085576   -0.4221883511
 N    1.6542339825    0.0320329977   -1.2788810864
 C    1.1214142177   -1.1973428490   -0.7504903606
 C    0.8096868881   -1.4506838596    0.7063802781
 O    2.0207964650   -1.8926795265    1.3144684073
 C    0.2605650946   -0.2992350695   -1.6214488716
 C   -0.9212888920    0.4167043178   -1.0686235501
 O   -1.0206923038    0.9197360201    0.0288554598
 H    3.4626462572    0.1201672067    0.7539162261
 H    4.1191148592    0.8998307085   -0.6978905754
 H    3.6829032957    1.8833857508    0.7156455380
 H    1.2697630777    1.3285234362    0.3944956020
 H    1.9237472631    2.0650658133   -1.0613835774
 H    1.5104737901   -2.0853845631   -1.2492254449
 H    0.4082048909   -0.5554474604    1.1890401907
 H    0.0364645434   -2.2337620293    0.7603658639
 H    1.8549888957   -2.0063874047    2.2550327640
 H    0.1235083888   -0.5911883913   -2.6615661208
 H   -1.7675494746    0.4737710309   -1.7895284304