17

 C    0.2474899904    1.5727905795   -0.0551656996
 C   -0.0600144163    0.0936714361    0.0473669363
 O   -0.3727605617   -0.4329254499    1.0916212494
 C    0.0240178008   -0.7139486805   -1.2407095969
 C    0.0790317677   -2.2325367145   -0.9891799057
 C   -1.1422805428   -2.7366608469   -0.1895653805
 O   -1.1003874182   -3.6535724485    0.5791765170
 C    0.1118144264   -2.9592217728   -2.2546838202
 C    0.0923432137   -3.5444865543   -3.3045537558
 H    1.3119807100    1.7117688081   -0.2781988317
 H   -0.3108406806    2.0308338052   -0.8787291805
 H    0.0071411901    2.0702986778    0.8848359210
 H   -0.8604443784   -0.4673947483   -1.8454872329
 H    0.8824993818   -0.3935718368   -1.8398557012
 H    0.9600053790   -2.4851354901   -0.3893752992
 H   -2.0914626980   -2.2126034308   -0.4395607994
 H    0.0943539759   -4.0773973535   -4.2232164001