17

 C   -0.1275006316    1.6632448841   -0.0663056751
 C    0.0298788165    0.1368181773   -0.0415348580
 O    0.7869024512   -0.2749563686    1.0946970230
 C   -1.3369701532   -0.5677168722    0.0009920326
 O   -1.8905561997   -0.2806003774    1.2839117224
 C    0.7436801730   -0.3284908568   -1.3231260472
 N    1.8774998410   -1.0372106421   -1.1136266961
 O    0.2823032273   -0.0730506449   -2.4220244650
 H    0.8512409562    2.1358370284    0.0503818033
 H   -0.5624774241    1.9792387737   -1.0169478668
 H   -0.7735904514    1.9855490431    0.7541609883
 H    0.1525227149   -0.3290394201    1.8216861445
 H   -1.9702574244   -0.2003723153   -0.8142685155
 H   -1.1901974494   -1.6494207922   -0.1260897119
 H   -2.6466420480   -0.8555537657    1.4289375936
 H    2.1889536784   -1.2096417209   -0.1729216723
 H    2.3976088834   -1.3718724603   -1.9068437699