23

 C   -0.3517707129    1.4100830453    0.0608327005
 C    0.0675441464   -0.0475300141   -0.0668900511
 C    1.4177478162   -0.3336202695   -0.7654711068
 O    1.9614989804   -0.9495467660    0.4230820850
 C    0.7457933865   -0.7076372911    1.1381799874
 C    0.7642864734   -0.3130257079    2.5834849914
 C    0.2256368005   -1.6790381160    2.1556175794
 C   -1.2717062613   -1.9030081318    2.2391629185
 C    1.0761512430   -2.8975139319    2.4582859164
 H    0.4612866053    2.0188754560    0.4695503367
 H   -0.6293326380    1.8237615751   -0.9147863548
 H   -1.2170134114    1.5191294818    0.7236032108
 H   -0.7545984864   -0.6458029951   -0.4711379583
 H    1.3887303453   -1.0327439520   -1.6091405077
 H    1.9867809296    0.5588174913   -1.0551862176
 H    1.7359941119   -0.2828474232    3.0666136462
 H    0.0615158180    0.4384465393    2.9322990083
 H   -1.8346875324   -1.0009210886    1.9788236635
 H   -1.5914570040   -2.7032380917    1.5609064537
 H   -1.5658707272   -2.1928261786    3.2549488539
 H    0.9425835577   -3.2199343602    3.4975132968
 H    0.7975570508   -3.7368009390    1.8102556047
 H    2.1362713584   -2.6931028421    2.2924328330