19

 C    0.0172909735    1.5751949998   -0.0344192763
 C    0.0315457713    0.0658934793    0.0071471020
 C    0.4631953296   -0.6993458298   -1.2509361124
 C    0.3725981414   -1.9834154887   -0.9059363146
 C   -0.1086381108   -1.9250561100    0.5411647575
 C    0.7373099090   -0.7541367247    1.1838883486
 C   -0.0603998629   -0.3806176154    2.4306145626
 C   -1.3281155921   -0.4041860015    2.0099901988
 C   -1.2096075956   -0.7903216052    0.5379024803
 H    1.0150572583    1.9703260165   -0.2568894606
 H   -0.6622131248    1.9391575436   -0.8134983673
 H   -0.3081472943    1.9925242307    0.9228830415
 H    0.7655060487   -0.2494118780   -2.1872771863
 H    0.5803773880   -2.8741637580   -1.4822503119
 H   -0.2764350380   -2.8477101187    1.0985655931
 H    1.8260028162   -0.8196930331    1.2325063490
 H    0.3402484299   -0.1508035848    3.4081871074
 H   -2.2409649291   -0.1987914875    2.5517468581
 H   -2.1086164283   -0.8928206245   -0.0729914896