16

 C   -0.0261036933    1.3785754924    0.0207307670
 O    0.0058577752   -0.0308855224   -0.0177500202
 C    0.6392605064   -0.5349638384   -1.1673034913
 C    0.5709901888   -2.0706669043   -1.0920125619
 C   -0.8782893859   -2.5912103393   -1.1011294638
 C    1.3519332474   -2.6502084814   -2.1877935670
 N    1.9610344767   -3.0983879790   -3.0617700240
 H    0.9874015237    1.8079833417    0.0201499228
 H   -0.5783637781    1.7958768958   -0.8351224678
 H   -0.5325610276    1.6661837673    0.9446158217
 H    0.1383241236   -0.1826286212   -2.0843853493
 H    1.6891690832   -0.2055370473   -1.2162779991
 H    1.0503254472   -2.3678364796   -0.1510938829
 H   -1.3724136858   -2.3402886112   -2.0442568992
 H   -0.9040205529   -3.6763896101   -0.9789712968
 H   -1.4283423085   -2.1249508030   -0.2822741383