18

 C    0.2971602650    1.6170376950    0.0808602249
 C   -0.1602431602    0.1732293118    0.0307068229
 C   -1.6045181112   -0.0799927852    0.4697956879
 C   -1.7971269154    0.2635621652    1.9408700731
 O   -2.0176680877    1.3957639307    2.3198450551
 C   -1.6689277082   -0.8353404560    2.8799777628
 C   -1.5854621630   -1.7502398665    3.6578938222
 C    0.4351700595   -0.7266565747   -0.9918340094
 N    0.7762261928   -0.8913127612    0.4331627368
 H    1.3364382932    1.7033160071   -0.2523650111
 H   -0.3196544358    2.2456319022   -0.5704530345
 H    0.2204260835    2.0256354737    1.0924981184
 H   -2.2792830980    0.5594727736   -0.1087671699
 H   -1.8552460431   -1.1283439610    0.2934090233
 H   -1.5035736635   -2.5534479316    4.3492095290
 H   -0.1497731738   -1.5373159468   -1.4186331693
 H    1.1788876182   -0.3052640154   -1.6636450450
 H    1.6945164378   -0.4963796808    0.6207455627