8

 O   -0.0201319660    1.4573813729    0.0101019492
 C    0.0016847769    0.0357997984    0.0022473556
 C   -1.3636669119   -0.4748110109    0.0125505641
 C   -2.4790283486   -0.9197020212    0.0208245052
 H    0.8944691103    1.7573655258    0.0032736346
 H    0.5197902843   -0.3517541277   -0.8898030248
 H    0.5367045842   -0.3612766093    0.8800089415
 H   -3.4677350191   -1.3073700880    0.0281812045