20

 C    0.1125150750    1.5040135129   -0.7218873352
 C   -0.0096431549    0.1497167468   -0.0536560066
 C    1.0676594755   -0.8570858328   -0.2395088214
 N    0.8994168170   -0.1747503670    1.0593019686
 C   -1.4402188843   -0.3286498452    0.0867607838
 O   -1.5850929809   -1.6932993542    0.5620404597
 C   -2.5491853518   -1.2651431953    1.5330321008
 C   -1.9314548492   -0.3560000031    2.5421384733
 C   -2.3660456094    0.1938686473    1.1932425857
 H    1.1633030509    1.7815783878   -0.8516808053
 H   -0.3575039660    1.5049731771   -1.7117300765
 H   -0.3719856090    2.2838449623   -0.1227153246
 H    0.8173918914   -1.9126044054   -0.2210164093
 H    1.9153728755   -0.5878077855   -0.8646312313
 H    1.5932073373    0.5634089564    1.1537832082
 H   -1.9294596585   -0.2428655200   -0.8946726418
 H   -3.4298898252   -1.8809607065    1.6706915654
 H   -2.5854343790   -0.0670096991    3.3598228497
 H   -0.8796821470   -0.4597127457    2.7789543744
 H   -3.0981362274    0.9813648592    1.0781431925