16

 C   -0.0262975002    1.4974504369    0.0191447723
 C    0.0058871084   -0.0066956240   -0.0191038843
 N   -0.0759243250   -0.6337185214   -1.1559396661
 C   -0.0734570971   -2.0208185618   -1.1874200167
 O   -0.1170961094   -2.6577206690   -2.2318968434
 C   -0.0001276636   -2.7477972214    0.1070766622
 N   -0.0751265535   -4.1176819510    0.0023794454
 C    0.1014666267   -2.0300479242    1.2514319282
 N    0.1055364418   -0.6447824889    1.1733636851
 H    0.7257684971    1.9021900565    0.7048945903
 H    0.1596033004    1.8774230165   -0.9845089601
 H   -1.0084619677    1.8561758571    0.3481804835
 H    0.0767643141   -4.4126294534   -0.9554284808
 H    0.3886139977   -4.6729679037    0.7039258649
 H    0.1781571848   -2.4551139585    2.2439009649
 H    0.1749188357   -0.1057606596    2.0210388944