22

 C   -0.6922971436    1.4961818766   -0.1904713987
 N   -0.9975007258    0.0818353164   -0.2204336190
 C   -0.1560881663   -0.8577552171    0.2677758746
 O    0.9290044468   -0.6184945193    0.7755335221
 C   -0.6521011967   -2.3223073939    0.1493613802
 C    0.3686377928   -3.0882602069   -0.7059518871
 C   -0.7374253383   -2.8980259310    1.5710989918
 O   -1.9394962865   -2.2700812974   -0.4801579775
 C   -2.6100634783   -3.4911436308   -0.7060538372
 H   -0.6579561898    1.9182090626   -1.2013820967
 H   -1.4354284072    2.0521016033    0.3925422029
 H    0.2864287157    1.6116831295    0.2771711542
 H   -1.8623576879   -0.2543131308   -0.6129130257
 H    1.3683906573   -2.9116032662   -0.3051820893
 H    0.1747837589   -4.1645915029   -0.6967834240
 H    0.3399100545   -2.7344144271   -1.7409919417
 H   -1.5409140145   -2.4106203383    2.1315895545
 H   -0.9211985867   -3.9760917982    1.5586161065
 H    0.2076540772   -2.7123772198    2.0846018113
 H   -3.5588682677   -3.2391303772   -1.1864262870
 H   -2.0499781282   -4.1585247143   -1.3740151900
 H   -2.8258929659   -4.0285404773    0.2266251959