19

 O    0.2191799520    1.1257600236    0.2065229409
 C   -0.0927059508   -0.2123568074    0.2777352239
 C   -0.8398601239   -0.8106224462    1.4072841387
 C   -1.5478995712   -0.7379559926    0.0425844910
 C   -2.5464181073    0.3384942460   -0.0855299471
 O   -2.4797356558    1.4169755378    0.4792889698
 C   -1.7966262403   -1.9583649633   -0.7953123860
 C   -1.1547186433   -3.2940836123   -0.5176947801
 C   -2.6308101292   -3.1120622311   -0.2808523398
 H   -0.5612489191    1.6209791061    0.5092141953
 H    0.6684323567   -0.8168280572   -0.2051844581
 H   -0.5626118093   -1.7935940927    1.7716739279
 H   -1.2277951942   -0.1307860407    2.1590714203
 H   -3.3854742708    0.1256767380   -0.7804944148
 H   -1.9246280149   -1.7294687694   -1.8509587765
 H   -0.8369283690   -3.8828217448   -1.3707364659
 H   -0.5105140355   -3.3983347734    0.3482381129
 H   -2.9680985367   -3.0610487846    0.7489609877
 H   -3.3298852375   -3.5884693859   -0.9586599100