14

 O   -0.1430148976    1.3953102340    0.0582605096
 C    0.0016170642    0.0429113954    0.0078200751
 C    0.0577284322   -1.0329527966    1.0674111557
 C   -1.1132847152   -0.9926268052    0.1021250465
 C   -0.3056776757   -1.9302150044   -0.8238479205
 C   -0.6125745783   -3.0527647101   -1.7271901973
 O    0.2327607930   -3.6859408029   -2.3117150366
 C    0.8153618676   -0.9292193811   -0.9113470053
 N    0.8670159130   -1.9584220880    0.1554815031
 H    0.6427048923    1.7795749384    0.4660233982
 H    0.1123448766   -1.0332648356    2.1480473911
 H   -2.1685603884   -0.8427168648    0.2775182139
 H   -1.6973051002   -3.2688842192   -1.8509329610
 H    1.5812275064   -0.8366563099   -1.6727831725