21

 C    0.5156943808    1.6648134377    0.0722893547
 C    0.0308894703    0.2341174736    0.0142703476
 C   -1.0847725234   -0.1727974727    0.9689307348
 C   -2.4471657564    0.4261858429    0.6825100244
 O   -2.4297840474    1.8130705236    0.9283083292
 C   -3.3028287371   -0.1160027714   -0.4316671589
 C   -3.6878537971   -0.3556267043    1.0216537223
 C    0.2440911542   -0.5576165826   -1.2078026761
 O    1.0865649716   -0.7423774384   -0.0693112684
 H    1.3422053414    1.8146247211   -0.6269928774
 H   -0.2956169557    2.3572458988   -0.1605480921
 H    0.8726533264    1.9020638428    1.0805776979
 H   -1.1644206847   -1.2631631727    0.9424002080
 H   -0.7977222985    0.1032996545    1.9916820038
 H   -3.2883581373    2.1806313963    0.6976906394
 H   -3.8990762457    0.5901832088   -1.0020602385
 H   -2.9419920809   -0.9551525518   -1.0163088746
 H   -3.5890285013   -1.3569737123    1.4273081914
 H   -4.5343595880    0.1988229139    1.4155909641
 H   -0.4139021248   -1.3943237213   -1.4420369761
 H    0.7194587136   -0.0962189064   -2.0729925156