14

 O   -0.6352828042    1.1200983515    0.2670698473
 C   -0.1008734914   -0.0915818130   -0.0014668390
 C    0.7536170496   -0.5935402967   -0.9474826736
 N    0.9360716691   -1.9474107321   -0.7317221911
 C    0.2162402458   -2.2463856756    0.3166053420
 C    0.1481165792   -3.6019720019    0.9597514185
 C   -1.1544396787   -3.8729788588    1.5692005645
 N   -2.1821118313   -4.0391821701    2.0705239737
 N   -0.4382905284   -1.1431169606    0.8107531565
 H   -0.3401198818    1.7427287712   -0.4047360564
 H    1.2360996148   -0.0739385026   -1.7603833236
 H    0.3648315433   -4.3515169502    0.1933346898
 H    0.9158853656   -3.7147072014    1.7376617808
 H   -1.1017378115   -1.1096790496    1.5687376707