17

 C   -0.0714502210   -1.2649449882   -0.1683421631
 C   -0.0362561360   -0.0693624304   -0.0482590162
 C   -0.0028149824    1.3840998515    0.0658138193
 C   -0.6466892313    1.9374152778    1.3885786352
 C    0.5575386725    2.4335385389    2.1763078855
 O    1.4392696579    1.2840690947    2.4077581339
 C    2.2566842825    1.7214761457    1.3242156528
 C    1.5520157852    3.0320037534    1.1547915065
 C    1.4228511591    1.9672047088    0.0850694295
 H   -0.0956287043   -2.3222852461   -0.2600190325
 H   -0.5347542939    1.8028363530   -0.7962358032
 H   -1.3300158413    2.7647655331    1.1679218298
 H   -1.1960224099    1.1651369919    1.9303923473
 H    0.3516883842    2.9729426349    3.1022585814
 H    3.3017479416    1.4359404175    1.3248356378
 H    1.8889105777    4.0526756983    1.0419734852
 H    1.9583247794    2.0857166253   -0.8499685491