18

 C   -0.2912175712    1.4105281215    0.0213072887
 N   -0.0987218889   -0.0232431082   -0.0051895300
 N   -0.2207270871   -0.7017716893   -1.1796103467
 C    0.0425787286   -1.9443234724   -0.8193886723
 C    0.0184815860   -3.1274712774   -1.7420049360
 O    0.9832210353   -4.0890154053   -1.3669711482
 N    0.3310338164   -2.1040152752    0.5033384870
 C    0.2391324218   -0.8751328583    0.9901887272
 C    0.4711944962   -0.4824217910    2.4108518359
 H   -0.2296182464    1.7626842910    1.0515464096
 H    0.4767082749    1.9093017023   -0.5765540177
 H   -1.2732817369    1.6599250252   -0.3873028896
 H   -0.9957089101   -3.5628593247   -1.7422783696
 H    0.2307868054   -2.8034433840   -2.7652224463
 H    1.0291023623   -4.0578154626   -0.4027346727
 H    1.3026103145    0.2238181141    2.5083828747
 H   -0.4152452118   -0.0183218292    2.8562521896
 H    0.7131494712   -1.3797036167    2.9809980163