18

 N   -2.3807887685   -0.4039671159   -2.6477608964
 C   -2.6834791999   -1.2437557451   -1.6253576603
 O   -3.5267049997   -2.1230815189   -1.7432922546
 C   -1.9409580185   -1.0083519877   -0.3115914856
 C   -1.1738477858   -2.2526443740    0.1039745172
 O   -0.0934970446   -2.5682498899   -0.7368919461
 C   -1.0775850204   -2.6340886922    1.5675543666
 C   -1.9495600011   -3.4303806788    0.6214898831
 O   -3.3248897097   -3.3285548484    0.7717624906
 H   -2.7972863606   -0.5861849736   -3.5472279979
 H   -1.5924216028    0.2168585139   -2.6034357931
 H   -1.2650620948   -0.1472463480   -0.3746762419
 H   -2.7004414780   -0.7823440779    0.4415711434
 H    0.6664165193   -2.0479411246   -0.4526828540
 H   -0.1513406540   -3.0884739659    1.9024932348
 H   -1.5847355034   -2.0096931546    2.2947614433
 H   -1.5649011860   -4.4035561191    0.3154166009
 H   -3.6727970513   -3.0941827594   -0.1088087901