16

 C    2.0211602614   -0.8077627663    2.6204435264
 C    1.1301551253   -1.1157758962    1.4382628373
 C    0.1925031706   -0.0874179642    0.8527023977
 C    0.1594320142    1.2501219436    1.3759146033
 C    0.1060764300    2.3790510255    1.7903142904
 N    1.3548821602   -0.5960660925    0.0965672802
 C    2.4783387555    0.2937308550   -0.1686734147
 H    2.9716690500   -1.3461975285    2.5389725347
 H    2.2314190863    0.2582539985    2.7197394960
 H    1.5325123926   -1.1366720647    3.5432253509
 H    0.7629136086   -2.1421467264    1.4255178058
 H   -0.7618381030   -0.4295090561    0.4566010185
 H    0.0537870804    3.3733016154    2.1596028498
 H    2.2953796367    0.8072017939   -1.1174459171
 H    2.6600553607    1.0576747684    0.5978299542
 H    3.3816731205   -0.3136779255   -0.2816563535