14

 C   -0.0001394070    1.3804119301    0.1479100135
 N    0.1614342780   -0.0503345299   -0.0131703613
 C    0.6381712962   -0.6006733014   -1.1525270605
 O    0.9839441383   -0.0196237869   -2.1564595472
 O    0.6814132262   -1.9650567876   -1.0177583829
 C    1.1740498983   -2.6295423121   -2.1778090793
 C    1.1691678608   -4.0670555072   -1.9073453503
 N    1.1791957587   -5.2074658391   -1.7288638478
 H    0.6118758375    1.7590945012    0.9735710121
 H    0.3232389191    1.8550883098   -0.7788466763
 H   -1.0466307307    1.6435978421    0.3357030522
 H   -0.0831614674   -0.6761741754    0.7360895073
 H    0.5470494235   -2.4103564167   -3.0483308528
 H    2.1898134084   -2.2969339870   -2.4156892166