14

 O   -0.1284486650    1.3756368576    0.0487439931
 C   -0.0965854927   -0.0023126716    0.0344814259
 C    1.0350751109   -0.5911025790    0.7745356502
 O    1.8641843150    0.1065414898    1.3187205890
 C   -1.3827768952   -0.8172599599    0.0379601065
 C   -2.3890986951   -0.0793818484   -0.8445621026
 O   -1.4589403923   -0.0708688824   -1.9643394494
 C   -0.5205435108   -0.8025567796   -1.2036717440
 H    0.6731100996    1.6383036253    0.5293462328
 H    1.0956309926   -1.6980749921    0.7931388285
 H   -1.6091433185   -1.5866948019    0.7647880940
 H   -3.2675668545   -0.6833780168   -1.0898237345
 H   -2.6796400975    0.9282545629   -0.5368247493
 H    0.0924100437   -1.5396043237   -1.7114701004