20

 C    0.2419514963    1.1224066288    0.9754371370
 C   -0.2390089816   -0.1111745648    0.2234281950
 O    0.7775581049   -1.1148790310    0.1479133136
 C    0.8357363863   -1.9873387709    1.1708068956
 N    1.7767227688   -2.8227389335    1.2314057157
 C    1.8292127018   -3.7908366242    2.3249381501
 C    3.2042064021   -3.6830003267    3.0120691886
 C    0.7454639760   -3.7147416767    3.3163108524
 C   -0.1382008346   -3.6388671505    4.1293541917
 H    1.1507054245    1.5199126617    0.5153608640
 H   -0.5277358055    1.9007411076    0.9559551507
 H    0.4619605193    0.8852190902    2.0209894081
 H   -1.1425859216   -0.5290768431    0.6868276382
 H   -0.4799465240    0.1336257089   -0.8145103299
 H    0.0117956577   -1.9090906609    1.8918490558
 H    1.7763197346   -4.7839837840    1.8564189256
 H    3.3033696140   -2.7137869532    3.5081166777
 H    3.3260188326   -4.4725931398    3.7582235517
 H    3.9891957606   -3.7703555214    2.2573909647
 H   -0.9141927521   -3.5913575064    4.8530414538