17

 O    0.1067360718    0.1609851117    0.5268960385
 C    0.0451336274    1.3229068717    0.2283221341
 C   -1.1826418407    2.2359303882    0.3779050066
 N   -0.8146749433    3.5428383786   -0.1673759155
 C    0.6589031622    3.6253914448   -0.2173543623
 C    1.2009255539    4.2898710131    1.0709970160
 C    0.7434205853    5.6685930745    1.2202999237
 N    0.4016949049    6.7673767584    1.3221457384
 C    1.1721133521    2.1792786702   -0.3611856329
 H   -2.0504487412    1.8027854201   -0.1268848118
 H   -1.4388181689    2.2962413432    1.4450560671
 H   -1.1992966894    3.6644048809   -1.0946793274
 H    0.9493117374    4.2496626744   -1.0649754521
 H    0.8878324858    3.7153146568    1.9508916654
 H    2.2968092434    4.2828611763    1.0608707500
 H    2.1247390928    1.9621212528    0.1278852877
 H    1.2789712766    1.9096723043   -1.4186544954