20

 C   -0.1728742592    1.0757131234    1.1675722132
 O   -0.1870420565   -0.2212213519    0.6183245836
 C    1.0984527766   -0.6652708999    0.2363775587
 C    0.9382196668   -2.0774625739   -0.2755133444
 C    0.7253869034   -2.3959312076   -1.7501644059
 C    0.6586077321   -1.3019045231   -2.7498731933
 O    1.3825352631   -0.3313473823   -2.8131182222
 N    1.9418863220   -2.7856404310   -1.0191868565
 C    3.2405158900   -2.1868149408   -1.3277739706
 H    0.4477592388    1.1269884068    2.0765314870
 H    0.2072201319    1.8193978304    0.4503134043
 H   -1.2028204896    1.3298943795    1.4290246351
 H    1.5320396867   -0.0042544142   -0.5237504837
 H    1.7780071915   -0.6738520497    1.1074488629
 H    0.3670491859   -2.7027637874    0.4105467699
 H    0.0718833057   -3.2326089508   -1.9900008440
 H   -0.1572177989   -1.4435555291   -3.4932062714
 H    3.2040127546   -1.1462951127   -1.6610767134
 H    3.8647338427   -2.2658211696   -0.4323558172
 H    3.7080370923   -2.7839820858   -2.1161397319