18

 C   -0.6047737166    1.3933139019    0.1289167810
 C   -0.0833123217   -0.0253942976   -0.0363445668
 C    0.7621889469   -0.4024934483   -1.2895073496
 C    1.7912597035    0.6381233228   -1.7675015318
 O    2.7815331720    0.1590598568   -0.8203134799
 C    1.9196847103   -0.8901194425   -0.3771585981
 C    1.0942970880   -0.5246010523    0.9007791238
 C    1.6963890479    0.4397494644    1.8024186464
 N    2.1504460667    1.2196941905    2.5251997028
 H    0.2004672455    2.1328913520    0.1248550751
 H   -1.3032371049    1.6410029100   -0.6774836632
 H   -1.1365882563    1.5004760690    1.0793754804
 H   -0.9156142193   -0.7279096244    0.0603598791
 H    0.2770060304   -1.0118133286   -2.0503252979
 H    2.1326920195    0.4897707961   -2.7987464606
 H    1.5521023780    1.6961270080   -1.6192214547
 H    2.3954144704   -1.8735050616   -0.3955867906
 H    0.8078850399   -1.4116898062    1.4728710746