18

 C    0.0003327262    1.5187404815   -0.0146851120
 C    0.0418011491    0.0231643878    0.0136510479
 C    0.1167858748   -0.8227209432   -1.0443253142
 O    0.1340986133   -2.1198228432   -0.6311994598
 C    0.0680539053   -2.1066014459    0.7336169626
 C    0.0739556086   -3.4361727362    1.4000887125
 C    0.0094503736   -0.8219239007    1.1875048281
 C   -0.0721104368   -0.3455475671    2.6047058372
 H    0.8434233985    1.9579669438    0.5321653372
 H    0.0383432692    1.8957790233   -1.0405280624
 H   -0.9145910366    1.9075425974    0.4484751982
 H    0.1635189645   -0.6675124445   -2.1102289157
 H   -0.7768889290   -4.0493931547    1.0809775860
 H    0.9857060961   -3.9985848458    1.1671787050
 H    0.0176468807   -3.3181198001    2.4842313058
 H    0.7808798982    0.2925213609    2.8661946549
 H   -0.9770473841    0.2490809995    2.7794635431
 H   -0.0863681615   -1.1791447527    3.3118567657