19

 C    0.0545971791    1.4396148818   -0.0528987902
 N   -0.0924397641   -0.0076563839   -0.0756983732
 C    0.5960687184   -0.7119288731   -1.0554763540
 N    1.1724154989   -0.0981947428   -2.0790605686
 N    1.6322099314   -1.1319815486   -2.8579818529
 C    1.3919606342   -2.3463933283   -2.3049439135
 N    1.8661343817   -3.5174587830   -2.9079370328
 C    0.6942209983   -2.1346776654   -1.1317758073
 C    0.1108428663   -3.1434644918   -0.1948261088
 H    1.0947593900    1.7724558209    0.0797383142
 H   -0.3002122608    1.8512043790   -1.0008424482
 H   -0.5575453493    1.8449260311    0.7569378681
 H   -0.0126732674   -0.4341424644    0.8361339470
 H    2.2857515430   -0.9271428002   -3.5928417993
 H    1.5681302188   -3.6123265600   -3.8726162014
 H    1.5791702357   -4.3405498782   -2.3942214571
 H    0.7148702862   -3.2971380836    0.7100998107
 H   -0.8905202784   -2.8406712867    0.1336245775
 H    0.0052662181   -4.1237644827   -0.6747460604