16

 C   -0.1184060876    1.5263592719    0.0556363508
 C    0.0348783518    0.0426688176    0.1081120262
 O   -1.1288136874   -0.7480463065   -0.0796269399
 C   -0.6485708068   -1.7304327920    0.8759330739
 C    0.6554444395   -0.9677435080    1.0641608631
 C    1.2587927686   -0.7538236395   -0.3280149142
 O    1.1326362282   -1.6925300985   -1.3456039396
 C    2.5089613190   -0.0238187892   -0.3218548459
 N    3.5190376273    0.5410379752   -0.3230422820
 H    0.8415341854    2.0244866730    0.2079530664
 H   -0.5092427791    1.8216984503   -0.9238480367
 H   -0.8219628469    1.8640775465    0.8216822228
 H   -1.2792372319   -1.7350969215    1.7700155053
 H   -0.5895598450   -2.7331902266    0.4429213216
 H    1.2281312476   -0.8531493639    1.9748226228
 H    1.7594754372   -2.4072965691   -1.1814792646