17

 C   -0.0958417318    1.5197886537   -0.0330013959
 N    0.0868953248    0.0814846878    0.0482035290
 C    0.7228155598   -0.5609920983   -1.1381570406
 C    1.4088827687   -1.8895133790   -0.6460760319
 C    1.5694715546   -1.5067285265    0.7835751443
 C    0.8069725199   -0.4490388322    1.1185102296
 N    0.8239256330   -0.2417663806    2.4804270817
 C    1.5874468565   -1.2122518672    2.8987284311
 O    2.0656801549   -2.0497216550    1.9378912126
 H    0.8434151326    2.0600025340   -0.2465136970
 H   -0.8156519623    1.7562448709   -0.8224748648
 H   -0.4950545718    1.8822163277    0.9169741031
 H   -0.0179180609   -0.7360181010   -1.9223413240
 H    1.4990240636    0.1090008043   -1.5409730549
 H    0.7445565284   -2.7549723900   -0.7765963467
 H    2.3287925608   -2.0912349817   -1.2024961509
 H    1.9018316893   -1.4166104571    3.9099335353