23

 C    0.2664516621    1.4356122332   -0.3047147217
 C    0.3340986422   -0.0743948235   -0.0664352249
 C    0.3330097700   -0.4461686361    1.4238227369
 C    0.3839327884   -1.9400146258    1.6342479760
 O    1.6304864507   -2.6041575438    1.3606644376
 C    1.1128672645   -2.6328758829    2.7113953454
 C    1.9410563984   -1.9169029027    3.7540783851
 C    0.6670718857   -4.0321847051    3.1023759955
 O    1.7791854609   -4.9027629375    3.2271434823
 H    1.1204793149    1.9477064914    0.1524354739
 H    0.2722103458    1.6701235206   -1.3735877475
 H   -0.6448473210    1.8658669084    0.1258852678
 H   -0.5140948250   -0.5644217908   -0.5624784978
 H    1.2389579982   -0.4867366448   -0.5278584742
 H    1.1789584346    0.0375643381    1.9217656369
 H   -0.5791779218   -0.0608502534    1.9004478024
 H   -0.4779467063   -2.4681687340    1.2160097987
 H    2.4319611454   -1.0338575462    3.3435549979
 H    1.3161697500   -1.6120154048    4.6007575574
 H    2.7093816361   -2.5981803086    4.1307869840
 H    0.1726924475   -4.0210040243    4.0799441151
 H   -0.0529499952   -4.4085566039    2.3608317199
 H    2.2388945537   -4.8713015734    2.3795511834