18

 C   -0.1554694819    1.6044270695   -0.0202422991
 C   -0.0489979913    0.0859745498   -0.0002097095
 C    1.1613078120   -0.5905352463   -0.6855036994
 C    2.0940582789   -0.3474248930    0.5409647146
 O    2.5231978675   -1.7372994082    0.6526294715
 C    1.1129030412   -1.8073115258    0.2836931297
 C    0.6823633619   -0.6003528959    1.1845687831
 C    0.3498493051   -0.6377154203    2.6479749821
 H    0.7985734475    2.0803229539    0.2320918246
 H   -0.4543508624    1.9660838504   -1.0101281408
 H   -0.9035794475    1.9585360266    0.6976092007
 H   -1.0135890513   -0.3741882059   -0.2490971146
 H    1.4572260956   -0.6059175169   -1.7346041776
 H    2.8285825835    0.4351529741    0.7295546331
 H    0.6500697588   -2.7864485432    0.1571296222
 H    1.1062869739   -1.2170748280    3.1877681812
 H    0.3209736357    0.3697486601    3.0772704465
 H   -0.6265103672   -1.1029602909    2.8226685117