16

 O   -0.2166057418    0.0264864613   -0.1708603951
 C    0.0367838757    1.1913229631    0.0022090106
 C    1.3924050783    1.8227002148   -0.2105699048
 C    1.3563081405    2.9453156214   -1.2523130506
 C    0.5524111786    4.2674221231   -0.9328226476
 C    1.8680326221    5.0410203209   -1.0701895548
 O    2.7800144219    4.4923076954   -0.1091766670
 C    2.6253647651    3.8128981170   -1.3581186871
 H   -0.7557558759    1.9007336006    0.3376374064
 H    1.7256587532    2.2585109463    0.7409639418
 H    2.0964778924    1.0373915687   -0.5026788034
 H    1.0687611529    2.5539503376   -2.2327216308
 H   -0.1824844596    4.5057547593   -1.7045934454
 H    0.0835774684    4.3383056753    0.0519519366
 H    2.0358043636    6.0655100045   -1.3804627969
 H    3.5211474946    3.6407527106   -1.9439590719