22

 C   -0.2858904651    1.4052344535   -0.4467447268
 C   -0.0597904229    0.0417305182    0.2061490170
 O    0.3714472946    0.1673688563    1.5621200350
 C   -1.2995570443   -0.8250762642    0.1160938631
 N   -1.5285309413   -1.5618317599   -1.1460592001
 C   -1.2877362575   -2.3108314207    0.1009926370
 C   -0.0071563973   -3.1149763036    0.1728452836
 C   -2.4721181504   -3.0340445616    0.7235616522
 O   -3.6533434910   -2.2703685330    0.5248198558
 H    0.6140308240    2.0213992105   -0.3685366054
 H   -0.5438269156    1.2848661394   -1.5032263076
 H   -1.1110886076    1.9389734582    0.0425978744
 H    0.7666641209   -0.4596642558   -0.3046708679
 H   -0.3128502953    0.6485961458    2.0404297159
 H   -2.1823295433   -0.3746629584    0.5708303735
 H   -2.5280923748   -1.5660267821   -1.3400303862
 H    0.7916800568   -2.6327714946   -0.3912741465
 H    0.3254241065   -3.2325616699    1.2097449812
 H   -0.1553842974   -4.1135200600   -0.2547923404
 H   -2.5671060463   -4.0268776588    0.2542580873
 H   -2.2759879246   -3.1942196266    1.7957557406
 H   -4.4022295879   -2.7795148126    0.8454411941