18

 C   -0.0529875697    1.5460467286   -0.0237044785
 C    0.0231564372    0.0147097661    0.0292002654
 C    0.8437002107   -0.4685775379    1.2304350299
 C   -1.4065406025   -0.5541599091    0.0418116172
 N   -1.4407797699   -2.0092145656   -0.0775359838
 N   -1.2413613387   -2.6597463736   -1.2123826198
 N   -1.3160255962   -3.9188797206   -0.9007718763
 N   -1.5582778845   -4.0295027901    0.4182720540
 N   -1.6361432168   -2.8400897706    0.9349994751
 H    0.9511413875    1.9769147741   -0.0678466307
 H   -0.6063955680    1.8941602772   -0.9019527056
 H   -0.5466797664    1.9483134077    0.8686143905
 H    0.4999641390   -0.3421009194   -0.8922491921
 H    0.4051818988   -0.1164176923    2.1712917146
 H    0.9007572443   -1.5594932039    1.2773671596
 H    1.8657675129   -0.0829785723    1.1728391827
 H   -1.9204169165   -0.3173022660    0.9763790710
 H   -1.9891521213   -0.1576187026   -0.7928440930