21

 C   -0.4128268988    1.6871383348    0.0847007232
 C    0.1407425583    0.2694285814   -0.0189912371
 C    1.1404674202    0.0240182156   -1.1642228302
 C    1.8649789415   -1.2899526056   -0.7927517636
 C    1.7097450545   -1.4367669646    0.7503445505
 C    0.9394236247   -0.1817450392    1.2121896474
 O   -0.9591791271   -0.6994822288   -0.0875428941
 C   -1.8022417779   -0.6834999231   -1.1293435964
 O   -2.7165255501   -1.4504952451   -1.2280473911
 H    0.4013391689    2.3928421637    0.2736027722
 H   -0.9180520309    2.0031671891   -0.8325204407
 H   -1.1278175860    1.7572184814    0.9096465520
 H    0.6691073859   -0.0050435656   -2.1500318141
 H    1.8435170079    0.8647126635   -1.1761223354
 H    1.4045891099   -2.1391931189   -1.3038738003
 H    2.9120222685   -1.2646120034   -1.1050181706
 H    1.1373558914   -2.3363371033    0.9876149625
 H    2.6732156300   -1.5260548582    1.2582896220
 H    1.6310686352    0.6227789937    1.4855719298
 H    0.2833886543   -0.3631057873    2.0667566117
 H   -1.5771247004    0.0954889796   -1.8793928079