15

 O    0.5547376312    1.1121414588    0.6056709859
 C    1.3361075983    2.0845262293    0.0645611053
 C    1.2563683470    2.7870960108   -1.0737454559
 N    0.3737559237    2.7667712091   -2.1466240110
 C    0.2911315329    1.8295352055   -3.0036334376
 C    1.0523353177    0.5550435709   -3.0072374796
 N    0.9157253410   -0.4191223773   -2.1997451099
 C   -0.0344547472   -0.4856676136   -1.1882084857
 C   -0.1886710293    0.1658871593   -0.0274331135
 H    2.0562055888    2.4076416097    0.8075483166
 H    1.9385513990    3.6333789907   -1.1187518983
 H   -0.3888490397    1.9853749248   -3.8472505759
 H    1.7857737929    0.4357702600   -3.8110966644
 H   -0.7111343743   -1.3280965108   -1.3147481493
 H   -0.9548993020   -0.1887591772    0.6523433632