21

 C   -0.1392963437    1.5655613631    0.0003308308
 C    0.0226512383    0.0394396867   -0.0061906457
 O   -1.2794886378   -0.5685070002    0.0705478890
 C    0.7552268991   -0.4378935691   -1.2496877491
 C    1.8449099459   -1.1957462508   -1.1267390889
 C    2.3229449261   -1.5397019879    0.2666681211
 C    1.0820641833   -1.9801391354    1.1057616909
 C    0.7739364199   -0.4624427973    1.2442080398
 C    2.3061646768   -0.2269568129    1.1117117683
 H    0.8265886259    2.0780259325    0.0227555568
 H   -0.6689077247    1.8991559435   -0.9001553263
 H   -0.7247108123    1.8730930734    0.8722217841
 H   -1.7605209216   -0.3370602208   -0.7312591163
 H    0.3540422316   -0.1450191336   -2.2179636951
 H    2.3900299899   -1.5627991212   -1.9913627831
 H    3.2189012078   -2.1621345456    0.2721503569
 H    0.3334478417   -2.6058216576    0.6191744861
 H    1.3749835777   -2.4140744223    2.0656375756
 H    0.2646939497   -0.1150754200    2.1463793533
 H    2.8059006581   -0.3543937110    2.0760685186
 H    2.6635949283    0.6863565165    0.6301792935