21

 C   -0.0297985227    1.3558274000    0.1232945739
 O    0.0376326672   -0.0440201161   -0.0411873509
 C    0.7209686720   -0.4940963756   -1.1627220035
 C    0.3761341788   -0.0885980458   -2.6530313381
 C    1.7853837364   -0.7291431305   -2.8886350995
 C    2.1844662097   -0.1018197668   -1.5239543951
 C    1.4802369484   -2.2065611883   -2.5648989546
 C    1.9727662268   -2.8207886891   -1.2770580832
 C    0.6897567532   -2.0288386355   -1.2838005082
 H    0.9656371215    1.8079148322    0.2359530024
 H   -0.5422442795    1.8459481727   -0.7165035355
 H   -0.6009224887    1.5388237140    1.0364723686
 H   -0.4860621641   -0.5730135771   -3.1192490264
 H    0.3570989488    0.9905651141   -2.8288260310
 H    2.3614322350   -0.5140752814   -3.7873565529
 H    2.3061265040    0.9789658870   -1.6169170174
 H    3.0170182876   -0.5119237878   -0.9519683945
 H    1.1394709007   -2.8498027170   -3.3683968691
 H    1.8465234317   -3.8968594502   -1.2028050001
 H    2.8631339216   -2.4624899186   -0.7748839858
 H   -0.2588813986   -2.5170621302   -1.0945106691