23

 C    0.1132618135    1.5825730679   -0.0602507905
 C   -0.0006987716    0.0621279784   -0.0159878736
 O    0.6144743536   -0.4231492845   -1.2102903436
 C    0.1886085315   -1.7020653519   -1.6288041810
 C    0.7140103153   -2.8647420594   -0.7824628883
 C    0.1770448822   -2.9025475822    0.6587908211
 C    0.6976681680   -1.8000330561    1.5648341365
 C    1.3274000487   -2.2549012723    2.8552138887
 C    0.6126733970   -0.5051051701    1.2496529516
 H    1.1666605198    1.8802152668   -0.0644901141
 H   -0.3593819191    1.9742254459   -0.9639522232
 H   -0.3690165794    2.0300650502    0.8141729450
 H   -1.0708047595   -0.2133240282   -0.0500182093
 H   -0.9153216918   -1.7411853974   -1.6583988543
 H    0.5463999044   -1.8098237091   -2.6586432888
 H    0.4308818339   -3.7954191172   -1.2914414269
 H    1.8092586706   -2.8262700367   -0.7673274981
 H   -0.9224347389   -2.8625160566    0.6288345596
 H    0.4250670182   -3.8732815882    1.1013084501
 H    2.1918534407   -2.9048170575    2.6649809852
 H    1.6618280937   -1.4126502070    3.4663651674
 H    0.6202442409   -2.8498177414    3.4484218951
 H    1.0121947784    0.2267525865    1.9494885917