17

 C   -0.2205404708    1.5912663011    0.1142317301
 C    0.0063313947    0.0845724456    0.0676546093
 O    1.1596170794   -0.2466682235   -0.7689630390
 C    1.8294775255   -0.9675425334    0.2888438550
 C    0.7454467908   -0.5541688834    1.2712044883
 C    0.7908500074   -0.1569765497    2.6750574355
 O    0.1665843966   -1.3803749966    2.2424119505
 C   -1.1918155104   -0.6381319622   -0.3425418634
 C   -2.1855336202   -1.2271615762   -0.6731964319
 H    0.6878274246    2.0966940786    0.4522680303
 H   -0.4764208837    1.9563067580   -0.8839951415
 H   -1.0445729472    1.8352576212    0.7910785438
 H    1.8665155675   -2.0476794910    0.1009377606
 H    2.8414555127   -0.5887039737    0.4702602295
 H    1.7127993533   -0.2785908227    3.2419862435
 H    0.1082956300    0.6044586845    3.0485913840
 H   -3.0588691103   -1.7560572667   -0.9659993347