18

 O   -0.1464009826    1.4537882433    0.1081604528
 C   -0.0873345985    0.0793011280    0.0364818436
 C   -0.2994701434   -0.7182167230   -1.2339970486
 C   -1.2019275860   -0.9433697996   -0.0440815285
 O   -0.5493317479   -1.8072157775    0.9009579255
 C    0.5052840967   -0.8232137936    1.1138373662
 C   -2.6800650279   -0.9025083676   -0.0212041390
 C   -3.4331351262   -2.1375896353    0.3193480976
 N   -3.3880079116   -1.0062412457    1.2633073411
 H    0.5336245352    1.8211301622   -0.4674105732
 H   -0.7543643501   -0.1405214594   -2.0338065200
 H    0.3944186599   -1.4943167747   -1.5480496266
 H    1.5026811307   -1.2483551000    0.9532722650
 H    0.4331381272   -0.3867473036    2.1157381749
 H   -3.1142205156   -0.1922211765   -0.7203986626
 H   -4.4020585450   -2.3218071063   -0.1357289706
 H   -2.8543507089   -3.0260749072    0.5539899722
 H   -2.7019826060   -1.2205750937    1.9851442905