12

 O   -0.1293280053    1.4893669181    0.1208608841
 C   -0.0361128585    0.0922661893    0.0240777905
 C   -1.3579198536   -0.6597387879   -0.0133122935
 C   -2.0945777377   -0.3795647577   -1.2496090432
 N   -0.9771354483   -1.3784254966   -1.3251796361
 C    0.2209006073   -0.5579944454   -1.3615221984
 O    1.0891410505   -0.5118352875   -2.1746076209
 H    0.7396567819    1.8579668570   -0.0740314139
 H    0.6508573359   -0.3370874482    0.7690179404
 H   -1.7722544185   -1.2312492187    0.8069993896
 H   -3.0644771330   -0.8450316756   -1.3856530794
 H   -1.9695007606    0.5781907032   -1.7457226491