20

 C   -0.2190696546    1.4747363711   -0.1809702146
 N    0.0974049376    0.0627414879   -0.0678164845
 C    1.1520372354   -0.5005515483   -0.9047481434
 C    2.5362837490   -0.0833679256   -0.4785910852
 C    1.8030403226   -1.1512448503    0.2992959875
 C    0.7250231000   -0.4945068811    1.1579674993
 C    1.0806626856    0.3316676164    2.4164752109
 O    0.3587071166   -0.5818412220    3.2655693529
 C   -0.1411463891   -1.3182768313    2.1298695246
 H    0.6420238934    2.1517294396   -0.0472119116
 H   -0.6395321900    1.6617893780   -1.1746865781
 H   -0.9820522397    1.7442897825    0.5563301643
 H    0.9271998737   -0.9026381349   -1.8866923252
 H    3.3459936922   -0.4453964040   -1.1049464345
 H    2.7155935086    0.8943808856   -0.0383775891
 H    2.1719582399   -2.1613522185    0.4194053974
 H    2.1470851776    0.3837128894    2.6684830594
 H    0.6551764206    1.3435949918    2.4479026415
 H   -1.2189638094   -1.1770811022    1.9784532528
 H    0.0808148201   -2.3903573342    2.1999036357