22

 C    0.1922034613    1.4538732260   -0.2437734427
 C   -0.0477196092   -0.0543886754   -0.3648981729
 C   -1.4433525865   -0.5269599797    0.1056130216
 C   -2.5552958942    0.0283623358   -0.7937140255
 C   -1.4566172207   -2.0573612292    0.2125375207
 C   -0.7164665641   -2.6421227163    1.4008934232
 C   -2.5094443292   -2.8852780976   -0.4012564554
 O   -1.2314523627   -2.7525584144   -1.0281573161
 H    1.2174145441    1.7056568837   -0.5330104310
 H   -0.4771359914    2.0345732578   -0.8853985273
 H    0.0456468753    1.7980349834    0.7866810231
 H    0.0905338132   -0.3769422668   -1.4036121943
 H    0.7236074326   -0.5726938636    0.2152579097
 H   -1.6031934963   -0.1426262471    1.1235082720
 H   -3.5481870253   -0.2038660378   -0.3978486576
 H   -2.4859099638    1.1157066983   -0.8767239395
 H   -2.4791407605   -0.3898129392   -1.8031478369
 H   -1.2045877103   -2.3502984024    2.3373213962
 H   -0.7040399927   -3.7330266174    1.3405919288
 H    0.3205576874   -2.2963307338    1.4433605677
 H   -2.7207458292   -3.8680754215    0.0208067732
 H   -3.3398950877   -2.4328169228   -0.9365694869