15

 C   -0.3139456695    1.3826153344   -0.8354972361
 C   -0.0773373874    0.1062868357   -0.0651055931
 C    1.0802519479   -0.7587645382   -0.3740687367
 O    1.0809128862    0.0724156086    0.7846392083
 C   -1.2653446830   -0.5272240220    0.5596413261
 N   -2.4881774677   -0.3348463789    0.1410217386
 O   -3.2864133981   -1.0788555556    0.9642311278
 N   -2.5512679554   -1.7337501813    1.9121485278
 C   -1.3120427971   -1.4070576071    1.6811087618
 H    0.6302500037    1.7582861103   -1.2352624677
 H   -1.0104352076    1.2063949925   -1.6597083440
 H   -0.7500716909    2.1469040468   -0.1860777448
 H    1.0245461161   -1.8299021723   -0.1863545715
 H    1.7604979481   -0.4581427049   -1.1695362392
 H   -0.5050886853   -1.7704402582    2.2965610225