14

 C    0.1363978017    1.4815501839    0.0198149006
 C    0.0447184198    0.0335080554   -0.0596038217
 C   -0.0437392574   -1.1670170645   -0.1289600860
 C   -0.2164887889   -2.6085771528   -0.2313244218
 O   -1.2561807896   -3.1317243409   -0.5485007216
 N    0.9625790903   -3.2890109716    0.0816729291
 C    1.2066494235   -4.6596713422    0.1013505782
 N    0.3477625133   -5.5479486005   -0.1774159237
 H    0.9030892762    1.8639722630   -0.6625637279
 H   -0.8165853614    1.9508606279   -0.2449710260
 H    0.4015944669    1.8025098754    1.0329185776
 H    1.7422725045   -2.6990195890    0.3267950096
 H    2.2479291658   -4.8497255713    0.3928445563
 H    0.7718676253   -6.4703500326   -0.0896957728