23

 C   -0.1192551595    1.4869485540   -0.0340209391
 C    0.0106247622   -0.0333150758   -0.0125447028
 O   -1.2636069434   -0.6242360530   -0.2068506041
 C    1.2082645843   -0.5872074497   -0.8591121261
 C    2.0812461756   -0.4062447933    0.4177749047
 C    0.7630593934   -0.5972287539    1.2257914778
 C    0.4464143511   -2.0951468652    1.3830721700
 C    0.9562894269   -2.9030873528    0.1633328470
 C    0.9737661431   -2.0789588107   -1.1483206049
 H    0.8315284618    1.9909316727    0.1543410651
 H   -0.4782995166    1.8268966229   -1.0146795008
 H   -0.8388315199    1.8134406101    0.7237756636
 H   -1.6999916317   -0.1684702992   -0.9339825603
 H    1.4854060824   -0.0323304953   -1.7612816288
 H    2.8842619132   -1.1267238833    0.5876809241
 H    2.4932671775    0.5999861654    0.5096976137
 H    0.6425013303   -0.0544402569    2.1681403570
 H    0.9145482486   -2.4774307823    2.2973285038
 H   -0.6338891469   -2.2129118143    1.5021454690
 H    1.9766763720   -3.2412945545    0.3724173113
 H    0.3634377088   -3.8135893201    0.0338143777
 H    0.0220213429   -2.1848853213   -1.6780936589
 H    1.7565915739   -2.4612402134   -1.8131280689