23

 C   -0.3605073052    1.2850091576   -0.1026354805
 O   -0.1133175168   -0.0945241878    0.0087155977
 C    0.5394074049   -0.6289531095   -1.1189413696
 C    0.6918347120   -2.1388183344   -0.9436221173
 C    1.3087777154   -2.4962711234    0.3992682710
 O   -0.5914938655   -2.8054277241   -1.1248059480
 C   -0.1797309990   -3.3729924347   -2.3808502357
 C    1.2701422180   -2.8857157851   -2.1891207686
 C    1.9488280381   -2.1346821464   -3.3266550990
 H    0.5725225552    1.8617214815   -0.2114494297
 H   -1.0068577894    1.5161537377   -0.9643144859
 H   -0.8664793565    1.6020354910    0.8125249734
 H   -0.0417880938   -0.4184261364   -2.0307562930
 H    1.5348268562   -0.1662110660   -1.2458591294
 H    0.7034691625   -2.0923107724    1.2130498460
 H    1.3701700311   -3.5824845384    0.5061186475
 H    2.3186948914   -2.0782857553    0.4821115617
 H   -0.3424246836   -4.4565152231   -2.4187156428
 H   -0.6997505431   -2.9104227882   -3.2329141496
 H    1.9199761528   -3.7001625971   -1.8551561175
 H    1.3257555504   -1.3243645336   -3.7175839530
 H    2.9056137669   -1.7047474818   -3.0119237954
 H    2.1565580677   -2.8167606202   -4.1584177025