17

 O    0.0987344899   -0.0229853129    0.2863162524
 C    0.0465199050    1.1463460969    0.0081124517
 C    1.2347767304    2.0819094516   -0.0365896672
 C    1.3345473582    2.8160436323   -1.3833952975
 C    2.4757114470    3.8312692290   -1.4093982187
 C    2.5917215240    4.5669530771   -2.7234001287
 O    1.8635546080    4.4053407831   -3.6751867296
 C    3.7234316637    5.5985052004   -2.8480131827
 O    4.5001521791    5.8412197296   -1.9628602129
 H   -0.9254789582    1.6319286682   -0.2467573775
 H    1.1001962654    2.8190701452    0.7693023094
 H    2.1391859543    1.5065369725    0.1826576396
 H    1.4766793835    2.0915083016   -2.1924938394
 H    0.3905022481    3.3279081500   -1.6028913250
 H    2.3698783106    4.5838993219   -0.6155401370
 H    3.4463241026    3.3595462375   -1.2042150789
 H    3.7451813684    6.0946674361   -3.8411412180