18

 N    0.0065915708    1.3264810100    0.1340440093
 C    0.0742783281   -0.0426437494    0.0715629038
 O    1.1420560298   -0.6265303562    0.0094703881
 C   -1.2469992104   -0.7546382712    0.0592948497
 C   -1.2368825656   -2.0897163456    0.1082629830
 C   -2.4880840243   -2.9110266529    0.1422284382
 O   -3.6636440173   -2.1496206001    0.3353449232
 C   -3.6762518171   -0.9709817879   -0.4483964431
 C   -2.5615460722   -0.0091179008   -0.0228012064
 H    0.8793940300    1.8095116828    0.2754747278
 H   -0.8363690292    1.7995807349    0.4098844721
 H   -0.2823762231   -2.6076504192    0.1217213882
 H   -2.5568915588   -3.5086184143   -0.7866389567
 H   -2.4474308403   -3.6287642563    0.9706054351
 H   -3.5600050799   -1.2178157137   -1.5165124249
 H   -4.6627621498   -0.5205322408   -0.3102862421
 H   -2.8167924850    0.4445361489    0.9454014630
 H   -2.4987591755    0.8079173519   -0.7527406582