17

 O   -0.2228372809    1.4276113455    0.0268202232
 C   -0.0847811171    0.0532271031    0.0237252142
 C   -0.3260611537   -0.7998175406   -1.1847067881
 C   -1.2139327847   -0.9696378601    0.0305733384
 C   -0.4751778978   -1.8092382122    1.0914550375
 O   -0.1261373426   -3.1114228155    0.7434593675
 C    0.6872558818   -0.7309005224    1.0870294015
 C   -1.2008648302   -1.7991651580    2.4149295793
 O   -1.4144560699   -2.8138478463    3.0344808589
 H    0.4744376428    1.8053513031   -0.5202745672
 H   -0.8153961852   -0.2825060541   -2.0037907198
 H    0.3608523508   -1.5882585803   -1.4781405103
 H   -2.2862366587   -0.8274608870   -0.0292748159
 H   -0.4492872223   -3.6740592777    1.4657120258
 H    1.6623097336   -1.1383178055    0.8069723208
 H    0.7718591376   -0.1870354326    2.0318395858
 H   -1.5234505236   -0.8058088093    2.7862522585