17

 O    0.0235129503    0.0426221028    0.6134154593
 C   -0.0123333964    1.1262263388    0.0986140045
 C   -1.3412254058    1.8584518702   -0.1465693237
 C   -1.2098827439    3.1633460954   -0.9633508483
 C    0.0253516013    3.9008316164   -0.4072840468
 C    1.1141552430    2.9929096068   -0.9830231675
 O    1.1542276467    1.7414358810   -0.2311172663
 C    0.5942708702    2.7199578404   -2.3836574822
 C   -0.7356992426    2.8197407079   -2.3676473029
 H   -2.0129202348    1.1362994070   -0.6193795833
 H   -1.7606429026    2.0649175153    0.8452717358
 H   -2.1385281654    3.7377005625   -0.9308635116
 H    0.1105737316    4.9070235305   -0.8252639991
 H    0.0598134978    3.9590824685    0.6841803317
 H    2.1324360296    3.3751516334   -0.9185642439
 H    1.2212247772    2.3996728674   -3.2055369727
 H   -1.4087017262    2.6000485858   -3.1882511629