19

 C   -0.0247679561    1.4983178175    0.1231646185
 C    1.3556832679    0.8641387547   -0.0232866816
 C    2.1815337150    0.2009191861    1.0795688984
 C    1.3892079756   -1.1238003198    1.2629032066
 O    0.0527450830   -0.6766004046    1.1485314765
 C    0.0924812206    0.0271727964   -0.0898746460
 C   -0.0436406860   -0.9787963527   -1.1987267991
 C    1.2491758489   -1.8340362068   -1.0587489596
 O    1.6314389462   -2.1225447010    0.2929775417
 H   -0.3854929272    1.7987930930    1.1013415878
 H   -0.3321297559    2.1412804644   -0.6959893674
 H    1.8633639324    1.0916639243   -0.9541599527
 H    3.2141960018    0.0319811670    0.7637214330
 H    2.1993820247    0.7481769683    2.0278926174
 H    1.5287995833   -1.6151484639    2.2287290155
 H   -0.9454332452   -1.5837757816   -1.0655975015
 H   -0.0694073435   -0.5278441056   -2.1957989106
 H    1.1419942444   -2.8092374428   -1.5423517807
 H    2.0669683600   -1.2980770127   -1.5619950161