16

 N    0.0388875989   -1.1774843620   -0.0124711667
 C    0.0112149394   -0.0242431792   -0.0754283997
 C    0.0102749501    1.4337957561   -0.1537690674
 C    1.3849493902    2.0304731670    0.2205113628
 C    1.4092578415    3.5456747363    0.0882368344
 C    2.6864910840    4.2344703232   -0.2688116705
 N    1.5912558831    4.1738468586   -1.2389688592
 C    0.4649898174    4.2357931405    0.9470756279
 N   -0.2896786749    4.7429555529    1.6608529971
 H   -0.2722026375    1.7309351934   -1.1701606510
 H   -0.7634965422    1.8264121683    0.5151272460
 H    1.6358472109    1.7442505029    1.2468470012
 H    2.1605081935    1.6102373388   -0.4281181384
 H    2.8899081345    5.2223120336    0.1311719402
 H    3.5587799988    3.6012870202   -0.4078365937
 H    1.7661271123    3.4486213594   -1.9316995327