17

 C    0.0713683161    1.5759465721   -0.1450626421
 C   -0.0122668540    0.0502364295   -0.0737295989
 C   -1.4512104839   -0.4498881853    0.1421870116
 C   -2.0576924401    0.0379557359    1.4484633985
 O   -3.1336197444    0.5720570412    1.5277845803
 C    0.8026902353   -0.7184296506   -1.1423816103
 O    1.6985725092   -1.2385327919   -0.1075305652
 C    1.0130415611   -0.5875202526    0.8830518207
 O    1.2311893123   -0.5980616959    2.0526042080
 H    1.0974682149    1.9111692652   -0.3217659140
 H   -0.5600155989    1.9559685154   -0.9548325093
 H   -0.2726850358    2.0280144520    0.7897516705
 H   -2.1002218675   -0.1321064689   -0.6800226585
 H   -1.4551292496   -1.5487629223    0.1744616336
 H   -1.4307834170   -0.1449618152    2.3468037090
 H    0.2877464735   -1.5355034416   -1.6518432034
 H    1.3543896488   -0.1040449772   -1.8567837503