17

 O   -0.4878424733    1.3995229605   -0.5823433438
 C   -1.0078062883    0.1070093992   -0.6625814244
 C   -0.7605967430   -0.6613341374    0.6218902083
 O   -0.1520042147   -0.1437030874    1.5350929368
 C   -1.2952285294   -2.0769237087    0.7520751009
 C   -2.4588301576   -2.1762856590    1.7746428155
 O   -3.3001134968   -3.1545404754    1.1913863503
 C   -3.2112236741   -2.9265693062   -0.1873506100
 O   -1.8633332467   -2.5616505066   -0.4590309916
 H   -0.0697539086    1.4548558252    0.2918078240
 H   -2.0926104894    0.1174171826   -0.8588708779
 H   -0.5645521670   -0.4666803893   -1.4921026793
 H   -0.4622846519   -2.7259684896    1.0490056145
 H   -2.1410977267   -2.5194222027    2.7588544557
 H   -2.9787822005   -1.2120138123    1.8776693719
 H   -3.4558250652   -3.8491970643   -0.7202405045
 H   -3.8865373967   -2.1107893886   -0.5007551165