17

 C   -0.0517493920    1.5879974604   -0.0736225693
 C    0.0402964916    0.0877971032    0.0905199849
 N    1.1969207751   -0.7395635641   -0.2543559271
 C    2.4464429495    0.0090690820    0.1532210531
 C    2.0183977695    0.1000218115    1.6371014410
 C    0.7301095500   -0.6000678893    1.2223138786
 C    0.1290667436   -1.7490319684    1.9226209306
 O    0.3936339053   -2.0614741024    3.0590642750
 H    0.7906558129    2.1258826435    0.3642088784
 H   -0.1072565254    1.8483518337   -1.1359884403
 H   -0.9645876372    1.9526103977    0.4073905286
 H   -0.8661646701   -0.4251087174   -0.2305307142
 H    3.3104034727   -0.6347154138   -0.0161699875
 H    2.5927366098    0.9466049337   -0.3903939524
 H    2.6194861525   -0.5220547910    2.3006860241
 H    1.9149062016    1.0920691618    2.0840664704
 H   -0.5989928693   -2.3259903212    1.3085693060