14

 O   -0.8335693967    1.0440894934   -0.5065462752
 C    0.2123509865    0.8017690851    0.0517132481
 C    1.3678124973    1.6599002429    0.0140275059
 C    2.3522120328    2.3610251452   -0.0062792829
 C    3.4967633955    3.2167691826   -0.0180692812
 C    3.8413236653    3.9213936597   -1.3158637471
 N    3.3151972561    4.6881030344   -0.2100036936
 C    4.6437976670    2.8921633976    0.9008816229
 O    4.7488829609    1.8762578419    1.5301472796
 H    0.3568409019   -0.1219014576    0.6464607796
 H    4.8905776766    4.0914859059   -1.5428114538
 H    3.2094793279    3.6864085930   -2.1668405547
 H    2.3242531530    4.8803065730   -0.3376675075
 H    5.3992754459    3.7066125228    0.9328541800