19

 O    0.0752049107    1.2507032770    0.5895816185
 C   -0.0617084593    0.0303587467   -0.1266007087
 C   -1.4795237459   -0.4376715469    0.0200320439
 O   -1.9356383174   -1.3783210204   -0.9698127154
 C   -2.6120133208   -0.1113678424   -0.8470837859
 C   -3.7714908023   -0.0671976911    0.1721404042
 C   -3.4838787279   -1.3114716502    1.0588009994
 C   -2.1849278390   -0.5293990246    1.3967602981
 C   -3.0734943637    0.7617829261    1.3100737141
 H    1.0100498727    1.4716254983    0.6290850213
 H    0.1626922513    0.1485476264   -1.1968996297
 H    0.6193461806   -0.7392496822    0.2712834778
 H   -2.5696083269    0.5390446100   -1.7146039392
 H   -4.7684137266    0.1689341565   -0.1989151697
 H   -4.1595922835   -1.3571481878    1.9146955583
 H   -3.3949440803   -2.2820465710    0.5744381862
 H   -1.5688838433   -0.7563646276    2.2661718934
 H   -2.5731154814    1.6929605508    1.0354999174
 H   -3.7102318869    0.9075111526    2.1867803459