13

 C   -0.0360087532    1.4972262630    0.0011840830
 C    0.0162713850   -0.0095598500    0.0436034106
 N    0.0790735685   -0.7038462816    1.1313613933
 O    0.0916718754    0.1176530287    2.2432735586
 C   -0.0023576645   -0.7568997654   -1.1628331790
 C   -0.0208269584   -1.3471672338   -2.2198882647
 C   -0.0439319602   -2.0259576153   -3.4877988798
 O   -0.0079916111   -3.2281312581   -3.6236648992
 H    0.8472767764    1.9173214106    0.4921957828
 H   -0.0845053586    1.8563867149   -1.0263757412
 H   -0.9086695809    1.8581619628    0.5543286150
 H    0.1395481593   -0.5132146616    2.9712134857
 H   -0.0988995578   -1.3453881442   -4.3616616451