18

 C    0.0776198605    1.5497397848   -0.0429967141
 C    0.0196719597    0.0567356110   -0.0507306991
 C   -1.0367231748   -0.7520898092    0.0525192928
 C   -2.4892525021   -0.4449164340    0.2111948579
 C   -0.5452702266   -2.1904739930    0.0036685138
 O    0.8473460080   -2.1253877839   -0.2428565950
 C    1.2757926521   -0.7644159227   -0.1742993692
 C   -0.8249987342   -2.9043262897    1.2739010826
 N   -1.0683621324   -3.4467400327    2.2648516160
 H    0.7079186858    1.9109664964    0.7790104431
 H    0.5220038527    1.9313739112   -0.9704769671
 H   -0.9108446124    2.0002786211    0.0681974449
 H   -3.0742364842   -0.8547530394   -0.6218810021
 H   -2.8869420933   -0.8946697774    1.1287695232
 H   -2.6740038181    0.6305426469    0.2537795887
 H   -1.0274224711   -2.7667101846   -0.8009937299
 H    1.8485778186   -0.5294376875   -1.0828093806
 H    1.9495696019   -0.6193309772    0.6851444841