19

 C    0.0726202412    1.5970554204   -0.1147672006
 C    0.1065924702    0.0795504271   -0.1136450258
 C    0.7362324143   -0.7411989516   -1.2673876763
 C    1.2411739766   -1.6965534943   -0.1132956199
 C    2.3564550874   -0.7355753769    0.0839503549
 N    1.0619881452   -0.5829752452    0.8490177805
 C    2.1766061309   -0.2163238833   -1.3210553288
 C    3.1195904944   -0.3472116512   -2.4465324060
 N    2.7351028811    0.9873952073   -1.9169617303
 H    1.0604657196    2.0266273540   -0.2964489943
 H   -0.6168003277    1.9672192527   -0.8823162479
 H   -0.2821096208    1.9596436174    0.8553376969
 H   -0.8832779327   -0.3216415958    0.1292530654
 H    0.1955659074   -1.0020278046   -2.1765671470
 H    1.1205951850   -2.7471789495    0.1122432960
 H    3.2595032510   -0.8292785910    0.6714025006
 H    4.1564488827   -0.6211684914   -2.2699899805
 H    2.7294081026   -0.6568805860   -3.4131933851
 H    2.0593427617    1.4276440320   -2.5373073619