25

 C   -0.0912018072    1.5772393045   -0.0188471903
 C    0.0426169102    0.0557166222   -0.0320066199
 C    0.9071288237   -0.5118474440   -1.1727180838
 C    1.1969342135   -1.9420377658   -0.7030677670
 C    1.5047896421   -1.7908828028    0.8050639310
 C    1.3896492169   -3.1158840473    1.6163515676
 C    2.9237150029   -3.3089066506    1.4859814213
 C    3.0371377089   -1.8076180166    1.1152835529
 C    0.6963044975   -0.5407489509    1.2417074124
 H    0.8916429745    2.0547154003    0.0737271814
 H   -0.5561619888    1.9469780292   -0.9393919495
 H   -0.7051017082    1.9175198201    0.8222488404
 H   -0.9617087514   -0.3779652014   -0.1369319553
 H    0.4158106084   -0.4635548608   -2.1497382401
 H    1.8429358332    0.0592738517   -1.2496177746
 H    0.2963668118   -2.5565998225   -0.8354777422
 H    2.0046835077   -2.4323913725   -1.2557451333
 H    1.0910093016   -2.9302448550    2.6531747315
 H    0.7409324308   -3.8943408444    1.2028077268
 H    3.4662870528   -3.6504589142    2.3705205202
 H    3.1856458752   -3.9623474661    0.6493739626
 H    3.7154822263   -1.5285416973    0.3026555930
 H    3.2753660297   -1.1932646787    1.9896039076
 H    1.3685259488    0.1961389754    1.6986423562
 H   -0.0530801710   -0.7878556825    2.0013848510