20

 C   -0.3364341319    1.4594482302   -0.3051018739
 C   -0.2133851760   -0.0472349814   -0.5391425789
 C    1.2540544011   -0.5232832524   -0.5373469412
 C    1.3886685330   -1.9560775714   -0.7725769720
 C    1.4550682778   -3.1395908921   -0.9790418016
 C    1.5546293757   -4.5681510880   -1.2242511365
 C    0.6497482785   -5.0677386665   -2.3700797133
 N    1.0033774094   -6.3044063466   -2.8373473204
 O   -0.3105750544   -4.4596850646   -2.7840793009
 H    0.0947209416    1.7497277691    0.6598100988
 H    0.1851639764    2.0270639212   -1.0840377861
 H   -1.3839836583    1.7752892184   -0.3094255676
 H   -0.7633349010   -0.5962716471    0.2331543261
 H   -0.6710723565   -0.3221664421   -1.4953888738
 H    1.8145817631    0.0298448667   -1.3034158853
 H    1.7197111858   -0.2605512425    0.4225583471
 H    2.5952194623   -4.8517381294   -1.4316738965
 H    1.2666465082   -5.1328235907   -0.3260085627
 H    1.8804987199   -6.7348826831   -2.6025079097
 H    0.4847826053   -6.6738895275   -3.6174329317