14

 N   -0.0994688789    1.4763394446    0.0044436506
 C    0.0160480378    0.0150499081   -0.0181662507
 C    0.6987748614   -0.5524065372   -1.2826895736
 O   -0.0705124691   -0.0869555088   -2.3763970534
 C    0.7018068855   -0.4651932928    1.1768475113
 C    1.2969367209   -0.8734056805    2.1454283466
 C    1.9680272193   -1.3339641143    3.2418703071
 N    2.5424837042   -1.7277160493    4.1715912259
 H    0.8286196461    1.8888246635    0.0585693282
 H   -0.4904912668    1.7589650860   -0.8908008329
 H   -1.0065272916   -0.3884580973   -0.0086805330
 H    1.7369721463   -0.1892872105   -1.3255812509
 H    0.7207093439   -1.6510132207   -1.2340252447
 H    0.3684944610   -0.3387102708   -3.1936857304