19

 C   -0.0963919598    1.2042787347   -0.3420126231
 C    1.1586945131    0.4955528578    0.0524193338
 N   -0.1167748776    0.0970919847    0.6112543487
 C   -0.6720849495   -1.1285351465    0.2376494435
 N    0.0397176212   -2.1484206851   -0.0160478539
 C   -0.6184753805   -3.4322777866   -0.2216825907
 C   -2.0691510651   -3.4543270180    0.2708415290
 C   -2.7470248116   -2.1744361953   -0.1952062855
 O   -2.0272758056   -1.0225630244    0.2639458050
 H   -0.3377944551    2.1798380583    0.0692738592
 H   -0.4841100074    1.0166057018   -1.3400991837
 H    1.6091713007   -0.1812614434   -0.6669563624
 H    1.8464772350    0.9587075259    0.7536004052
 H   -0.5801867657   -3.6814528716   -1.2919915473
 H   -0.0291506194   -4.2041693158    0.2868799122
 H   -2.6086199346   -4.3282336513   -0.1086590986
 H   -2.0964618301   -3.4954238671    1.3655878016
 H   -2.8025659542   -2.1424027559   -1.2922878608
 H   -3.7586812438   -2.0633538420    0.2019073078