21

 C   -0.0010585583    1.5711532800    0.1579076507
 C   -0.0611267946    0.0409626496    0.1451611374
 C   -1.4721659633   -0.5422863980   -0.1100661162
 C   -2.0182592997   -0.1862879424   -1.5064990376
 C   -1.4942333033   -2.0266510850    0.1270645345
 C   -2.1274653482   -2.7929209171    1.0879664242
 C   -1.7610660227   -4.1248862964    0.7990689890
 N   -0.9603578387   -4.2008332752   -0.2587167858
 N   -0.8139643867   -2.9160477292   -0.6462298966
 H    1.0050904013    1.9161817948    0.4149316753
 H   -0.2564494946    2.0035551900   -0.8142080933
 H   -0.6929440571    1.9863205755    0.8995121889
 H    0.6321766106   -0.3475111279   -0.6134121998
 H    0.2973243427   -0.3434160304    1.1067186892
 H   -2.1480050621   -0.1068959612    0.6363746356
 H   -2.1056606975    0.8958562269   -1.6348356470
 H   -1.3598796417   -0.5606318307   -2.2992259696
 H   -3.0073611434   -0.6262983226   -1.6602195790
 H   -2.7630972503   -2.4317083522    1.8806354813
 H   -2.0481894104   -5.0286496323    1.3167449027
 H   -0.2393275418   -2.7182415562   -1.4474093838