16

 C   -0.0086880419    1.5417772452   -0.1052106970
 C   -0.0292363549    0.0199897300    0.0410118137
 N   -1.3790278064   -0.5342648042   -0.0330910340
 N   -2.0408602297   -0.7890823767    1.0998161640
 N   -3.2395612659   -1.2249365740    0.7863222966
 C   -3.3522373275   -1.2463494002   -0.5579810892
 C   -2.1655717563   -0.8024701936   -1.1187628044
 C   -1.7687867174   -0.6507538207   -2.5162478375
 O   -2.5036102777   -0.8911075920   -3.4466214618
 H    1.0173258263    1.9067327619   -0.0046340200
 H   -0.3881817262    1.8566773745   -1.0814534691
 H   -0.6208846221    2.0077318612    0.6709739070
 H    0.5826234269   -0.4622584394   -0.7261948736
 H    0.3551734085   -0.2822855855    1.0168299413
 H   -4.2467322062   -1.5756912838   -1.0609127257
 H   -0.7287604396   -0.2964286626   -2.6836984403