14

 O    0.0022876638    1.4415405739   -0.0771782844
 C    0.0694751983    0.0816766738   -0.0304601021
 C    0.1796425046   -0.7920957269   -1.0975207776
 C    0.2951900717   -1.3405700763   -2.5132291008
 C    0.3257502616   -2.7654335313   -1.8185898806
 N    0.2096003040   -2.0243838689   -0.5557118535
 N    0.1320366814   -2.0943839014    0.7684503291
 C    0.0447477388   -0.7873323712    1.0967284182
 H   -0.0673498927    1.7756114077    0.8221326462
 H   -0.5672267517   -1.1751013684   -3.1629013116
 H    1.2089556966   -1.0835436381   -3.0537245019
 H   -0.5263647826   -3.4153865235   -2.0330820085
 H    1.2601434660   -3.3227955652   -1.9228316892
 H   -0.0337702899   -0.5029926242    2.1371997667