17

 C   -0.0981193093    1.6166439752   -0.0437013410
 C    0.1258397359    0.1110233642    0.0705676420
 C    1.3803757204   -0.7203136872   -0.1888197426
 C    2.6759383341   -0.1771163621    0.4734048268
 N    2.3911578278    1.1139184774    1.1594460384
 C    2.0393979363   -0.1772125406    1.8022223564
 C    0.7144215176   -0.7259660517    1.1769665132
 O    0.0507826874   -1.7856474645    1.7720063981
 H    0.6634398433    2.0930856459   -0.6626360947
 H   -1.0766426123    1.8083540112   -0.4983644783
 H   -0.0706735767    2.1095616240    0.9293728420
 H   -0.7096032897   -0.4637214995   -0.3311332482
 H    1.3962282070   -1.5038664231   -0.9357148086
 H    3.6833524553   -0.4457793355    0.1842887599
 H    3.2681609340    1.4236562496    1.5805190997
 H    2.4281112108   -0.4720595436    2.7685219991
 H   -0.6398980518   -1.4257974496    2.3403732077