16

 C   -0.2902410800    1.3377023218    0.7096033119
 O   -0.2498482549   -0.0713422276    0.6780302367
 C    1.0289342735   -0.5770574501    0.4052227724
 C    0.9631341332   -2.1048149551    0.5200079022
 N    2.1685123353   -2.7362249660   -0.0203488881
 C    2.6341915737   -3.4369261304    0.9267565228
 O    1.9768944981   -3.4548137009    2.1275245927
 C    0.8677379524   -2.6055168070    1.9626842663
 O    0.0961265610   -2.3994794618    2.8402686397
 H    0.0077388062    1.7754281134   -0.2558383055
 H   -1.3206004423    1.6258819412    0.9277048687
 H    0.3680313758    1.7445695848    1.4923399803
 H    1.3602093574   -0.3267665849   -0.6147907860
 H    1.7794175611   -0.1737270970    1.1053639876
 H    0.0780100489   -2.4362963601   -0.0354217764
 H    3.5287164207   -4.0474234704    0.8925425444