15

 N   -0.0996667237    1.1668521822    0.5656695064
 C   -0.0440758674    0.0425335325    0.0006447504
 N   -1.1282000437   -0.7442811957   -0.3627775918
 C   -0.6957509423   -2.0210491866   -0.8338725798
 C    0.0511963199   -2.0046994890   -2.1699036816
 C    0.8231497254   -1.8815561923   -0.8997801366
 O    1.1172367577   -0.6017834570   -0.4077375442
 C   -1.4069879700   -3.2156071197   -0.3462026529
 O   -2.3411299953   -3.1618503649    0.4172424426
 H    0.8331173190    1.5382126450    0.7260863404
 H   -1.9503190734   -0.7219493544    0.2228297718
 H    0.1368822378   -2.9502911061   -2.6959342119
 H   -0.0948170554   -1.1258254724   -2.7872427615
 H    1.5204225810   -2.6433356035   -0.5721713019
 H   -1.0271285200   -4.1790975181   -0.7489427693