23

 C   -1.4998743725   -0.3369953343    0.0900589677
 C    0.0175024172   -0.1454546283    0.0529740833
 C    0.7341796298   -0.6183098195   -1.2466394081
 C    0.6454840750   -2.1534053314   -1.3879937849
 C    0.1326783543    0.0307091574   -2.4172966668
 C   -0.3212133066    0.5951924869   -3.3793469167
 C    2.2320870227   -0.1534038838   -1.1611316028
 C    3.1247099233   -0.6678394913   -2.2920410722
 O    2.3139449054    1.2613042475   -1.0656045562
 H   -1.9845262639    0.1847331225   -0.7404100381
 H   -1.7891932649   -1.3915098665    0.0387752966
 H   -1.9065903860    0.0660309550    1.0227418664
 H    0.2605102709    0.9108003709    0.1934019211
 H    0.4786574862   -0.6869526106    0.8890629650
 H   -0.3939487154   -2.4871874955   -1.3535317639
 H    1.0707565207   -2.4968987003   -2.3328815713
 H    1.1861017927   -2.6364923497   -0.5665203238
 H   -0.7447332519    1.0732917615   -4.2281895696
 H    2.6180171704   -0.5214836995   -0.2026667787
 H    2.7095280676   -0.3999314285   -3.2697746013
 H    4.1114124128   -0.2069341544   -2.1989020113
 H    3.2501667509   -1.7533659151   -2.2586612655
 H    1.9091219313    1.6198634673   -1.8661792189