18

 C    0.0724368040    1.5033901687    0.1391922452
 C    0.0630225320    0.0219945944   -0.1606276721
 O    1.0361398800   -0.5759561942   -0.5584628138
 C   -1.2489783562   -0.7579013141    0.0323060287
 C   -1.7999912399   -1.1658937617   -1.3329411199
 C   -1.0739379085   -1.9560783209    1.0202138189
 N   -1.9496342027   -1.6497600497    2.1587821238
 C   -2.5139325465   -0.5527757325    1.8787725168
 O   -2.2328646624    0.0773098120    0.7091145821
 H    1.0454417087    1.9181754455   -0.1255580472
 H   -0.7255503890    2.0149610879   -0.4081226194
 H   -0.1301408755    1.6720695507    1.2020027029
 H   -1.0570041537   -1.7752430387   -1.8533112566
 H   -2.7169180705   -1.7479209381   -1.2051360808
 H   -2.0277101542   -0.2900418032   -1.9476729849
 H   -1.3773923130   -2.9031838343    0.5612291730
 H   -0.0368047719   -2.0708901615    1.3461705454
 H   -3.2350603106   -0.0354118506    2.5019352580