15

 C   -0.0941511445    1.4008051531    0.1038702014
 C   -0.0924291828   -0.0792342613    0.0110480960
 C   -1.0455678021   -0.9917679924   -0.3278337645
 O   -2.3253398727   -0.6717285170   -0.7323158309
 C   -3.3557896950   -1.1572986595    0.0134920543
 O   -4.4934991734   -0.9765884308   -0.2871556213
 C   -0.4551524966   -2.2956836407   -0.2622363166
 C    0.8282919247   -2.0783647434    0.1209205980
 O    1.0629972573   -0.7490136294    0.2850912320
 H    0.6299207520    1.8472846735   -0.5866127890
 H   -1.0876691305    1.7756762498   -0.1509574837
 H    0.1580893433    1.7414808320    1.1141480401
 H   -3.0035593786   -1.7156969712    0.8993453020
 H   -0.9228633454   -3.2414082995   -0.4842528004
 H    1.6654603843   -2.7290312633    0.3102184124