19

 C    0.1676397647    1.8071668398   -0.0099043940
 C    0.0470622712    0.2770340098    0.0631655163
 C    0.6393739716   -0.4394965181   -1.1678213024
 C   -0.0690166148   -0.0755402303   -2.4883721086
 C    0.4315143123   -0.8590271705   -3.6159107924
 N    0.8334396951   -1.4883874956   -4.4977415740
 C    0.8131826421   -0.2175813589    1.2972622304
 N    0.0856084331   -0.9424858403    2.1933807997
 O    1.9961470159    0.0180602984    1.4516916671
 H    1.2206212981    2.0938478862   -0.0718129921
 H   -0.3645801147    2.2159543488   -0.8731965541
 H   -0.2543178126    2.2725697354    0.8860236864
 H   -1.0129060795    0.0026536076    0.1516370499
 H    1.7040191267   -0.1983984946   -1.2368994109
 H    0.5718169794   -1.5231806283   -1.0231624480
 H   -1.1491373899   -0.2476001432   -2.4037027678
 H    0.0631418277    0.9851259245   -2.7244301753
 H   -0.8945106470   -1.1259089928    2.0752967918
 H    0.5499591607   -1.2898587478    3.0170827079