18

 O   -0.2370262310    1.3141710621   -0.4584158077
 C   -0.0183191192   -0.0177663698   -0.0124202304
 C   -1.2065890083   -0.8382299699   -0.4956748797
 C   -1.1641298369   -2.2917239334   -0.1209292351
 C   -2.2875666917   -3.2309990845   -0.5393347105
 C   -3.3648687817   -2.6199744308   -1.3038374805
 C   -4.2630202503   -2.1326709308   -1.9359485119
 N   -0.1616254456   -2.7063224008    0.5539087517
 O   -0.2520991928   -4.0812228431    0.8329937324
 H    0.5037657274    1.8510174897   -0.1633904459
 H    0.9141780004   -0.4341270063   -0.4187836749
 H    0.0538616194   -0.0725760716    1.0829350350
 H   -2.1333633320   -0.3948933721   -0.1097033520
 H   -1.2867996748   -0.7511807009   -1.5867711202
 H   -1.8417762959   -4.0586101190   -1.1064712835
 H   -2.6866664614   -3.7045271001    0.3671848365
 H   -5.0557573284   -1.7002421258   -2.4945606872
 H    0.5544175827   -4.2406170928    1.3338869637