19

 C   -0.3369245916    1.4706671842   -0.1198339758
 C    0.0289838558    0.0064426548    0.0481204797
 O    0.5252087664   -0.4751992177   -1.1867272705
 C    0.9078083096   -1.8274390207   -1.1436598287
 C    1.5620384154   -2.1656747668   -2.4569789575
 C    1.3604475972   -3.4866026193   -3.0945208194
 O    0.7058886762   -2.3359216944   -3.5951033840
 C    2.8551026880   -1.4733422379   -2.7805455320
 O    3.5770713440   -0.9710069129   -1.9603609854
 H    0.5411200861    2.0519823839   -0.4143684878
 H   -1.1020552160    1.5884301478   -0.8922237799
 H   -0.7246849407    1.8758583896    0.8194993030
 H    0.7922667966   -0.1169735447    0.8343077399
 H   -0.8522536275   -0.5813623415    0.3567732855
 H    1.6322444628   -2.0075636143   -0.3331855650
 H    0.0377250336   -2.4833455821   -0.9799995959
 H    2.1395364553   -3.9052038878   -3.7309543734
 H    0.7304489277   -4.2144861746   -2.5851241269
 H    3.0944449211   -1.4867101959   -3.8674438257