17

 C    0.1801257221    1.4802479342    0.0637316702
 C    0.0126125429   -0.0197547117    0.0566415992
 O    0.6250895569   -0.5929094173   -1.1006761058
 C    1.2033108919   -1.8195774361   -0.7127772546
 C    2.5261324719   -1.7223880291    0.0164871043
 C    1.2210232259   -1.8284739540    0.7758256424
 O    0.6521823348   -0.6067906367    1.1921057410
 C   -1.4578840323   -0.4726377841    0.0712797538
 O   -2.4035741186    0.2679987421    0.0869148932
 H    1.2433924470    1.7262344381    0.0527331626
 H   -0.3057953620    1.9120328540   -0.8131934071
 H   -0.2849732063    1.9013047817    0.9570175168
 H    0.9450266582   -2.6639734559   -1.3408602658
 H    3.1724096157   -2.5944384985    0.0036408040
 H    3.0269899386   -0.7612696575    0.0161894766
 H    0.9778078027   -2.6804968047    1.3996121503
 H   -1.5733351096   -1.5796683145    0.0659686390