19

 O    0.7441069487    0.1836162588    0.3803471773
 C   -0.2411756532    0.2408448452   -0.6152810242
 C   -1.5628666794   -0.4119905171   -0.1787642242
 O   -2.5809993410   -0.2696033462   -1.1682933786
 C   -1.3784567900   -1.8710381672    0.1817464948
 N   -0.2511481754   -2.4059670526    0.4886108723
 C   -0.5331447857   -3.8156993301    0.8161432825
 C   -1.9863155764   -4.0689667704    0.3244040252
 N   -2.4837670031   -2.6917817314    0.2308422084
 H    0.8354809805   -0.7635165178    0.5921876613
 H   -0.4367779338    1.2945344692   -0.8399712281
 H    0.0855926092   -0.2438009516   -1.5553708028
 H   -1.9396868681    0.1114418517    0.7076764591
 H   -2.1902591350   -0.4976186044   -2.0202916789
 H    0.1973778868   -4.4790442371    0.3456705388
 H   -0.4523180628   -3.9564989491    1.9016548314
 H   -2.0028010450   -4.5688161513   -0.6543041648
 H   -2.5779618237   -4.6651927649    1.0234683966
 H   -3.2577174025   -2.4579614036   -0.3729972760