21

 C    0.0276304700    1.4976814057    0.0199492385
 C    1.3732637780    0.8026548548   -0.0325454902
 C    2.2170062714    0.2226848613    1.1103838854
 C    1.5441119548   -1.1607839608    1.3370999574
 C    0.0701224197   -0.7307955257    1.3110413677
 C    0.0705831514    0.0000392449   -0.0449024473
 C   -0.0279865962   -0.9885167829   -1.1546594220
 C    0.7961738947   -2.0339698882   -1.0190536237
 C    1.7629367476   -2.1667089985    0.1534914966
 H   -0.3321480286    1.9360993345    0.9470548234
 H   -0.2374284151    2.0714167298   -0.8643062367
 H    1.8779387575    0.8969193031   -0.9880342270
 H    3.2696277368    0.1479684023    0.8201519395
 H    2.1761279782    0.8146513457    2.0334507639
 H    1.8639621807   -1.6305630486    2.2745239042
 H   -0.6415634323   -1.5593069692    1.3293412882
 H   -0.1589114095   -0.0593912702    2.1460258982
 H   -0.7203317226   -0.8880599604   -1.9859017653
 H    0.7965671622   -2.8469839639   -1.7409132972
 H    2.7967450736   -2.0879012126   -0.2146397219
 H    1.6800144879   -3.1898491710    0.5444918783