21

 C    0.0169889343    1.6415301082   -0.0525814728
 C   -0.0159703125    0.1197497850   -0.0815299424
 C    1.2274492509   -0.5531635864   -0.7192900576
 O    1.9470084921   -0.3081638387    0.5387601772
 C    0.6340679024   -0.5757415278    1.1429648618
 C    0.5107474765   -2.0923263404    0.8820848018
 C   -0.8506958219   -2.7037275363    0.4373770376
 C   -0.3768830540   -2.6856961580   -1.0496445489
 C    0.9865827333   -2.0742197586   -0.6112824415
 H    0.9989223555    2.0003237119    0.2646775516
 H   -0.1992547328    2.0552612334   -1.0436321101
 H   -0.7356201124    2.0348591545    0.6395066942
 H   -0.9990082286   -0.2367069867   -0.3990830273
 H    1.7287578820   -0.1510319757   -1.6011680228
 H    0.5300277140   -0.1966430294    2.1608984250
 H    1.0891293269   -2.6726504461    1.6018432494
 H   -1.0208829739   -3.7098557796    0.8271011802
 H   -1.7352236531   -2.1026690587    0.6659872687
 H   -0.2832096904   -3.6817849755   -1.4880216625
 H   -0.9703553948   -2.0735633339   -1.7344844363
 H    1.8787749865   -2.6426049013   -0.8763961552