19

 C   -0.0638637349    1.4195901912    0.1595722892
 C    1.4619072221    1.5393526572   -0.1093508615
 C    2.3073749241    0.3278082399    0.3202744566
 C    2.0280368200   -0.6308044643    1.4845321556
 O    1.7976248231   -1.9864708140    1.0987834567
 C    0.6955474667   -2.2848230623    0.2043931697
 C   -0.3246114906   -1.1777241257    0.2069055041
 C    0.0669259015   -0.0179142448   -0.3135369023
 C    1.4452569778    0.2423608151   -0.9008526399
 H   -0.4497516811    1.5813674567    1.1718942640
 H   -0.5997672793    2.0729094795   -0.5380912497
 H    1.9553859198    2.4689700753   -0.3681831601
 H    3.3623178310    0.4866970502    0.1078327183
 H    2.9094027125   -0.6913627748    2.1298393542
 H    1.2063792644   -0.2539537453    2.1048685993
 H    1.0971834778   -2.4426069844   -0.8048065488
 H    0.2863901674   -3.2378998492    0.5529090166
 H   -1.1828036379   -1.2391758293    0.8710754210
 H    1.7969269855    0.0188727791   -1.8999321527