11

 O   -0.0026899532   -0.0636416089   -0.0027167857
 C   -0.0144893951    1.1386172132    0.0087648209
 C    1.2143602806    1.9696557069    0.0025813017
 C    1.3869663878    3.3349081567    0.0131332117
 C    0.3977411918    4.4249353619    0.0343409454
 O    0.6850866892    5.5942695825    0.0418631622
 N    2.7534419656    3.5483750426   -0.0004062878
 N    3.3738257997    2.4671290671   -0.0171116759
 O    2.4011482162    1.3877434687   -0.0162687814
 H   -0.9525927912    1.7264384333    0.0249966195
 H   -0.6579793815    4.0813140259    0.0429998994