17

 C   -0.8766797844    1.2060661381    0.4305350582
 C    0.0427139659    0.0613663513    0.0822448107
 N    1.4705523212    0.3320433671   -0.0227438421
 C    1.0159758223   -0.5904408984    1.0312956899
 C    1.2010926931   -0.2256439387    2.4640033701
 O    1.2711976846   -1.0394487199    3.3476601287
 O    1.2666593379    1.1276092599    2.6639145282
 C    1.4584053575    1.5795318170    3.9463697345
 N    1.4151715994    2.8208785635    4.1421887717
 H   -0.3986276037    1.9014612462    1.1196530030
 H   -1.1435257507    1.7518031500   -0.4806989480
 H   -1.8027110408    0.8333766860    0.8809492798
 H   -0.3773880248   -0.6478686256   -0.6317723003
 H    1.9011255146   -0.1979392064   -0.7754947783
 H    1.1681155901   -1.6577891208    0.8990776254
 H    1.6336384948    0.7738179768    4.6590354081
 H    1.5842331429    3.0192576239    5.1274435204