18

 C    0.1111648537    1.5637071259    0.3270773383
 C    0.2241547602    0.0859756020    0.0505186609
 N    1.3484972619   -0.4728538120   -0.1165393228
 N   -1.0422166264   -0.5547261679    0.0073293216
 C   -1.2922473178   -1.8849251024   -0.2298294859
 O   -0.4222634611   -2.7190261214   -0.4247744239
 C   -2.7447217413   -2.2606806592   -0.2328960942
 C   -3.1871711536   -3.1725121799   -1.3332329529
 N   -3.0570972847   -3.6701433147    0.0307887374
 H    1.1114192504    1.9935614077    0.3484137373
 H   -0.4791016393    2.0671068994   -0.4477677870
 H   -0.3794463767    1.7489501031    1.2899566875
 H    1.2325003154   -1.4716263316   -0.2918492867
 H   -1.8474549803    0.0336389655    0.1582078075
 H   -3.4484334178   -1.5434151543    0.1824443009
 H   -4.2036201235   -3.0882994146   -1.7061681759
 H   -2.4337225285   -3.4547136416   -2.0626152640
 H   -2.1638528605   -4.1575619541    0.1128055118