18

 O   -0.9039316341    0.1313943399   -0.1385640208
 C   -0.5457196744    1.2628134955   -0.0418661881
 C   -1.2367095620    2.6220439636    0.1677010870
 C    0.1731396271    3.2017587440    0.0806882606
 C    1.1161611433    2.5823556012    1.0245175822
 C    0.7955758820    2.0744579150    2.3904196763
 C    1.8525710003    1.3112089786    3.1532298867
 C    1.4853814529    2.7067679132    3.5788687693
 N    0.7827980249    1.8187563813   -0.2349543770
 H   -1.8618562854    2.8770192739   -0.6919553440
 H   -1.8114771712    2.7714590357    1.0845618740
 H    0.4436231741    4.0510248704   -0.5359353722
 H    2.1374344937    2.9511712736    0.9421736726
 H   -0.2276896222    1.7525354690    2.5501934796
 H    1.5304994931    0.4783985125    3.7672812448
 H    2.8110688776    1.1618229558    2.6679415780
 H    2.1972727105    3.5027377376    3.3861970275
 H    0.9076721896    2.8398618693    4.4863474934