23

 C   -0.1096855944    1.5866360396   -0.0046948297
 C   -0.0574157260    0.0566635616    0.0211529860
 C    0.7474562304   -0.4964359223    1.2017167137
 C    0.8111584713   -2.0256158079    1.2251949199
 C    1.5603366907   -2.5755181069    2.4551534669
 O    0.9624410873   -2.1390632829    3.6782435011
 C    1.6766428206   -4.0355392385    2.4029337727
 C    1.7213139361   -5.2388083737    2.3605585927
 C    1.7982299281   -6.6918726853    2.3151278962
 H    0.8955812858    2.0156038920   -0.0828846562
 H   -0.6947250276    1.9533301892   -0.8540423117
 H   -0.5652145156    1.9820384715    0.9100316834
 H   -1.0791854768   -0.3441967384    0.0608636671
 H    0.3739401001   -0.3117106273   -0.9193686244
 H    1.7692448687   -0.0922437760    1.1661058351
 H    0.3149346451   -0.1454654907    2.1455828364
 H   -0.2026117609   -2.4489843987    1.2223784938
 H    1.3054184309   -2.4032602244    0.3214728962
 H    2.5656512355   -2.1342991901    2.4735328050
 H    0.1688199054   -2.6697173436    3.8096264477
 H    1.6253348423   -7.1284269413    3.3049991718
 H    1.0530463407   -7.1126899079    1.6311500924
 H    2.7855306323   -7.0245658079    1.9762139738