21

 C    0.1400564021    1.4852344406    0.2236378112
 C   -0.1171897126    0.0060372101   -0.0965326258
 C    0.6203415286   -0.4717009621   -1.3180361751
 C    2.0563383387   -0.9506442023   -1.3173588800
 C    0.9754647142   -1.9202035446   -1.7397387111
 C    0.6646243271   -3.2102294473   -1.0358325598
 C    0.5531001251   -1.5703338539   -3.1540945913
 O   -0.8121840120   -1.1216131706   -3.1396291541
 C    0.2170174184   -0.1942294477   -2.7551530003
 H    1.2027844838    1.6691610385    0.4131863558
 H   -0.1648040256    2.1284360669   -0.6087625586
 H   -0.4209601467    1.7999924735    1.1089493128
 H    0.1715920537   -0.6084778322    0.7654350365
 H   -1.1912410413   -0.1590141696   -0.2470641483
 H    2.7721717332   -0.5670062005   -2.0402057850
 H    2.4847953941   -1.1325448926   -0.3346712455
 H    0.8133378508   -3.1206897078    0.0451785952
 H   -0.3754538246   -3.5042624615   -1.2104585077
 H    1.3101034513   -4.0236237146   -1.3880918363
 H    0.9370385842   -1.9423589758   -4.0975050688
 H    0.2863752075    0.7247241034   -3.3262312638