15

 O    0.0257150372    0.1310440866   -0.5334009985
 C   -0.0042334507    1.2394886278   -0.1048361436
 C   -1.1092334461    2.1651829541    0.4255086099
 C   -0.0297326333    3.2299444500    0.6905926145
 C   -0.1563224204    4.6990791475    0.6043277175
 N    0.1326581394    4.0295135327    1.8874544096
 C    1.1048540361    2.3289807580    0.1258984171
 C    2.1950831466    1.9689768665    1.0093310586
 N    3.0521349152    1.6625142124    1.7216903779
 H   -1.8781978892    2.4143202414   -0.3119933718
 H   -1.5993460426    1.7641264472    1.3197029136
 H    0.6606148080    5.2977160010    0.2105346090
 H   -1.1479237484    5.1121336305    0.4352055802
 H   -0.6981122840    3.9829886326    2.4721345677
 H    1.5004371622    2.6827237218   -0.8330595018