18

 O   -0.0561001953    1.3640754619   -0.5086306891
 C   -0.0151786343    0.0179693660   -0.0711412213
 C    0.0806012515   -0.2314735420    1.4766945663
 C   -1.1273349148   -1.2081136255    1.3844650965
 C   -1.4101232621   -0.6465275641   -0.0086534277
 C   -2.6305970757   -0.0120514727   -0.5466464553
 N   -2.1345323542   -1.2965169256   -1.0839101335
 C    0.9506348512   -0.7556125381   -0.8463117219
 C    1.7532828566   -1.3687952255   -1.4998009633
 H    0.8332016952    1.6202539283   -0.7759449779
 H    1.0251213135   -0.6269734346    1.8518560417
 H   -0.1691626973    0.6955077378    1.9968140718
 H   -0.8222705596   -2.2570828869    1.3482330567
 H   -1.9141213233   -1.0917800737    2.1319302449
 H   -3.5629659150   -0.0807408341    0.0081150708
 H   -2.5033640572    0.8908281220   -1.1360130718
 H   -1.6486073396   -1.1514723889   -1.9671001042
 H    2.4598981205   -1.9183286744   -2.0718396827