16

 O   -0.0899073353    1.3901694317    0.2162861140
 C    0.0224519179    0.0095498048    0.0152106684
 C   -0.4554089756   -0.5793569229   -1.3174598688
 C   -1.2567392402   -0.7727645781   -0.0516391627
 O   -1.3771815230   -1.9829071508    0.6267712255
 C   -0.1985591557   -2.7773512797    0.7198988311
 C    1.0329199130   -1.9764447401    1.0456870720
 C    1.1243925852   -0.6860732334    0.7234862243
 H    0.5590095334    1.8262328850   -0.3476628058
 H   -0.8668526259    0.1171900805   -2.0407110985
 H    0.1139296331   -1.4009541630   -1.7371255269
 H   -2.1770194052   -0.2074054169    0.0384656700
 H   -0.4047116380   -3.5063355030    1.5104930084
 H   -0.0568244515   -3.3548164953   -0.2104265962
 H    1.8420722497   -2.4903862661    1.5552093445
 H    1.9962922681   -0.0929412126    0.9857220207