20

 C   -0.0001622910    1.6143199988   -0.0174060164
 C    0.0412641763    0.0954320608    0.0210040729
 C    1.0682629814   -0.6837914640   -0.8196066224
 C    1.1074690583   -1.8361403922    0.2253074348
 C    2.6076100825   -1.5267088873    0.4518648983
 C    2.2023911176   -0.2785682620    1.1379893984
 N    2.4592314436   -0.2679640362   -0.3421480347
 C    0.7030066188   -0.6584952672    1.2136057579
 C    0.0526431828   -0.8476694784    2.5585136072
 H    1.0014814463    2.0346338057    0.1135100635
 H   -0.3897405832    1.9748027802   -0.9756768605
 H   -0.6452323312    2.0153200227    0.7723383848
 H   -0.9530549938   -0.3367703084   -0.1557089647
 H    1.0074425177   -0.7987188166   -1.9011920277
 H    0.5912115393   -2.7911642695    0.1685193666
 H    3.5176117390   -2.1142681144    0.4708697575
 H    2.7705113968    0.4073450177    1.7552242299
 H   -0.0373915386    0.1068945347    3.0912774802
 H   -0.9530670583   -1.2700790690    2.4602469666
 H    0.6408347155   -1.5224987553    3.1908503977