18

 C    0.0307805040    1.4484876228   -0.2356179281
 C    0.1212588338   -0.0478061394    0.0643020966
 C    0.7947367153   -0.3232028278    1.4166788116
 O    0.0491718303    0.2200997805    2.4875968391
 N   -1.2298854675   -0.6186365467    0.1471967420
 C   -1.9172822929   -0.9017153999   -1.1051930217
 C   -1.3899938646   -2.0110239340   -0.2635530626
 H    1.0322718747    1.8738381853   -0.3519991303
 H   -0.5264775057    1.6328945010   -1.1587425901
 H   -0.4692616272    1.9666312691    0.5858167153
 H    0.7114931949   -0.5453101932   -0.7275387910
 H    0.9293524517   -1.4115136064    1.5351891579
 H    1.7882469827    0.1372153447    1.4440846868
 H   -0.8703587694   -0.0087066334    2.2948037775
 H   -2.9803506301   -0.6796795078   -1.1280569997
 H   -1.3879369556   -0.6906609488   -2.0329731472
 H   -0.5099861547   -2.5376294362   -0.6293905154
 H   -2.0613204698   -2.6131017497    0.3417239394