17

 C   -0.0122964449    1.5062045887   -0.1930621747
 C   -0.0112407675    0.0303475131    0.1565205578
 N   -0.0377556054   -0.4663542212    1.3359541633
 N    0.0230158440   -0.7756183642   -0.9588022855
 C    0.0346671432   -2.1648458121   -1.0155841467
 N    0.0697144933   -2.7303278969   -2.2226993807
 N    0.0727029284   -4.0559817886   -1.9573669533
 C    0.0407187501   -4.3305034339   -0.6339435053
 C    0.0150059528   -3.1211003794    0.0276336135
 H    0.8860903476    1.7751054487   -0.7599331989
 H   -0.8809309924    1.7621899661   -0.8100526660
 H   -0.0424411026    2.1130112652    0.7129106593
 H   -0.0605364756    0.2803923133    2.0261085117
 H    0.0427768374   -0.3316432104   -1.8625326097
 H    0.0971256926   -4.7023682831   -2.7257554576
 H    0.0386733554   -5.3443179182   -0.2653732848
 H   -0.0134303163   -2.9219887068    1.0819983578