18

 C    0.1165309188    1.3424350650   -0.2477368628
 O   -0.2950730016    0.0452196255    0.1982713999
 C    0.5309430583   -0.5192702158    1.1118923464
 C    1.8763278805   -0.8034801901    1.1397785410
 N    2.8450790699   -0.4866665357    0.1631122149
 N    2.1960765732   -1.4188977764    2.3248731230
 C    1.0663583869   -1.5189483275    2.9926652879
 N    0.0135684154   -0.9932297358    2.3051253147
 C   -1.3774491610   -0.9552933699    2.7013042199
 H    1.1340260395    1.3122827254   -0.6499872074
 H   -0.5885617130    1.6366471969   -1.0274938999
 H    0.0797116728    2.0664196029    0.5753123166
 H    2.7084795209   -1.0202186625   -0.6897312269
 H    3.7616638650   -0.7198789211    0.5300819578
 H    0.9428604486   -1.9648306920    3.9684256803
 H   -1.4572172814   -1.3117393398    3.7299090435
 H   -1.7666526304    0.0650992944    2.6484100226
 H   -1.9907683725   -1.5915689134    2.0558611286