20

 C   -0.0498739296    1.5467084954    0.0596855589
 C   -0.0055607748    0.0451581124    0.0154329586
 C   -1.2612815226   -0.8461457700    0.0632930204
 C   -0.5036381866   -1.8561497252    0.9813078365
 C    0.7371404623   -0.9557880662    0.9195694709
 C    1.1840610465   -0.7169469907   -0.5081372426
 C    1.1813975064   -1.7717033738   -1.5907022231
 O    2.2990716833   -2.6458720058   -1.4828499690
 H    0.9433852094    1.9692577625    0.2437278450
 H   -0.4136499827    1.9625508917   -0.8882782800
 H   -0.7184087087    1.9021384887    0.8526881285
 H   -2.0834525590   -0.3563174987    0.5916904655
 H   -1.6448515055   -1.2174261984   -0.8921227999
 H   -0.9370386202   -1.9072887191    1.9822769221
 H   -0.3899977876   -2.8798734653    0.6086372356
 H    1.3980807358   -0.7493678365    1.7543716016
 H    2.0772106765   -0.0950275135   -0.5487419275
 H    0.2388485582   -2.3374066651   -1.5924748269
 H    1.2714366117   -1.3004916534   -2.5757415679
 H    2.3117892671   -2.9739548288   -0.5774006467