20

 C   -0.1710086351    1.3603258430   -0.4862880253
 C   -0.1005480022   -0.1041004107   -0.1958503306
 C   -1.0696426268   -0.9711581714    0.1137013350
 C   -0.4551539596   -2.3246039651    0.3892622653
 O    0.9379285388   -2.1754559465    0.1479251160
 C    1.2248798410   -0.8227862338   -0.1767732410
 C   -2.5307791734   -0.7671340715    0.2587683609
 C   -3.3321178699    0.0110942296   -0.7204642665
 N   -3.4682845573   -1.4542616284   -0.6646349022
 H    0.4756586553    1.9202472436    0.2011303365
 H    0.1877604808    1.5833945435   -1.4993273843
 H   -1.1855994274    1.7488749570   -0.3869301743
 H   -0.6320196346   -2.6493364693    1.4287263122
 H   -0.8610251517   -3.1150745908   -0.2616236016
 H    1.7405511445   -0.7727363765   -1.1500820490
 H    1.9117522595   -0.3868838766    0.5690239626
 H   -2.8929581342   -0.7973074160    1.2866107784
 H   -4.2053872512    0.5640313770   -0.3857606043
 H   -2.8177179671    0.4480283901   -1.5708301574
 H   -2.9353602393   -1.8616118272   -1.4307794704