16

 C   -0.0970272038    1.5249212246   -0.1011556472
 C    0.0386502188    0.0277220534    0.0653062585
 C    1.3116766095   -0.7463029521   -0.1521977350
 O    2.4529907398    0.0104070456    0.2913017413
 C    1.9970098656   -0.0655573429    1.6633562487
 C    1.9762676993    1.2134153085    2.3748445710
 N    1.9418302880    2.2032334908    2.9708023584
 C    0.6785356496   -0.7232314536    1.2200917609
 O    0.0765030019   -1.7269052819    1.9378324746
 H    0.8494648728    2.0339042408    0.0890147055
 H   -0.4016435737    1.7596967266   -1.1260779291
 H   -0.8493583995    1.9387024242    0.5772363460
 H   -0.8132311975   -0.5559674144   -0.2841250594
 H    1.4833615331   -1.5289360478   -0.8802879406
 H    2.6093878636   -0.7799314412    2.2263682441
 H   -0.7065503575   -1.3714813107    2.3732980923