19

 C   -0.9517103920    1.1605983646    0.1310861019
 C    0.1924626592    0.1483551860   -0.0138410814
 N    0.8963196375    0.4452839535   -1.2697153279
 C    1.8082384708   -0.4119733035   -1.8659668492
 O    1.8348066808   -0.5975911396   -3.0703198083
 N    2.6871564066   -1.0449885817   -1.0015844325
 C    3.3121466495   -0.3772239765    0.1389873650
 C    2.3896799047   -0.0108483213    1.2668935379
 C    1.0789805489    0.1935108826    1.2066546310
 H   -0.5575004827    2.1794565215    0.1953005221
 H   -1.6340544803    1.1037944205   -0.7233963327
 H   -1.5309508170    0.9544197405    1.0349828042
 H   -0.2590366782   -0.8572936531   -0.0684134910
 H    0.2806964200    0.8031169165   -1.9878594917
 H    3.3342687930   -1.5988494673   -1.5453731058
 H    4.0608162542   -1.0750532917    0.5297570388
 H    3.8727276329    0.5199564308   -0.1759509151
 H    2.8860063392    0.0967318646    2.2286307030
 H    0.5511538327    0.4150884536    2.1314746415