14

 O    0.2151930691    1.3807004066    0.2072215241
 C    0.0762817855    0.0347945082    0.0541692200
 C    0.8912296251   -0.9861136591   -0.7640092195
 C    0.8211856892   -1.0561111922    0.7532233541
 N   -0.3725857524   -2.0110544661    0.7072422250
 C   -0.3380020594   -1.9209180633   -0.7719377318
 C   -1.1653652488   -0.9147591733   -0.0140533594
 C   -2.6283712779   -0.8103648828    0.0963247965
 O   -3.3706169383   -1.7605902217    0.0164294823
 H    0.0615662004    1.8139955299   -0.6410738351
 H    1.7287832601   -0.8357077785   -1.4291561123
 H    1.5770530331   -1.0531225620    1.5266946657
 H   -0.6897251468   -2.7172476776   -1.4173544239
 H   -3.0154526889    0.2218467118    0.2424342143