17

 C   -0.1593252409    1.5073662528   -0.0694988754
 C    0.0403646465    0.0202502386    0.0955230392
 O    0.1760760961   -0.5182942788    1.1690236705
 C    0.0303857915   -0.7961501808   -1.2009831165
 C    0.4902520099   -2.2513054888   -1.0727220181
 O   -0.2577477943   -2.9878789880   -2.0469183544
 C   -1.5550274587   -2.4448360454   -2.0880479280
 C   -1.4046134325   -0.9588441676   -1.7596306960
 O   -2.2327166992   -0.1000277422   -1.8989957641
 H    0.6758040203    1.9357157206   -0.6362708839
 H   -1.0685483259    1.6840870032   -0.6548358239
 H   -0.2261587239    1.9886915881    0.9065487792
 H    0.5932855683   -0.2541552051   -1.9709376871
 H    1.5480181541   -2.3993225307   -1.2947982650
 H    0.2860167121   -2.6111526552   -0.0559344812
 H   -1.9937378796   -2.5981871049   -3.0776712072
 H   -2.2273476936   -2.8950449358   -1.3361597778