15

 C    0.0103588972    1.4313578409   -0.0362956101
 O   -0.0061372420    0.0122467613    0.0127014664
 C    0.5751642783   -0.6438231010   -1.0050972046
 C    0.6882595421   -2.0036130250   -1.1867395367
 C    1.3855724869   -2.1337434283   -2.4163082291
 N    1.6825894396   -0.9460238901   -2.9566906580
 N    1.1758181432   -0.0520088886   -2.0737194095
 C    1.7565658842   -3.3450310405   -3.0553301024
 C    2.0545595551   -4.3921464779   -3.5676309848
 H    1.0373397796    1.8195514658   -0.0340817146
 H   -0.5239848712    1.8071547214   -0.9186996640
 H   -0.5018181108    1.7738410436    0.8628763213
 H    0.3261280476   -2.7807370160   -0.5370292411
 H    1.2797170408    0.9278286181   -2.2694646078
 H    2.3225177995   -5.3100839335   -4.0286265349