20

 C   -0.0821477681    1.3736454267   -0.0827871437
 N   -0.0470474859   -0.0816120264   -0.0846357854
 C   -1.1218593779   -0.7246054434   -0.0001790835
 O   -2.4078127631   -0.2156683134    0.1000681264
 C   -3.1914520585   -1.4424962896    0.1620976440
 C   -2.5642233911   -2.2958280949   -0.9597539915
 C   -1.3277040548   -2.2247911210    0.0168421141
 C   -0.1131069041   -3.1089336454   -0.0775987766
 C   -2.3973825030   -2.2945137682    1.1738589428
 H    0.5236436635    1.7447099119    0.7517634523
 H    0.3866400927    1.7436237034   -1.0017512336
 H   -1.0883736398    1.8007660658   -0.0044256059
 H   -4.2465345781   -1.1924022161    0.2444476504
 H   -2.9821278139   -3.3022655088   -1.0269882963
 H   -2.4713681975   -1.8383444114   -1.9473193578
 H    0.4344800268   -2.9117771510   -1.0040484450
 H    0.5718656824   -2.9106418744    0.7521744937
 H   -0.3910101401   -4.1671262180   -0.0551762704
 H   -2.1521916280   -1.8358326231    2.1344276957
 H   -2.7996634016   -3.3008266227    1.3064685903