20

 C    0.0093178518    1.5825870145   -0.0188017097
 C    0.0208020464    0.0526520204   -0.0250164420
 C    0.7565841893   -0.4950603619   -1.2546356122
 O    0.7930869676   -1.9143467988   -1.2738792456
 C    1.4669049321   -2.4539102364   -0.1640389093
 C    0.7865959346   -2.0633769237    1.1681519715
 C    0.6678349709   -0.5215875875    1.2452624728
 C   -0.5241660010   -2.7069520641    1.2986556918
 N   -1.5566128541   -3.2130074786    1.4168929235
 H    1.0272907523    1.9876543971    0.0229199664
 H   -0.4712483375    1.9790529557   -0.9191826889
 H   -0.5373970124    1.9674506573    0.8477058449
 H   -1.0134989956   -0.3115430224   -0.0760512894
 H    0.2541468708   -0.1944208832   -2.1784399812
 H    1.7854646409   -0.0924909264   -1.2815149494
 H    1.4761469570   -3.5384565338   -0.2964298186
 H    2.5105612854   -2.0973402993   -0.1253151017
 H    1.4106001410   -2.4253311678    1.9945485527
 H    1.6828516561   -0.1166573646    1.3538310251
 H    0.1064012045   -0.2270486166    2.1371177994