18

 C   -0.0486922556   -1.3887993498   -0.3595013330
 C   -0.0066504299   -0.2021581755   -0.1699916096
 C    0.0618356237    1.2287214777    0.0616287348
 C   -0.8215881529    1.9952859385   -0.9560640354
 C   -2.2469656687    1.7033814080   -0.8156550897
 N   -3.3744701167    1.4856004949   -0.6882234191
 C   -0.1634442049    1.7260155507    1.5332308786
 C    1.0594980902    2.6687292584    1.3844863559
 C    1.4962426257    1.8640002941    0.1325174379
 H   -0.0976144584   -2.4369115431   -0.5241047526
 H   -0.6781797343    3.0737757878   -0.8253929181
 H   -0.5063396770    1.7473981984   -1.9750124606
 H   -1.1384875036    2.1705767479    1.7448237143
 H    0.0162525577    0.9197745051    2.2461295285
 H    0.7741957933    3.6971068477    1.1480578015
 H    1.7626764684    2.6953564217    2.2183094705
 H    2.2438098492    1.1039366863    0.3650559176
 H    1.8226308736    2.4195030711   -0.7507241116