19

 O    0.3518472082    0.6029429954    0.9243642758
 C   -0.0365800342    0.2290769212   -0.3966168878
 C   -1.3886406709   -0.4515943584   -0.4132356354
 C   -1.8952599245   -1.4644020322   -1.4286328147
 C   -0.8235465003   -2.4597367748   -1.8524243256
 O    0.2219702180   -1.9053173300   -2.6259581468
 C   -0.5561723319   -2.8255405853   -0.3479217508
 C   -1.6768595751   -1.8521149027    0.0371219075
 O   -2.6625935917   -2.1498471130    0.9622187284
 H   -0.2604152882    1.2801419282    1.2289268888
 H   -0.0521077799    1.1012086221   -1.0679878603
 H    0.7425447804   -0.4363083728   -0.7671561971
 H   -2.2057084243    0.2098501863   -0.1205006023
 H   -2.8195537199   -1.2901278832   -1.9657898272
 H   -1.2779655942   -3.3116070130   -2.3749930096
 H    0.8445100527   -2.6086630497   -2.8371231304
 H   -0.8174033469   -3.8614851498   -0.1209900465
 H    0.4429892549   -2.6070919196    0.0402819059
 H   -2.3587316423   -1.8490423484    1.8258894881