14

 N   -0.0136071396    1.3579486522   -0.1611598309
 C   -0.0359179959    0.1178753486    0.0381233678
 O    1.1642472022   -0.5990309500    0.0665205634
 C    1.5144475832   -1.5483309387    0.9558428560
 C    0.7475467248   -2.2582486940    1.8013653248
 C   -0.6882760461   -2.2915309316    1.8825277382
 C   -1.6013410892   -1.6370275073    1.1314837474
 C   -1.3740304825   -0.6209597128    0.1058202724
 O   -2.2531532446   -0.2720136062   -0.6548216109
 H    0.9476558253    1.7030702381   -0.2004572246
 H    2.5870624250   -1.7044550196    0.9116647358
 H    1.2905316052   -2.9403347323    2.4459607968
 H   -1.0801642118   -2.9966411006    2.6114989801
 H   -2.6548923661   -1.8583853557    1.2695254636