15

 O   -0.9400414231    1.2544493343   -0.1686946404
 C    0.1850265124    0.8704193258    0.0548408415
 C    1.3771874243    1.7640897148    0.0174562095
 C    1.2534773901    3.0666590951   -0.2939991902
 C    2.4188807611    3.9993217848   -0.3015365086
 O    3.5322514746    3.5044766546    0.4066809107
 C    3.8812167879    2.1779061462    0.0605342066
 C    2.7267459866    1.1922708629    0.2400082183
 O    2.9208173671    0.0179179740    0.4744659647
 H    0.4069609469   -0.1832845405    0.3033215925
 H    0.2709402969    3.4562793712   -0.5540197882
 H    2.6793171641    4.2360325589   -1.3525845537
 H    2.1462329646    4.9496585143    0.1710819515
 H    4.2238363728    2.1111401480   -0.9882433914
 H    4.7103225136    1.8802550054    0.7051411172