17

 C   -0.0171784278    1.5277164443   -0.0098225715
 C   -0.0071094733    0.0319264401    0.0446143207
 C   -0.0299884341   -0.8249422083   -1.0197163616
 O   -0.0114638739   -2.1454622046   -0.6270732388
 C    0.0235749257   -2.1047903448    0.7181095872
 C    0.0283142757   -0.8302446338    1.1955884524
 C    0.0670772498   -0.9131556785    2.6584220606
 C    0.0845103134   -2.2132843974    3.0200101649
 C    0.0580848354   -3.1298275119    1.7991626232
 H    0.8768297580    1.9524677606    0.4610931712
 H   -0.0517706837    1.8857676066   -1.0425677027
 H   -0.8844154214    1.9424787289    0.5166881398
 H   -0.0592263200   -0.6628762944   -2.0849490811
 H    0.0797692432   -0.0706249728    3.3379596506
 H    0.1133776812   -2.5970276001    4.0308414647
 H   -0.8185719889   -3.7907015042    1.8053135410
 H    0.9418251106   -3.7800038397    1.7592350794