18

 C    0.0049651935    1.5639467420   -0.0488505781
 C    1.5341160607    1.5173406537   -0.1355048234
 N    1.9911930656    0.8349387520    1.1014734066
 C    1.5343482972    0.0311185423   -0.0613447483
 C    0.0058855594   -0.0001024882    0.0178447002
 C   -0.7108443836   -0.8671880276    1.1079053998
 C   -1.4223186876   -1.6148913635   -0.0274558485
 O   -2.1493692297   -0.6354436794   -0.7834436753
 C   -0.7515069538   -0.7987201179   -1.0514619345
 H   -0.3943071475    2.0892145287    0.8218058746
 H   -0.4808080309    1.9308782937   -0.9558492377
 H    2.1949239274    2.1865705190   -0.6724623771
 H    3.0113385896    0.8287880313    1.0782118722
 H    2.1882983918   -0.7009851557   -0.5214103781
 H   -0.0011654897   -1.4799593363    1.6690197433
 H   -1.3719875226   -0.3429080379    1.8015091101
 H   -1.7863595514   -2.6350873527   -0.0647944488
 H   -0.4632529082   -1.0189927832   -2.0740413571