16

 O    0.0062948364    0.0153985957   -0.0918688388
 C   -0.0282320836    1.2004269047    0.0328881898
 C   -1.1010730666    2.2972983702   -0.0226693453
 C   -1.3797561452    2.8486181501    1.3870753872
 C   -0.0944622518    3.4737933579    1.9879678219
 C    1.1842989832    2.8459160396    1.4369147568
 O    2.2080201538    2.7189595804    2.0584685437
 C    1.0192290925    2.3508492951    0.0015962542
 N   -0.0543303101    3.1833808341   -0.6625622466
 H   -2.0080023364    2.1118778395   -0.6015897046
 H   -2.1653355833    3.6069801781    1.3305089292
 H   -1.7558070755    2.0370788564    2.0187808454
 H   -0.0491560745    4.5310393305    1.7032519604
 H   -0.0719956405    3.4273193938    3.0781203195
 H    1.9712374440    2.2176930626   -0.5112025333
 H   -0.0276130624    2.9800859911   -1.6600252097