23

 C    0.2273623449    1.4275062898    0.3808289833
 C   -0.0576377121   -0.0253178594   -0.0217730747
 O    0.2245560573   -0.8780879182    1.1071731781
 C   -1.5768800285   -0.2111655515   -0.2274194587
 O   -2.3023957655    0.0715237238    0.9528575538
 C    0.7257666849   -0.5211021657   -1.2511199977
 C    0.6687027491   -2.0254870234   -1.4855789440
 C    0.7918364753    0.3399226226   -2.4920324953
 C    2.0262578309    0.1516558631   -1.6457590889
 H    1.2465208129    1.5414429977    0.7647887098
 H    0.1026346012    2.1227082856   -0.4539543346
 H   -0.4744774348    1.7137555467    1.1660597064
 H    1.1187012332   -0.6866992986    1.4079113630
 H   -1.9298274374    0.4787738078   -0.9995986021
 H   -1.7769818122   -1.2349662504   -0.5708079045
 H   -1.8538697195   -0.4252149371    1.6489338986
 H   -0.3405270002   -2.3662046177   -1.7373251084
 H    1.3222876139   -2.3030357709   -2.3179083786
 H    0.9910476445   -2.5733197226   -0.5967771808
 H    0.7405419386   -0.1637688655   -3.4515432596
 H    0.3193300862    1.3158213651   -2.4857233251
 H    2.3814210544    1.0051952288   -1.0811884651
 H    2.8192756228   -0.4825081000   -2.0278695351