21

 O    0.1589465839    1.3910933290    0.1046185576
 C    0.0728317430   -0.0115637125    0.2167927617
 C   -1.3638549205   -0.4926170476   -0.0107497579
 O   -1.8433226419    0.0695952210   -1.2457532713
 C   -1.4808132243   -1.9971040375    0.0259751720
 C   -1.9470234755   -2.7121454653    1.2752050189
 C   -2.8175551684   -2.7057756096    0.0477564476
 C   -4.1257821693   -1.9583601681    0.0225117612
 O   -5.1160885701   -2.8119641403    0.5831677106
 H   -0.3980076664    1.6165136490   -0.6524874476
 H    0.7371491568   -0.5177095039   -0.5089340150
 H    0.4132013905   -0.2899944927    1.2199173423
 H   -1.9988513027   -0.0354983143    0.7547730372
 H   -1.4696395890   -0.4514352205   -1.9660641125
 H   -0.7027067559   -2.5029679729   -0.5443114166
 H   -1.4518956247   -3.6320270296    1.5642479983
 H   -2.2624162875   -2.0956515017    2.1114127488
 H   -2.8577588104   -3.6381661278   -0.5088368032
 H   -4.0449374723   -1.0202044843    0.5911925550
 H   -4.3771628538   -1.6847650018   -1.0135814299
 H   -5.9677934715   -2.3733216686    0.4976879526