23

 O   -0.0280614914    1.4511256856   -0.0835445211
 C    0.0449360579    0.0338599956   -0.0400451983
 C   -1.3764650446   -0.5094066536    0.0054504854
 C   -1.4278898240   -2.0381387592    0.0607839052
 C   -2.8563246668   -2.5976273038    0.0398496302
 O   -3.5739469360   -2.1606972401   -1.1165197755
 C   -2.8802705615   -4.1237500894    0.1686850385
 C   -4.2899356489   -4.6985189247    0.2227234762
 O   -4.1778555915   -6.1121964479    0.3160436753
 H    0.8684222985    1.7978262040   -0.1073500987
 H    0.5678702075   -0.3653616146   -0.9255236927
 H    0.6052878507   -0.3085696081    0.8461824506
 H   -1.8826885792   -0.0853615923    0.8814848347
 H   -1.9242514736   -0.1537100772   -0.8725847430
 H   -0.8737170354   -2.4642686122   -0.7898752448
 H   -0.9212245557   -2.4015790085    0.9644815075
 H   -3.4157018786   -2.1596096306    0.8777320130
 H   -3.1221248020   -2.5187159368   -1.8896742184
 H   -2.3478587520   -4.5739608414   -0.6809198675
 H   -2.3374021041   -4.4272590913    1.0716297245
 H   -4.8245192966   -4.2826697336    1.0929801204
 H   -4.8445178620   -4.3934467032   -0.6753417114
 H   -5.0649087709   -6.4829199568    0.3043627399