21

 C   -0.1326807894    1.5165701714   -0.0316829164
 C    0.0388778143    0.0228658560   -0.0069937251
 C    0.7342920140   -0.7741132936   -1.1755487016
 C   -0.2193242010   -1.8206131578   -0.5912069027
 C   -0.9057839132   -3.1870655153   -0.6496506365
 C   -0.8615772860   -3.1559009190    0.9269626037
 C    0.3170525365   -2.1317117997    0.8173930755
 C    0.4540628868   -0.6787539337    1.3316222584
 O   -1.1706337152   -0.7449203131   -0.3046569269
 H    0.8235093494    2.0141522165    0.1602312114
 H   -0.5102832713    1.8521109535   -1.0013821302
 H   -0.8407774786    1.8314484639    0.7421813199
 H    0.4328145774   -0.3636687682   -2.1408112349
 H    1.8090696589   -0.9735429299   -1.1361330413
 H   -1.8764578512   -3.2304466747   -1.1477543307
 H   -0.2515115334   -3.9645022254   -1.0528960454
 H   -1.7671914178   -2.7109407955    1.3399671825
 H   -0.6515702169   -4.0995112581    1.4345190125
 H    1.2720820913   -2.6642911462    0.7997139426
 H    1.4661913402   -0.4357449618    1.6687878798
 H   -0.2507470047   -0.4007864291    2.1201884055