18

 C    0.0330142270    1.4936447788   -0.0796983660
 C   -0.0065110289   -0.0067696391   -0.0253984281
 O    0.7859647486   -0.6157305739   -1.0472940751
 C    0.7254658611   -1.9693485754   -0.5717420502
 C    1.3935281816   -1.8327685887    0.8130301926
 C    0.3460793826   -0.8332235500    1.2874146592
 N   -0.9675660392   -1.5878927468    1.1947295823
 C   -0.7653809703   -2.1612364450   -0.1803418921
 C   -1.3276733257   -0.8034914865   -0.0278857063
 H    1.0539839564    1.8584776648    0.0659685280
 H   -0.3220152499    1.8506824495   -1.0516814278
 H   -0.6041838696    1.9220283386    0.6991035769
 H    1.1448576455   -2.6547669980   -1.3046849032
 H    1.3777706258   -2.7495359307    1.4082741152
 H    2.4077931211   -1.4350813010    0.7380600485
 H    0.4794133618   -0.3070281691    2.2300904227
 H   -1.3530391886   -3.0328811773   -0.4358216709
 H   -2.3367733092   -0.4815411800   -0.2610160557