18

 C    0.1457051579    1.3904857432    0.1469459689
 C    0.3388686944   -0.0886790560   -0.1219636631
 O    1.2925509508   -0.6984287850    0.3091224416
 C   -0.7426095168   -0.7654741574   -0.9582474716
 C   -0.6994209628   -2.3003851429   -0.9757310693
 O   -1.9106852265   -2.8324044323   -1.4800580867
 C    0.5292077680   -2.8329349698   -1.7433875490
 C    0.5765554698   -4.2918111203   -1.7877523160
 N    0.6270129846   -5.4452911199   -1.8255698871
 H    1.0299379266    1.7973715507    0.6383750186
 H   -0.0524514643    1.9347548199   -0.7827697395
 H   -0.7284081868    1.5370210014    0.7921936870
 H   -1.7265819602   -0.4549249205   -0.5876278050
 H   -0.6757345938   -0.3650627002   -1.9819143137
 H   -0.6384117799   -2.6615417182    0.0550880426
 H   -1.9857895839   -2.6012848641   -2.4129240140
 H    0.5191369251   -2.4511395731   -2.7734956166
 H    1.4344944479   -2.4536561053   -1.2607738171