20

 C    0.3574640821    1.5420232856   -0.0910005659
 C   -0.0776934652    0.0967269364    0.1682770865
 N    0.6793800737   -0.6051590626    1.1835302706
 C    2.1152900467   -0.8006437800    1.3943370566
 C    2.6529628168    0.0064351838    2.5484921230
 C    2.2313899792    1.4026416162    2.9460392694
 C    1.8231701327   -1.2497539325    2.8167856990
 C    0.3489971835   -0.9794007766    2.4761218274
 O   -0.7064003046   -1.0361378226    3.0502623739
 H    1.4161597504    1.5941610140   -0.3650509172
 H   -0.2223380325    1.9608024890   -0.9195658724
 H    0.2006424220    2.1727945677    0.7874031968
 H   -1.1190196225    0.0618186152    0.5043342913
 H   -0.0271046248   -0.4714769211   -0.7702550376
 H    2.7219080667   -1.3027621215    0.6506775393
 H    3.7136080711   -0.1889714723    2.7110267591
 H    1.1532577817    1.5459903630    2.8507545661
 H    2.4958432907    1.5904561940    3.9916266397
 H    2.7344533620    2.1561485813    2.3308363200
 H    2.2032449202   -2.1109402368    3.3472862546