21

 C   -0.1563101004    1.5427577128   -0.0297519310
 C    0.0229753213    0.0279815445    0.0435412744
 C    0.7220557365   -0.5912483311   -1.1931366036
 C    1.4670725411   -1.7997819860   -0.6444155391
 O    2.2811381323   -2.4960450962   -1.2019082260
 C    1.1191502208   -1.9516986972    0.8339994565
 O    2.1061281414   -2.6449428259    1.5414762357
 C    0.8449592164   -0.4945018987    1.2644526711
 C    2.1469867892    0.2653979784    1.5383600551
 H    0.8038226604    2.0558074193   -0.1439553913
 H   -0.7839978972    1.8200426816   -0.8830550146
 H   -0.6370234086    1.9283605368    0.8756943129
 H   -0.9741386459   -0.4246708411    0.1220001654
 H    0.0346241108   -0.8771157023   -1.9950713212
 H    1.4567644886    0.0881100761   -1.6414111743
 H    0.1569018399   -2.4983049914    0.8720161153
 H    2.6621250966   -3.0645915724    0.8666386934
 H    0.2265830485   -0.4700914765    2.1674062159
 H    2.7749622124    0.3476534161    0.6432574575
 H    1.9473294793    1.2778613657    1.8989462296
 H    2.7301299365   -0.2641045922    2.2948349783