16

 O   -0.0648307597    1.4401114250   -0.0648016320
 C    0.0148823894    0.0383767819    0.0046487308
 C    0.0263397110   -0.6395046248    1.3980322411
 C   -1.4691735807   -0.2433872829    1.5689656816
 O   -2.1526518839   -1.2725268553    2.2988341688
 C   -1.6104683086   -2.4197658007    1.7610235825
 N   -1.8829171779   -3.6094968650    2.0723632326
 C   -0.6400805058   -1.9052537844    0.7417493543
 C   -1.3471241350   -0.6656514951    0.0750947818
 H    0.8262221629    1.8001678895   -0.0201406656
 H    0.7233964239   -0.3719884382   -0.7250788999
 H    0.8053450325   -0.6398918283    2.1610608103
 H   -1.7942098738    0.7417542540    1.8844118519
 H   -2.5903397676   -3.6351599759    2.8090997826
 H   -0.0665676515   -2.6200069264    0.1582518378
 H   -2.1366004253   -0.6913337433   -0.6754034185