21

 C   -0.0540947403    1.5387739954   -0.0007272956
 C    0.0670745935    0.0156027118   -0.0223986073
 O   -1.2273356801   -0.5590993588   -0.1974974694
 C    1.0258995937   -0.5636682219   -1.1061781060
 C    1.9881331706   -1.3599154242   -0.1979467799
 C    2.2770990863   -0.3422073795    0.9436238121
 C    0.7618124586   -0.5821550018    1.2272759573
 O    0.0948099255   -0.2177442947    2.3983286728
 C    1.0061063667   -2.0556836229    0.7868489074
 H    0.9182807919    2.0326102753    0.0772808462
 H   -0.5413203341    1.8792295956   -0.9188904718
 H   -0.6613208891    1.8580918168    0.8525418674
 H   -1.7070555550   -0.4033613047    0.6252835774
 H    0.4706294734   -1.1971279795   -1.8016446940
 H    1.5361849021    0.2190799943   -1.6747197228
 H    2.7943129856   -1.9123602050   -0.6777841185
 H    2.9135346488   -0.7620126581    1.7278463897
 H    2.6191113945    0.6615697584    0.6800724174
 H    0.4663097398   -0.7121238767    3.1351666470
 H    0.1586063583   -2.6090088394    0.3805636316
 H    1.5269519193   -2.6362682905    1.5540930088