22

 C   -0.1101115246    1.5903934991    0.0992384418
 C   -0.0480317495    0.0626013621    0.0176941504
 C    0.8401852506   -0.5442441114    1.1136709083
 C    0.8310489783   -2.0786001438    1.1704544446
 C    1.3389299106   -2.7466876393   -0.1061885493
 C    1.4230601129   -2.6706522012    2.4970153414
 N    0.0775436426   -3.1570296259    2.8069030411
 C   -0.5213654430   -2.6662405850    1.6755777228
 O   -1.6544794771   -2.6941566265    1.2687940402
 H    0.8863925020    2.0364043803    0.0008579472
 H   -0.7394653686    2.0048787585   -0.6942332216
 H   -0.5251939403    1.9192763851    1.0585434378
 H   -1.0549142543   -0.3604236794    0.1015256956
 H    0.3291881966   -0.2302653427   -0.9692138202
 H    1.8766706254   -0.2013862170    0.9827006719
 H    0.5116094148   -0.1569964652    2.0878861337
 H    2.3394388177   -2.3832422001   -0.3670976987
 H    1.3916477378   -3.8337656612    0.0112691976
 H    0.6714376679   -2.5384737603   -0.9463245908
 H    2.1660423584   -3.4635029611    2.3605659241
 H    1.8047009085   -1.9266845087    3.2042537956
 H   -0.2961880468   -3.6583076762    3.5991543564