19

 C    0.0729939231    0.9048517619   -1.0277286048
 C   -0.3961107264    0.3561227796    0.3218915383
 N   -1.5698277997   -0.5031778425    0.3578651790
 C   -2.1843687277   -0.7864785347   -0.7088020879
 N   -3.3227604789   -1.6154913817   -0.7032494312
 C   -3.9771652935   -1.9071610021   -1.9055939265
 N   -3.5718439461   -1.4420371217   -3.0161425618
 C   -3.8006947571   -2.1477366777    0.5002037362
 N   -4.8244348428   -2.8986237082    0.5398291731
 H    0.9601419048    1.5272916323   -0.8780298621
 H    0.3425465070    0.1035452655   -1.7235336142
 H   -0.6922486624    1.5258137615   -1.5049146539
 H    0.4211167484   -0.2075471498    0.7918030716
 H   -0.5962753558    1.1910981999    1.0068335967
 H   -1.9431551704   -0.4561585973   -1.7176892304
 H   -4.8354645973   -2.5574016540   -1.7366748856
 H   -4.1752154218   -1.7654321551   -3.7693001634
 H   -3.1831208356   -1.8270510987    1.3391184824
 H   -5.0114158078   -3.1817394074    1.4992935443