17

 O    0.0372697793    1.5100858642    0.1433709600
 C    0.0213531014    0.1110656908    0.0098088184
 C   -1.3400383877   -0.5778686643   -0.0410027310
 C   -1.9788456761   -0.3747010113   -1.4752063611
 C   -0.7796350339    0.1943493553   -2.2528165785
 C    0.2496095896   -0.5468862083   -1.3741177431
 O    1.5613644951   -0.7167355937   -1.7984564606
 C   -0.7272995650   -1.7293854132   -0.8718355926
 O   -1.8521914692   -1.8053029021   -1.7558668901
 H    0.9518599465    1.8042721109    0.0755218881
 H    0.6515694938   -0.3773487597    0.7673896620
 H   -1.9945505164   -0.7175125956    0.8149091310
 H   -2.9801951258    0.0195486144   -1.6381269849
 H   -0.8012811090   -0.1427976207   -3.2924259297
 H   -0.6652962657    1.2770071071   -2.1938440662
 H    1.5514298505   -1.0529374517   -2.7010894792
 H   -0.3248268975   -2.6738740020   -0.5106890426