16

 C   -0.0201971911    1.4455974007    0.0598381340
 C   -0.0011082933   -0.0472972550   -0.0193158288
 C   -0.0412580267   -0.8154703043   -1.1323680812
 C    0.0000947995   -2.2181633477   -0.7200706512
 C    0.0642379902   -2.2713251257    0.6291502789
 C    0.0720119158   -0.9189801773    1.2494408593
 O    0.1026585666   -3.5690371617    1.0207374223
 C    0.0574450404   -4.2455123061   -0.1736794601
 N   -0.0042590972   -3.5051690031   -1.2378205920
 H    0.8802034576    1.8384331135    0.5495899338
 H   -0.0788358606    1.8882089127   -0.9381421820
 H   -0.8766693760    1.8111459773    0.6408993804
 H   -0.0947983131   -0.4498580321   -2.1491395629
 H    0.9778387460   -0.7030621036    1.8299407258
 H   -0.7821559861   -0.7307470083    1.9120797804
 H    0.0774636379   -5.3215210394   -0.1059741766