25

 C    0.0549348590    1.4603137144    0.2287021896
 C   -0.1235317493   -0.0379435435   -0.0384857213
 C    0.6755558979   -0.5344196457   -1.2362434653
 C    2.2289531359   -0.5815638763   -1.1496207148
 C    2.2005480835   -1.9247849331   -1.9302857917
 C    3.1732623521   -3.0246854745   -1.5291401963
 C    2.9683092702   -4.3185289360   -2.3073992227
 O    3.9227666978   -5.2651789369   -1.8482388611
 C    0.6959090264   -2.0557593031   -1.5518922357
 H    1.1052500953    1.7064171218    0.4193636272
 H   -0.2726141142    2.0568058592   -0.6302750133
 H   -0.5250381629    1.7836066364    1.0987734715
 H    0.1754549857   -0.6082783764    0.8516518349
 H   -1.1877215116   -0.2589022944   -0.1978751897
 H    0.3758787655    0.0239004478   -2.1322267581
 H    2.7993708033    0.2467975600   -1.5776459193
 H    2.5610770174   -0.7341910575   -0.1156583253
 H    2.2911674211   -1.7245002049   -3.0053215937
 H    4.2067577215   -2.6883156390   -1.6819898149
 H    3.0701149826   -3.2421379378   -0.4583489683
 H    1.9401665087   -4.6860616811   -2.1564480448
 H    3.0877248602   -4.1244878311   -3.3865436228
 H    3.7827082817   -6.0882243266   -2.3251533006
 H    0.5704234595   -2.6493492087   -0.6381759315
 H    0.0010188025   -2.4322577629   -2.3073917120