15

 O   -0.1179213436    0.1853597365   -0.5992801449
 C    0.0002971259    1.2645583753   -0.1292123099
 O   -1.0021867821    2.0505165229    0.4620891116
 C   -0.0537595129    3.1266865631    0.7125496373
 C    0.6635350498    3.1724479623    2.0881866217
 C    1.8931272093    2.4270435949    1.4295266205
 C    1.0703211370    2.3572448018    0.1123571533
 O    1.2903517791    3.3049512387   -0.9503195826
 C    0.1843933207    4.1288967996   -0.4337476654
 H    0.8714946060    4.1708518347    2.4764437668
 H    0.1377709589    2.5963261789    2.8503595994
 H    2.7792206852    3.0526111443    1.3134507636
 H    2.1814696783    1.4722927815    1.8710365645
 H   -0.6340049440    4.2160300902   -1.1539469939
 H    0.5367013826    5.1210291454   -0.1352742821