21

 C    0.0288946398    1.5166783453    0.0777754257
 C    0.0676056746   -0.0033333688    0.0590411021
 O    1.1328008177   -0.5890897663    0.0604213809
 C   -1.2416761862   -0.7396181374    0.0401146709
 C   -1.2012236623   -2.0804839441    0.0482125572
 C   -2.4073203617   -2.9713517687    0.0689422021
 C   -3.6996595123   -2.2069268112    0.3877155167
 C   -3.7374197234   -0.8777355599   -0.3734926274
 C   -2.5533395536    0.0191009657    0.0200284427
 H    1.0448524513    1.8953827316    0.1916338809
 H   -0.3959622927    1.9026546621   -0.8560014854
 H   -0.6015489234    1.8909416793    0.8914649201
 H   -0.2203860923   -2.5491397007    0.0415556663
 H   -2.4900895738   -3.4717549054   -0.9085279394
 H   -2.2471765556   -3.7837029167    0.7894760846
 H   -4.5730572865   -2.8205016419    0.1441888826
 H   -3.7455221936   -2.0066097179    1.4659581528
 H   -3.6935802324   -1.0790811510   -1.4518957938
 H   -4.6799310129   -0.3515123465   -0.1896211365
 H   -2.7403177749    0.4638812794    1.0088244401
 H   -2.4918466459    0.8662857331   -0.6725097835