18

 C    0.1132990874    1.5564510639   -0.1154199620
 C   -0.0622461513    0.0355116617    0.0462359780
 C    0.6092005046   -0.5135291640    1.2761024315
 C   -0.0523649924   -0.9709637517    2.3796540866
 C    0.7041646762   -1.4415901626    3.4890859475
 C    2.0662430804   -1.4487857377    3.4772308901
 C    2.8118590211   -0.9760745369    2.3281029444
 O    4.0243374724   -0.9350316818    2.1934486207
 N    1.9749740853   -0.5301582503    1.2812658908
 H    1.1689876236    1.8359191110   -0.1874183844
 H   -0.3871218137    1.9042336185   -1.0234787424
 H   -0.3142515581    2.0893572605    0.7386840738
 H   -1.1265761117   -0.2097827574    0.0973607164
 H    0.3353376210   -0.4749953596   -0.8408445393
 H   -1.1339005043   -0.9699133579    2.3990476382
 H    0.1744916554   -1.8051602470    4.3650713887
 H    2.6511055378   -1.8065612007    4.3151610214
 H    2.4856138465   -0.2038124679    0.4711695200