21

 C   -0.4023293451    1.0494693157    0.0973736333
 O    0.5073810384    0.0007510692   -0.1641380402
 C    0.9526812095   -0.6245562407    0.9979737008
 C    0.1651689240   -1.6951228595    1.6997859516
 C   -0.6195874687   -2.5505527221    0.6901119475
 C    0.7032664543   -2.8591478228   -0.0363054235
 C    1.1251716255   -4.2024728038   -0.5521140171
 C    0.9522483143   -3.0352848921   -1.5017729213
 C    1.4887733058   -2.0133948881    0.9465479083
 H    0.0607670027    1.8471385256    0.6990025323
 H   -0.7024152803    1.4654277933   -0.8673354983
 H   -1.2952233550    0.6916230128    0.6300735734
 H    1.4913443127    0.0424692881    1.6761479627
 H   -0.0193269639   -1.6686516422    2.7672636519
 H   -1.0637645995   -3.4378025344    1.1485932454
 H   -1.3848658655   -2.0232770307    0.1120900847
 H    2.1341161859   -4.5405507188   -0.3355925106
 H    0.3862471227   -4.9977714422   -0.5737430651
 H    0.0923652925   -3.0398627907   -2.1638523524
 H    1.8405846330   -2.5829459766   -1.9297675134
 H    2.4665398769   -2.2659315899    1.3425584601