20

 C   -0.0377418732    1.5235795374   -0.0537156138
 C   -0.0081083621    0.0160471082    0.0101245687
 C    1.2838707029   -0.7442559546   -0.2762303308
 C    0.6604066541   -0.7836626148    1.1021923531
 C    1.3462634341   -0.2378315956    2.3216893226
 O   -0.1247637303   -1.9152661192    1.4138553255
 C   -1.0646265401   -2.1193069878    0.3620241554
 C   -1.2920614921   -0.7452183516   -0.2997217867
 H    0.9040682861    1.9604355501    0.2925543299
 H   -0.1995634644    1.8722593902   -1.0806667057
 H   -0.8446087346    1.9331123224    0.5655593048
 H    1.2624373685   -1.6332801622   -0.8984369282
 H    2.1817654808   -0.1455486105   -0.3948631779
 H    1.9172942020    0.6621886900    2.0798480550
 H    0.6146407224    0.0099063359    3.0975160709
 H    2.0395893707   -0.9776426484    2.7349634238
 H   -0.6692258566   -2.8420471869   -0.3656895578
 H   -1.9706398825   -2.5493887654    0.7983374669
 H   -2.1378542632   -0.2213887312    0.1612147135
 H   -1.5026741924   -0.8383739761   -1.3702676191