13

 O   -0.0910537233   -0.0354924694   -0.0010884411
 C   -0.0496468425    1.1616970425    0.0081133131
 N    1.1473802345    1.8933794655    0.0007050048
 C    2.4397582627    1.3733235396   -0.0180718794
 N    3.3384809433    2.3069300818   -0.0204922150
 C    2.6326359624    3.5091174525   -0.0026722871
 C    3.2651361441    4.8340059594    0.0011186565
 O    4.4529113287    5.0410865225   -0.0102505192
 C    1.2840309589    3.2679284479    0.0104886141
 H   -0.9350933994    1.8208541358    0.0236350098
 H    2.6028734567    0.3069329396   -0.0286862518
 H    2.5278157912    5.6693080247    0.0164777316
 H    0.4297736427    3.9254661277    0.0255067737