16

 O   -0.0367642838    1.4137391040    0.1275288750
 C   -0.0403133686    0.0227698469    0.1097012184
 C   -0.4217316482   -0.7267993012    1.3183261213
 O    0.4567338091   -1.6384111385    1.8337412662
 C   -1.5569259080   -0.0478768358    2.0826281131
 C   -2.4407172551   -0.0473212406    0.7976720430
 C   -1.3401751467   -0.7778584477    0.0128970313
 C   -1.5345096734   -1.7958054385   -0.9561142087
 N   -1.6938583444   -2.6405165974   -1.7341732290
 H   -0.1193943698    1.7295087821   -0.7791393984
 H    0.7801110852   -0.4470459024   -0.4326519242
 H   -0.0340627183   -2.2936044499    2.3435899011
 H   -1.9702675771   -0.7006176420    2.8564027307
 H   -1.3111786443    0.9207446576    2.5231226839
 H   -3.3475256325   -0.6434144423    0.9014544292
 H   -2.6969426441    0.9391769256    0.4065841571