12

 N    0.0572632915    1.4043164333    0.0590038476
 C   -0.0144733292    0.0526123839   -0.0287851787
 N   -1.1588576983   -0.5422517149   -0.0434199389
 O   -1.1256961790   -1.9546632666   -0.2114257895
 C   -0.0032617890   -2.6779566625   -0.3576172153
 O   -0.0227054814   -3.8535217170   -0.5208582840
 O    1.1956620789   -2.0037550279   -0.3040358081
 C    1.2792047492   -0.6542492650   -0.1200430378
 N    2.3734850451   -0.0366930733   -0.0206866935
 H    0.9573408212    1.7861497138    0.3037336416
 H   -0.7750130624    1.9066660507    0.3209132986
 H    3.1740975435   -0.6655479745   -0.0916826221