16

 O    0.0173848191   -0.0229780075   -0.1054595298
 C    0.0094337182    1.1863080540   -0.0569203006
 C   -1.2979080034    1.9825007165   -0.0023787943
 O   -1.2362891196    3.1250614566   -0.8350654712
 C   -0.2930832844    4.0779103675   -0.3778566819
 C    1.1207959924    3.5140576213   -0.2248993535
 C    1.5466090028    2.9329471480    1.0860506209
 C    1.2524958013    2.0049976847   -0.0890692163
 H   -2.1027011676    1.3436297190   -0.3706612927
 H   -1.5288879621    2.2620311779    1.0420337156
 H   -0.2977346821    4.8766337575   -1.1235596083
 H   -0.6349222698    4.5083320940    0.5783693014
 H    1.8865913124    4.0011343187   -0.8191833537
 H    2.5839804327    3.0129780710    1.3894720736
 H    0.8375994672    2.9549322654    1.9076816064
 H    2.1019614428    1.5025998555   -0.5373679656