16

 O    0.0539325829   -0.0434864320   -0.0638775634
 C    0.0470404389    1.1652665365   -0.0912783855
 C    1.2912400096    1.9753838831   -0.0184561723
 C    1.2294772439    3.3367275753    0.0214617395
 C    2.4499678676    4.1402280395    0.0203115713
 O    2.4569805069    5.3557536908    0.0798138953
 C    3.7438192317    3.3310474108   -0.1471765248
 C    3.6501576761    1.9410616969    0.4881926953
 N    2.4487790523    1.2674444283    0.0159501860
 H   -0.8890744753    1.7516237415   -0.1664551677
 H    0.2722124280    3.8437972076   -0.0005149437
 H    3.9235307483    3.2323206875   -1.2263688580
 H    4.5743875863    3.9012165345    0.2737541864
 H    4.5232085636    1.3344755228    0.2338170071
 H    3.6206124685    2.0413870584    1.5859601175
 H    2.3338584108    0.2761007185    0.1760136170