19

 C    1.1773694772    1.2285098771   -0.3703688659
 C    0.1731673784    0.1528475793   -0.0124106197
 C    0.6246184520   -1.2018283017    0.4815197064
 C   -0.0986150597   -0.2593072196    1.4160733720
 C    0.5589227863    0.3987615719    2.6061525822
 O    0.2490160393   -0.2803329607    3.8580498573
 C    1.6271470126   -0.5085365612    4.2027037039
 C    2.0537104433    0.1618530763    2.8967809207
 O    3.0868377884    0.3880788494    2.3425578833
 H    2.0568456022    1.1959153643    0.2787773885
 H    1.5210254606    1.1030746663   -1.4029214642
 H    0.7334884824    2.2276394401   -0.2911071659
 H   -0.7077895750    0.1438300862   -0.6495478032
 H    0.1016845013   -2.0897418429    0.1437634023
 H    1.6911917656   -1.3410593792    0.6255224958
 H   -1.1298437054   -0.5116119091    1.6499702935
 H    0.2830433110    1.4619047518    2.6729901973
 H    1.9407658072    0.0162260448    5.1147164858
 H    1.8801382124   -1.5728110832    4.2914242900