16

 N   -0.1128079974    1.2630328622   -0.3167377805
 C   -0.0402497546    0.0812077824    0.1294339535
 O    1.0499612850   -0.3653637875    0.8149064450
 C    1.2701895158   -1.7779320355    0.8566683011
 C    0.0314796344   -2.5350292336    1.2575675646
 C   -0.9523690585   -1.9410139460    2.1873444943
 N   -1.2581114660   -2.0605858052    0.7391086297
 C   -1.2305912141   -0.8501000218   -0.0116457144
 N   -2.2175971371   -0.5752271615   -0.7537012501
 H    0.7562166460    1.7698682080   -0.1406449674
 H    1.6183335686   -2.1205109217   -0.1273481278
 H    2.0808857834   -1.9298279872    1.5742608542
 H    0.1441866472   -3.6171735538    1.2214831997
 H   -1.5627163630   -2.5753829872    2.8215594806
 H   -0.7433786033   -0.9516532515    2.5845479628
 H   -2.0429802863    0.3321559299   -1.1964113253