20

 C    0.0135135292    1.4474011011   -0.0541581391
 N   -0.0177379041   -0.0058073449    0.0516249056
 C   -1.3680856225   -0.5526971825    0.3085954703
 C   -1.2635860708   -2.0532249948   -0.0413376733
 O   -0.3227759969   -2.7133556931    0.7942108790
 C    0.9131574147   -2.0283608268    0.9435083325
 C    0.6908683370   -0.5291689925    1.2401226595
 C   -0.3320498838   -0.3770376077    2.3699380162
 C   -1.5443710408   -0.3909333107    1.8214563794
 H    1.0475569008    1.7745300516   -0.2030065349
 H   -0.5633366696    1.7561176502   -0.9318556801
 H   -0.3916900472    1.9703356134    0.8282087958
 H   -2.1254139510   -0.0663031368   -0.3130107452
 H   -2.2150140434   -2.5717105714    0.1149036848
 H   -0.9775978849   -2.1387232886   -1.1005237281
 H    1.4335638930   -2.5300260962    1.7656782475
 H    1.5215293582   -2.1101935529    0.0301841991
 H    1.6483250620   -0.0231858593    1.3943207810
 H   -0.0883102979   -0.3617311445    3.4248480829
 H   -2.4977938320   -0.3893381236    2.3347415569