14

 O    0.0386157731    0.0231265023   -0.0911653891
 C   -0.0017177973    1.2139874246    0.0018191839
 C   -1.1127395250    2.2777090230   -0.0515852249
 O   -0.8918499423    3.1133052318    1.1062400288
 C   -0.0693109608    3.3335852719   -0.0380395279
 C    1.0549685585    2.3142849888    0.0410367096
 C    2.3683276813    2.3462256353    0.7659955652
 C    2.3479625064    2.2471589661   -0.7337750164
 H   -2.1077988518    2.2549791898   -0.4787051960
 H   -0.0906556379    4.3064898011   -0.5131045818
 H    2.6688146106    3.2852545662    1.2181164979
 H    2.6339385024    1.4606586076    1.3335491947
 H    2.5897297455    1.2941348079   -1.1923598697
 H    2.6308754974    3.1195810737   -1.3132984142