17

 N   -0.1402298833    1.3217288125    0.0095830064
 C    0.0404481300   -0.0291566961    0.0008079724
 O    1.1432963933   -0.5430265196   -0.0122706416
 C   -1.2485006491   -0.8457286830    0.0086681821
 C   -0.9562545087   -2.3374668494   -0.0017955278
 O   -2.2051949990   -3.0146671713    0.0063921189
 C   -2.0519972650   -4.4100595729   -0.0022809979
 C   -3.3756651578   -5.0409323279    0.0068507771
 N   -4.4044133681   -5.5645930241    0.0137754397
 H    0.6738010280    1.9137955889    0.0050265163
 H   -1.0506496633    1.7463145912    0.0204050982
 H   -1.8438900906   -0.5917828595    0.8935077012
 H   -1.8603435026   -0.5826955613   -0.8621821602
 H   -0.3724480606   -2.6085543991   -0.8928304223
 H   -0.3558912852   -2.6177162637    0.8752950331
 H   -1.5049702139   -4.7547246171   -0.8954418183
 H   -1.4883630241   -4.7639169975    0.8768496326