21

 C    0.8724888645    1.0504233828    0.4035846898
 N    0.5219367366   -0.3095832645    0.0420844599
 C    0.1109089169   -0.6535171647   -1.2122787866
 O   -0.0020797545    0.1518251651   -2.1211331445
 C   -0.1897631780   -2.1419229211   -1.4250627513
 C   -1.6115960925   -2.3080817468   -1.9842027085
 C    0.8493892982   -2.7045099270   -2.3834015049
 C    2.1139445083   -3.2899750167   -1.8783627425
 N    1.0752179236   -4.1539779006   -2.4749144216
 H    0.7228832261    1.6676070588   -0.4829649881
 H    0.2361328507    1.4245639150    1.2131961082
 H    1.9195784638    1.1236359520    0.7182594330
 H    0.5916986533   -1.0294743643    0.7409551316
 H   -0.1052089458   -2.6831069151   -0.4717289777
 H   -1.8102614936   -3.3550969474   -2.2305213404
 H   -2.3630746180   -1.9748957671   -1.2617014237
 H   -1.7216637001   -1.7062176157   -2.8893832271
 H    0.8649601533   -2.1974492241   -3.3449657559
 H    3.0292538099   -3.2063863864   -2.4568676835
 H    2.2649425774   -3.3267821644   -0.8016300648
 H    0.5636414598   -4.6312856278   -1.7350923813