14

 C   -0.0420351964    1.4644477209    0.0251788863
 C    0.0031714409    0.0109018820    0.0203479968
 C    0.0327932784   -1.1947498253    0.0181843171
 C    0.0692223733   -2.6101611506    0.0152549573
 C    1.1579743228   -3.4181759219   -0.2349548508
 N    0.6945347474   -4.7052131251   -0.1220374963
 C   -0.6336283161   -4.6320605928    0.1867758977
 N   -1.0468472555   -3.3937353733    0.2780774852
 H    0.6649309212    1.8857209588    0.7492123392
 H    0.2067172646    1.8775118188   -0.9592313266
 H   -1.0418830972    1.8244202703    0.2916164876
 H    2.1826926989   -3.1911197103   -0.4743382825
 H    1.2371359278   -5.5435247479   -0.2450284800
 H   -1.2397540901   -5.5140304737    0.3313001390