18

 C    0.0230922700    1.4410487440   -0.2645653254
 C    0.0359314225   -0.0300379784    0.1816260093
 O    0.5760713582   -0.1517239731    1.4831550064
 C   -1.3425377591   -0.6365198633    0.0929174377
 N   -2.0250818734   -0.8099178356    1.1972488983
 O   -3.2457269624   -1.3495155284    0.8218277824
 C   -3.2512585244   -1.4855278923   -0.5137930683
 C   -2.0834449759   -1.0566115034   -1.0592104299
 C   -1.6676903362   -1.0445564147   -2.4963317303
 H    1.0317065552    1.8520928005   -0.1738596931
 H   -0.3052051269    1.5471039248   -1.3038176070
 H   -0.6501658466    2.0209800240    0.3737247857
 H    0.6991740131   -0.5912826801   -0.4917952118
 H   -0.1638613773   -0.2179002960    2.0994559415
 H   -4.1497903524   -1.9074289433   -0.9382164814
 H   -1.5271886719   -0.0250963170   -2.8719610957
 H   -0.7212264505   -1.5762666841   -2.6435339519
 H   -2.4208668719   -1.5269998036   -3.1245299665