16

 O    0.0893759211    1.3902434033    0.2311757811
 C   -0.0107636243    0.0020155130    0.0516175285
 C   -1.4536353001   -0.5516471588   -0.1335184606
 N   -1.1888409698   -1.8859445761   -0.7342195532
 C   -0.4519743944   -1.3800893408   -1.9184332882
 C   -1.4440538448   -0.3351007737   -2.4221840906
 C   -2.0466977123    0.1647357495   -1.3420324188
 C    0.6210361142   -0.4682722916   -1.2818936627
 O    1.6845707192   -0.0996551993   -1.7100020560
 H    0.9074139487    1.6672486859   -0.2033495608
 H    0.4771350682   -0.5386809223    0.8812337620
 H   -2.0606160218   -0.5895783606    0.7701694963
 H   -0.5674239147   -2.4279685628   -0.1324294733
 H   -0.1000008065   -2.1337606767   -2.6196170202
 H   -1.5206701739   -0.0177798147   -3.4521040682
 H   -2.7580920487    0.9757847557   -1.2867427455