22

 C    0.0886353055    1.4682656533   -0.4018533612
 C   -0.0152362828    0.0174437728    0.0346991132
 C   -1.3533635008   -0.6183444660   -0.2986772426
 C    1.2158878919   -0.8565196137   -0.0559896612
 C    0.6640073719   -0.4608202163    1.3013533400
 C    1.4454014952    0.4417758579    2.2308209779
 N    2.4358059095   -0.3098287116    2.9922156671
 C    2.5228039012   -0.2753637230    4.3476141907
 O    1.8336437097    0.4022085541    5.0812409428
 H    1.0791335367    1.8925125120   -0.2209495303
 H   -0.1114756414    1.5546513073   -1.4761840231
 H   -0.6447674094    2.0938682929    0.1202423594
 H   -1.5424924547   -0.5900753115   -1.3783438029
 H   -1.3918943824   -1.6647096835    0.0195665812
 H   -2.1757084972   -0.0882187961    0.1959445321
 H    1.1060241013   -1.8851066928   -0.3838454329
 H    2.1397801816   -0.3847786792   -0.3795573874
 H    0.1331634502   -1.2465989555    1.8340722912
 H    1.9402773851    1.2443545470    1.6716765068
 H    0.7947332349    0.9133899810    2.9716315041
 H    3.0454892261   -0.9360965030    2.4900729345
 H    3.3169236777   -0.9524468362    4.7222314807