18

 C   -0.1462814610    1.5630889701    0.0735950933
 C    0.0320594227    0.0384678192    0.0019269053
 C    0.8595699236   -0.4330171719   -1.1765243100
 C    1.8783808331   -1.2320249569   -0.8160355277
 C    2.8107171376   -1.8821152190   -1.7363412450
 O    3.6963984903   -2.6339873691   -1.3915116242
 C    1.9303311085   -1.3642191482    0.6716856791
 N    2.1667618837   -0.0478912742    1.3274468447
 C    0.7895149841   -0.5632373025    1.1921116470
 H    0.8237720986    2.0456714958    0.2131438202
 H   -0.6052028426    1.9513385067   -0.8410718419
 H   -0.7924677575    1.8353403495    0.9139284809
 H   -0.9641464569   -0.4246135367   -0.0640246642
 H    0.6434794461   -0.1305535588   -2.1970148560
 H    2.6413377329   -1.6449549847   -2.8106061331
 H    2.3077854047   -2.2663445577    1.1366100907
 H    2.4817198834   -0.2128944208    2.2817317032
 H    0.2446714287   -0.8459263209    2.0864052177