24

 C    0.0675444020    1.5739321568    0.1719212496
 C   -0.0031241387    0.0513137760    0.0252487580
 C    0.6818565652   -0.4602556799   -1.2481923211
 C    0.6797377933   -1.9829693714   -1.4030200886
 C   -0.7084523062   -2.6295925799   -1.5823379825
 C   -0.4268115366   -4.0383840675   -2.1591349824
 C    0.9955703144   -3.9635582527   -2.7916921798
 C    1.4372424978   -2.4932010381   -2.6420830797
 H    1.1067835454    1.9200496528    0.2046519207
 H   -0.4192969755    2.0759492413   -0.6718223124
 H   -0.4252493723    1.9123502496    1.0889192835
 H    0.4625467363   -0.4225009382    0.9000301155
 H   -1.0530415942   -0.2665795274    0.0316720273
 H    0.1964398341   -0.0113190623   -2.1273739277
 H    1.7202554286   -0.1002270331   -1.2608729841
 H    1.1509956288   -2.4236066944   -0.5105232951
 H   -1.2923794731   -2.6645866160   -0.6583836538
 H   -1.2854589098   -2.0332151558   -2.3018139087
 H   -0.4525979717   -4.7924929909   -1.3664404413
 H   -1.1868617543   -4.3314024767   -2.8888671252
 H    1.6845257017   -4.6200477027   -2.2501438256
 H    1.0066688653   -4.2928807729   -3.8344207979
 H    1.1216699016   -1.9096877872   -3.5175628478
 H    2.5225036780   -2.3796771894   -2.5565997707