15

 O   -0.2203474526   -0.1104487977    0.0338296814
 C   -0.1011256043    1.0831776218    0.1211657583
 C   -1.1907797185    2.2048207072    0.0085808562
 N   -0.5462619644    3.5248425051    0.2190398443
 C    0.6708867699    3.2045068088    0.3876047565
 C    2.0737130262    3.6353074546    0.7290843504
 C    2.5309184601    2.8187582130    1.9387182141
 C    2.4435073990    2.1385525835    0.6107329801
 N    1.0314744594    1.8633392469    0.3009494808
 H   -1.6695678923    2.1544207321   -0.9748889551
 H   -1.9693426470    2.0386407632    0.7600333853
 H    2.6021160156    4.5086578488    0.3779277710
 H    3.5339645335    3.0587274000    2.2791303164
 H    1.8284707636    2.5639646279    2.7254171129
 H    3.2486028317    1.6563126548    0.0757929275