19

 O    0.4007489335    0.8249139985   -0.6704850985
 C    0.1658792102   -0.2721718343    0.1608593218
 C   -0.0318367781   -0.0511139284    1.6934150778
 C   -1.2470720907   -1.0202728637    1.6407743022
 C   -1.2728748917   -0.8672931806    0.1119940108
 O   -2.2170721273    0.1159800602   -0.3978491020
 C   -2.4507059658   -0.6827206167   -1.5850418329
 C   -1.7239150130   -1.8850281364   -0.9404614466
 O   -0.6620453010   -2.4952454865   -1.6254554851
 H   -0.4482823047    1.2872878129   -0.7262194538
 H    0.9214744625   -1.0322962361   -0.0539646283
 H    0.8009277481   -0.3116736170    2.3496641802
 H   -0.3377227647    0.9780717274    1.8986173137
 H   -0.9934393679   -2.0433304325    1.9343198709
 H   -2.1614825083   -0.7172860572    2.1547605104
 H   -3.5192969399   -0.7769322126   -1.8031562868
 H   -1.9144336075   -0.2890786192   -2.4564983482
 H   -2.4241697987   -2.6242276882   -0.5287794905
 H   -1.0146969351   -3.1778075695   -2.2041171751