19

 C   -0.0648299773    1.5468232960   -0.0606457162
 C   -0.0364233649    0.0703078242    0.3544035135
 C   -1.3858795366   -0.5907141497    0.1669959300
 C   -1.8083152880   -1.1679927249   -1.1408715688
 C   -1.5602265967   -2.1143547324    0.0231362951
 C   -0.3713906826   -3.0040158712   -0.0276998910
 O    0.6083720176   -2.7969331637   -0.7207051978
 C   -0.4425814302   -4.1771578107    0.8310752664
 C   -0.5111144834   -5.1475941536    1.5402840857
 H    0.9128116049    2.0139728015    0.0915235672
 H   -0.3280302773    1.6536875292   -1.1180679207
 H   -0.7993801164    2.1131791900    0.5229169271
 H    0.7179045463   -0.4673545536   -0.2255339927
 H    0.2613186561   -0.0081689452    1.4078264247
 H   -2.1818357911   -0.1445160039    0.7596679620
 H   -2.8325295764   -1.0533698795   -1.4770262703
 H   -1.0601080932   -1.2130192600   -1.9256455908
 H   -2.4202902322   -2.5377370966    0.5287024648
 H   -0.5532202385   -6.0091491059    2.1613888516