17

 O    0.0039392691    0.6147140922   -1.5288263262
 C    0.0129500804    0.1326651308   -0.1915693722
 C   -1.3267755695   -0.5408108500    0.0027611518
 C   -1.6301804236   -1.9687394036   -0.1917749050
 C   -0.4985049607   -2.8824287358    0.2719972265
 C   -0.6544994962   -2.2079837030    1.6656850532
 C    0.4933727159   -1.5702749859    2.3011949623
 N    1.4050988829   -1.0738415801    2.8108133382
 N   -1.7742614135   -1.3065459946    1.1887527585
 H    0.8065975775    1.1269361906   -1.6644171701
 H    0.8540874383   -0.5508375315   -0.0231969281
 H    0.1118365024    0.9520211484    0.5358079756
 H   -2.1349760189    0.1208579438   -0.3024921482
 H   -2.5026514985   -2.3073883048   -0.7396064230
 H   -0.7657953018   -3.9386993444    0.3005754717
 H    0.4604414966   -2.7723432057   -0.2385097116
 H   -1.0919803004   -2.8988659165    2.3906860664