19

 C    0.3615088602    1.4358401619   -0.3083552842
 C   -0.1068611625    0.0531789348    0.0892467725
 C   -1.5824021760   -0.2201522486   -0.1579738166
 C   -2.1500023626   -1.4490725649    0.5191376113
 O   -1.5503342210   -2.7127209765    0.2264014730
 C   -1.4055307084   -2.1878735956    1.5480956118
 C   -0.0202600749   -1.7645122521    1.9835018557
 C    0.6286010681   -0.7104308345    1.1125038637
 O    0.7906434322   -1.0059757351   -0.2779142423
 H    1.4400212700    1.5303482923   -0.1605612949
 H    0.1451214824    1.6251174398   -1.3658770704
 H   -0.1435991121    2.2090561249    0.2806306395
 H   -2.1584211263    0.6484465040    0.1876370229
 H   -1.7533034475   -0.2900950581   -1.2405969749
 H   -3.2406181390   -1.4788880006    0.5518829232
 H   -1.9725102619   -2.7343802389    2.3037099275
 H   -0.0865498482   -1.3714600432    3.0069225897
 H    0.6325156650   -2.6458728677    2.0329337910
 H    1.5027995727   -0.2361334718    1.5639517715