14

 O    0.0133451529   -0.1130179332    0.1452677457
 C    0.0199752320    1.0682962583   -0.0719089037
 C    1.3018239529    1.8776942636   -0.2206706353
 C    1.2239429045    2.8875972375   -1.3141189768
 N    0.2942813384    3.0141379869   -2.1702087246
 C    0.6866722891    4.1309648060   -3.0209101365
 C    2.0250299647    4.6076602376   -2.4685217019
 O    2.7614529926    5.4804832369   -2.7948252327
 O    2.2895097563    3.7621681368   -1.3862318300
 H   -0.9144965922    1.6587773175   -0.1505983013
 H    1.4940500306    2.4023041000    0.7264466384
 H    2.1459093477    1.1989043385   -0.3788937932
 H    0.7900868956    3.8224323914   -4.0666396903
 H   -0.0519333352    4.9391387520   -2.9944833577