21

 C   -0.0616672689    1.5756790349   -0.0420521251
 C    0.0341779958    0.0530335961   -0.1010392450
 C    1.3289256663   -0.4781195789   -0.7902551974
 C    1.9665470939   -0.6922511637    0.6115696278
 C    0.5345635135   -0.6129823733    1.2078841066
 O    0.3188744349    0.1391284572    2.3770333700
 C    0.8189157917   -0.4617566843    3.5435498081
 C    0.4625684102    0.4246817573    4.7242232064
 O    0.7905784697    0.1915743012    5.8568207799
 H    0.8677064218    2.0276689659    0.3181618777
 H   -0.2674084596    1.9787129587   -1.0392073499
 H   -0.8632126003    1.8947998126    0.6297667514
 H   -0.9039861266   -0.3579097582   -0.4850771778
 H    1.1659846042   -1.4198743389   -1.3202397257
 H    1.8385772267    0.2149213328   -1.4635707912
 H    2.5429538907   -1.6047802482    0.7786623368
 H    2.5650949621    0.1682203904    0.9236484316
 H    0.1072562036   -1.6206540982    1.3308095707
 H    0.3829541937   -1.4622153277    3.7109350765
 H    1.9130316656   -0.5902128067    3.5147782194
 H   -0.1388692991    1.3173312111    4.4432369291