15

 N    0.1368705454    1.3807724878    0.1422605364
 C   -0.0063914383   -0.0033156208    0.0317073640
 C   -1.1772979552   -0.6864044166    0.0167526540
 C   -1.2238376935   -2.1492041260   -0.0068542621
 O   -2.2742596899   -2.7852443368   -0.0178148858
 C    0.0937516542   -2.7914606058   -0.0406273829
 C    1.2263167638   -2.0543024611   -0.0275276255
 O    2.5016637617   -2.5100068233   -0.0302325537
 N    1.1949935038   -0.6830431176   -0.0095492477
 H    0.7809408009    1.7810478799   -0.5303496316
 H   -0.7514188082    1.8611851283    0.1002578462
 H   -2.1198868790   -0.1527530542    0.0049547906
 H    0.1357079665   -3.8736230136   -0.0804202224
 H    2.4815538418   -3.4727942683   -0.0104158741
 H    2.0511438061   -0.1975066820    0.2089806145