23

 C    0.0731310446    1.6353913560   -0.0947348581
 C    0.0665636068    0.1070370480   -0.0790496375
 C    0.8581451036   -0.5627817035   -1.2241831497
 C    1.0012129529   -2.0251439158   -0.7688764911
 C    1.2152037600   -1.9341277964    0.7477452785
 C    0.8704722362   -3.1836664835    1.5333771351
 O    2.5699705245   -1.4814997028    1.0470523592
 C    2.0927446752   -0.2263567132    1.5686557521
 C    0.6341191704   -0.5537446178    1.1918923608
 H    1.0902908773    2.0348756211   -0.0215723880
 H   -0.3625117402    2.0177817167   -1.0239069818
 H   -0.5081339795    2.0470847056    0.7375011314
 H   -0.9778298889   -0.2273507283   -0.1627594422
 H    0.3627576691   -0.4582594636   -2.1938509971
 H    1.8489932455   -0.1020770796   -1.3138659593
 H    0.0785513132   -2.5816844006   -0.9760191850
 H    1.8274611995   -2.5570616939   -1.2495335216
 H    1.4919079892   -4.0242704177    1.2059883634
 H    1.0457423284   -3.0317062605    2.6024898766
 H   -0.1796657081   -3.4589991046    1.3881212609
 H    2.2809253752   -0.1344297056    2.6464110806
 H    2.5544963860    0.6299388752    1.0617156691
 H   -0.0696774612   -0.5513335852    2.0266370538