11

 O    0.0661131014    1.3598387810    0.0698893509
 C    0.0652874561    0.0199554602    0.0592111442
 N    0.0969097878   -0.6679398197   -1.0590766415
 O    0.0846527543   -2.0034208256   -0.6710676734
 C    0.0455560321   -2.0670107053    0.6815991728
 C    0.0314439711   -0.8086268413    1.2098022244
 C    0.0273073487   -3.3429630642    1.2771783815
 C    0.0115359173   -4.4299632126    1.7924956614
 H    0.0928370919    1.6620703517   -0.8482462375
 H    0.0018707141   -0.5183283408    2.2451063728
 H   -0.0023351747   -5.3907074935    2.2457544543