19

 C    0.3300301478    1.1689600863    0.1335443550
 C   -0.0355114637   -0.2950381622    0.2265483838
 O    0.7760701345   -1.1349164999    0.5568638303
 C   -1.4905286175   -0.6734235573   -0.0871677064
 C   -1.6136358233   -2.0524341637   -0.7824654884
 C   -1.8177789841   -3.0776185984    0.3628979127
 O   -0.6231596307   -3.7170103976    0.7783897166
 C   -2.4029483880   -2.2108812263    1.4627425022
 C   -2.2191875937   -0.9124834059    1.2290921825
 H    1.3553662132    1.3291678753    0.4680672332
 H    0.2207245710    1.5106633914   -0.9025619609
 H   -0.3607576292    1.7704618810    0.7356678669
 H   -1.9500079430    0.1324562144   -0.6692642707
 H   -2.4972188757   -2.0358136743   -1.4273785584
 H   -0.7468907931   -2.3140924696   -1.3926126895
 H   -2.4890390837   -3.8885166923    0.0622646861
 H    0.0341586300   -3.0124015512    0.8951078766
 H   -2.8441061806   -2.6326978670    2.3585917959
 H   -2.4864110204   -0.1003088627    1.8965038926