19

 C    0.0290804571    1.4286349542   -0.0028568835
 C   -0.0074562632   -0.0803410574    0.0185692721
 C   -1.3277595813   -0.7808786713   -0.3029881681
 O   -1.2768851453   -2.0464155630    0.3635732630
 C    0.0744127836   -2.2488841842    0.7449830479
 C    0.6775528661   -0.8671132054    1.0942152562
 C    1.2813973297   -0.8284970672   -0.3084638728
 C    1.0255735233   -2.3163736913   -0.5004974831
 O    2.2288358384   -3.0160523076   -0.2473761468
 H    1.0099327162    1.8061201371    0.3013819720
 H   -0.1765372809    1.8167085813   -1.0070264268
 H   -0.7196862189    1.8502083448    0.6770469582
 H   -2.1813347640   -0.2127234576    0.0882607262
 H   -1.4802228044   -0.9231162059   -1.3821688012
 H    0.1354809346   -3.0771146006    1.4509227112
 H    1.0324985111   -0.4863997218    2.0423278115
 H    2.1631887249   -0.3028828046   -0.6568696806
 H    0.5548806582   -2.6518281741   -1.4366039905
 H    2.0282072647   -3.9578598455   -0.2588974452