16

 C    1.0774926081    1.6770518523   -0.4779217368
 C    0.2845655434    0.4396353462   -0.0769682999
 O    0.5016109122   -0.6232870031   -1.0180138158
 C   -0.4654628547   -0.8896120547   -1.9195675244
 O   -0.3557285941   -1.7351072056   -2.7533475809
 C    0.6441081882   -0.0513651553    1.3396967473
 C    0.6994543148   -1.5427352628    1.5763149141
 O    0.8401973044    0.7635682642    2.2092561184
 H    2.1335658878    1.4237253069   -0.6043180276
 H    0.7027296473    2.0867427616   -1.4194632474
 H    0.9903431779    2.4300421369    0.3069998717
 H   -0.7909982718    0.6760232332   -0.0498431237
 H   -1.3582994347   -0.2458238490   -1.7902878591
 H   -0.2424318149   -2.0170503532    1.2792965599
 H    1.4780537397   -1.9944680224    0.9540957149
 H    0.8978191162   -1.7320315752    2.6313555893