15

 O   -0.0108299538   -0.0390843282   -0.2251902292
 C   -0.0224187489    1.1620872198   -0.0488347197
 C   -1.3166669124    1.9657922114    0.0981226504
 O   -1.1751789717    3.0702792207    0.9834785868
 C   -0.1851385202    3.9597752276    0.5656205813
 C    1.0405569399    4.0782148167    1.4294248242
 C    1.1050720807    3.3494307390    0.0975812391
 N    1.1102926693    1.9206783646    0.0587789349
 H   -1.6580075054    2.2906310989   -0.8970735173
 H   -2.0728744528    1.3044104685    0.5222215635
 H   -0.5597677885    4.8425688947    0.0498975707
 H    1.5272638930    5.0435489921    1.5104534061
 H    1.0523465113    3.4637914643    2.3218568322
 H    1.6295057180    3.8346357431   -0.7216204479
 H    1.9855155615    1.4167617768    0.0443806650