20

 N   -0.2391013243    1.1168715213   -0.2516612255
 C   -0.3059461590   -0.1376537859   -0.3700214961
 O   -1.0458027326   -0.8583099121    0.4996934668
 C   -1.0656862629   -2.2503214734    0.2829934632
 C   -2.1983971086   -2.9871888408    0.9270554707
 C   -2.1499612811   -2.8467880330   -0.5710335139
 C   -3.0873009450   -2.0523765156   -1.4889790551
 C   -2.6135394145   -2.9524859254   -2.6699833815
 C   -1.9449932787   -3.9206889105   -1.6479606092
 H    0.3626880291    1.5011309843   -0.9771105127
 H    0.1959755435   -0.7525005617   -1.1298732479
 H   -0.0778218720   -2.7084057835    0.2746418830
 H   -1.9917923216   -3.9530732921    1.3768716811
 H   -2.9232067599   -2.3795166557    1.4593589301
 H   -4.1426841320   -2.1994306310   -1.2407246309
 H   -2.9002769937   -0.9791005333   -1.5719712095
 H   -3.3933848497   -3.3765387159   -3.3053148697
 H   -1.8825501928   -2.4511778355   -3.3092069600
 H   -0.9148687788   -4.2274465648   -1.8523996838
 H   -2.5423923555   -4.8193961554   -1.4642758890