21

 C    0.1392956511    1.6702159754    0.1915560588
 C    1.3354690032    0.7846382323   -0.0224744796
 O    2.0696359292    0.4553206747    1.1278043973
 C    1.4713633671   -0.6791539488    1.7779970100
 C    1.4622406439   -0.4667538057    3.2914188674
 C    0.2029727021    0.3790266860    3.5433068903
 C   -0.8349261436   -0.2032084364    2.5588068635
 C   -0.0224548549   -0.7015229145    1.3290377723
 C   -0.0270505963    0.1643581202    0.0682856848
 H    0.0324557990    2.1409227899    1.1620572434
 H   -0.2084175588    2.2702290988   -0.6434610316
 H    1.9224020973    0.8306823147   -0.9348816882
 H    2.0171550131   -1.5850402485    1.4808305822
 H    1.3691631810   -1.4419164221    3.7853613474
 H    2.3877357026   -0.0021346867    3.6404062252
 H   -0.1347403727    0.3447425154    4.5828344558
 H    0.4147499128    1.4268057035    3.3061457147
 H   -1.3487034508   -1.0506133123    3.0261129165
 H   -1.6046627195    0.5202203117    2.2771389758
 H   -0.3313944161   -1.7145518052    1.0582871263
 H   -0.5294210297   -0.2163976222   -0.8131636623