17

 O    0.3948974495    1.0061323874   -0.7238550035
 C    0.1018051644   -0.2222774887   -0.1267851660
 C    0.4090410647   -0.2348184400    1.3706765013
 O    1.2208666041    0.4762247543    1.9040935616
 C   -0.5980564571   -1.1833909717    2.0104501468
 O   -1.4338774830   -1.6108600513    0.9420793863
 C   -1.3625735534   -0.6276437687   -0.0782009785
 C   -2.4761767277    0.3675359406   -0.2444677754
 C   -2.2732439326   -0.7676112387   -1.2398679937
 H    0.9933594762    1.4656808582   -0.1160088720
 H    0.6752034208   -1.0431891054   -0.5951011485
 H   -0.1202143395   -2.0529240620    2.4725263460
 H   -1.1575871716   -0.6407018465    2.7869940609
 H   -3.3189320533    0.2874948137    0.4326170443
 H   -2.2081063226    1.3711588775   -0.5531842599
 H   -1.8850060604   -0.5275334880   -2.2237522599
 H   -2.9798559785   -1.5895267909   -1.2102829397