23

 C   -0.0433470293    1.5652627109    0.1378171578
 C   -0.0174505807    0.0494228397    0.0111111051
 C    1.0202399260   -0.6415412593   -0.9605099112
 C    1.2429201571   -1.7587727390    0.1198255877
 C    2.5812321516   -2.1363678928    0.7826051129
 C    2.3512782913   -1.8235788886    2.3018452425
 C    3.6257215480   -1.3961456958    3.0360008482
 C    1.2726963739   -0.7352988122    2.2593062096
 C    0.6391068355   -0.7825381062    1.0924044044
 H    0.9538098668    1.9514815462    0.3732468311
 H   -0.3795683795    2.0331468715   -0.7938708759
 H   -0.7236634150    1.8845765972    0.9347148600
 H   -1.0214298295   -0.3277759637   -0.2227135586
 H    0.6498730428   -0.9488763120   -1.9420650602
 H    1.9106960292   -0.0178584627   -1.0847392226
 H    0.6127385928   -2.6310958185   -0.0924974433
 H    2.8918728089   -3.1715040082    0.6093948969
 H    3.3824599324   -1.4855135066    0.4098602107
 H    1.9623328526   -2.7239128331    2.8027498396
 H    4.0453211496   -0.4858470577    2.5925718078
 H    3.4292754677   -1.1938500196    4.0944722428
 H    4.3906755116   -2.1785878981    2.9840650613
 H    1.1442216561   -0.0099781514    3.0556819435