15

 C   -0.0028440437    1.5411105983   -0.0932360371
 C    0.0007621443    0.0381718740    0.0596580660
 O    0.0022806510   -0.5208297018    1.1365815628
 C    0.0002907402   -0.7647521397   -1.1882236966
 C    0.0022767044   -2.1134126279   -1.4198709998
 C    0.0056470894   -3.2750196551   -0.4910821819
 N    0.0003190295   -2.2603053326   -2.7922807228
 N   -0.0012913315   -1.1388184302   -3.3673014189
 O   -0.0028936218   -0.1335175304   -2.3740581534
 H    0.8740340201    1.8680955320   -0.6619250041
 H   -0.8819219163    1.8641668807   -0.6607709067
 H   -0.0032008526    2.0013850670    0.8947239278
 H   -0.8749468101   -3.9030521609   -0.6602312188
 H    0.8876959272   -3.9002245363   -0.6630864682
 H    0.0067498200   -2.9267160171    0.5410443016