17

 O   -0.2977349064    1.3949929013   -0.1844993178
 C   -0.0457604830   -0.0001275460   -0.1555404135
 C   -1.3888999741   -0.6966224431    0.0336025290
 C   -1.2619366624   -2.2038745906    0.1873194396
 O   -2.5214555699   -2.8263404585    0.3843680010
 C   -2.8929697843   -3.4701809262   -0.8153168842
 C   -1.6230090171   -3.5163188951   -1.6525124899
 O   -1.4245786115   -4.0630800297   -2.6942405309
 O   -0.6875623472   -2.7871493509   -0.9878900795
 H    0.5297659031    1.8459436827   -0.3756583957
 H    0.4236513260   -0.3478856533   -1.0866408012
 H    0.6311770893   -0.2675667105    0.6734319104
 H   -1.8747676014   -0.3070882226    0.9343895981
 H   -2.0436694840   -0.4727109751   -0.8159348875
 H   -0.6149354536   -2.4688855417    1.0322607614
 H   -3.2551943497   -4.4814387606   -0.6076832425
 H   -3.6758991039   -2.9245587802   -1.3603409366