16

 O    0.9544041340   -0.2665452283   -0.2814779636
 C    0.4294166687    0.7930310864   -0.0574351369
 C    1.1436666910    2.1078812330    0.0723965323
 C    0.5827712807    3.2875073679   -0.7942408037
 C    0.6964652371    4.1718555880    0.4474269462
 C    1.3345188795    5.4808139736    0.5847150778
 O   -0.0877892672    5.3116142102    0.7131469185
 C    0.8172723195    2.9477956430    1.3550815512
 H   -0.6775484560    0.8710155766    0.0756381213
 H    2.2145896072    1.9558023914   -0.0684556464
 H    1.1466633695    3.5618851096   -1.6875417885
 H   -0.4656803987    3.1250001782   -1.0675584432
 H    1.8575001311    5.7364053150    1.5054397896
 H    1.6602349082    6.0222020865   -0.3026282155
 H   -0.1549812734    2.6749237266    1.7800749210
 H    1.5653590687    2.9553702724    2.1497847996