15

 C   -0.0051978028    1.5017517269   -0.0598139451
 N    1.3549393797    2.0211555026    0.1211057312
 C    2.3394651239    1.2464037680    0.2768115312
 O    2.3886159709   -0.1190893045    0.3131109281
 C    1.1568313027   -0.7133155154    0.1519652312
 C    0.0101114956    0.0107975064   -0.0255452129
 N   -1.0099460615   -0.9011107730   -0.1499754421
 C   -0.5059091754   -2.1764659121   -0.0512120093
 C    0.8570621005   -2.0967974305    0.1393487588
 H   -0.6418270834    1.9377393984    0.7254895257
 H   -0.3969438904    1.9004019176   -1.0083381666
 H    3.3420643105    1.6451278702    0.4098044270
 H   -1.9785369782   -0.6743433940   -0.2916303774
 H   -1.1531298453   -3.0348554912   -0.1240212007
 H    1.5442079729   -2.9190025495    0.2540225109