17

 C    0.0108624740    1.5267662990   -0.0376783119
 C    0.0016046632   -0.0058274323   -0.0385453019
 C   -1.4262701529   -0.5627385226   -0.0373969487
 N    0.6859288402   -0.4766694548   -1.2398676142
 C    1.7087265217   -1.1807822303   -1.0949951947
 O    2.3775485640   -1.6412860045   -2.2020804180
 C    3.4887015038   -2.4035848162   -2.0079987133
 O    4.1226407173   -2.8396507813   -2.9152985752
 H    1.0342577332    1.9127490825   -0.0239567062
 H   -0.4842555999    1.9095392633   -0.9350264538
 H   -0.5142603863    1.9104424514    0.8424544938
 H    0.5173309931   -0.3604225281    0.8718517340
 H   -1.9608835441   -0.2375964745   -0.9348162915
 H   -1.4206057680   -1.6564828278   -0.0233185981
 H   -1.9723418829   -0.2093220481    0.8426585201
 H    2.1551301298   -1.4880985604   -0.1394950293
 H    3.7217158338   -2.5623132053   -0.9394067310