17

 O   -0.2131675708    1.2153408881    1.1362488147
 C   -0.0461553657    0.1027646056    0.3048835341
 C    0.4772775867   -1.1983790475    0.9816519403
 C   -0.9030764454   -1.8527772543    0.7999358474
 C   -1.9892628943   -1.4147699997    1.8326896269
 O   -1.4504022738   -0.7814798676    2.9876994278
 C   -2.5362227319   -0.4156249504    0.7714049878
 O   -3.5334300586    0.2458639645    0.7250281705
 C   -1.3660834450   -0.6780056209   -0.1534712124
 H   -0.5354427085    0.8913034635    1.9897785180
 H    0.5358198720    0.4421763232   -0.5542604488
 H    1.2445532620   -1.6931345381    0.3805964049
 H    0.8456377309   -1.0859878429    2.0033795254
 H   -0.9572356828   -2.9015098498    0.5115261369
 H   -2.6968393031   -2.2084846898    2.1061908967
 H   -2.1897780158   -0.4195803940    3.4901354365
 H   -1.5324986559   -0.7463474799   -1.2281900468