17

 C   -0.2436607901    1.4945523543    0.1615447054
 C   -0.0017650100   -0.0040745557    0.0436345425
 C    1.0693527478   -0.4388619767   -0.9927075049
 N    2.0360638376   -0.6416981611    0.1113911926
 C    0.9682551922   -0.6492964114    1.1299027828
 C    1.2775887644    0.2299359466    2.3468717001
 O    0.6664393414    0.1975687279    3.3780166300
 C    0.5136085329   -1.9793703768    1.5412505510
 N    0.1912454860   -3.0544208506    1.8189891863
 H    0.6952704284    2.0557501172    0.1955568703
 H   -0.8083496099    1.8432775821   -0.7089438123
 H   -0.8244981399    1.7374687019    1.0563523181
 H   -0.9483632728   -0.5399181903   -0.0268624443
 H    0.7917895674   -1.3532571879   -1.5301054692
 H    1.3831536060    0.3203925229   -1.7161936875
 H    2.6101931567   -1.4764221763    0.0688452936
 H    2.1186227418    0.9295201740    2.1555513955