16

 C   -0.0062638210    1.4729843092   -0.0178912737
 C    0.0046598551   -0.0439250181   -0.0055043395
 O    0.6814192737   -0.4808810091   -1.1894230088
 C    0.7879121733   -1.8095879684   -1.3554153944
 N    0.3058697330   -2.6921004087   -0.4882457218
 N    0.6290738053   -3.8901918125   -1.0394995764
 C    1.2915880919   -3.7717970278   -2.2124135494
 C    1.4208037481   -2.4240730784   -2.4637237751
 H    1.0132782888    1.8688015069   -0.0270720799
 H   -0.5290566603    1.8505889600   -0.9012505380
 H   -0.5160563571    1.8502624033    0.8737495497
 H    0.5237811601   -0.4391695184    0.8761209680
 H   -1.0110853949   -0.4574844341    0.0054931384
 H    0.3647121840   -4.7306969927   -0.5579154119
 H    1.6154194592   -4.6366125948   -2.7702206249
 H    1.8918119508   -1.9447273964   -3.3045028322