17

 O   -0.4817173839    0.5859589245   -0.2966727493
 C    0.4796018211    0.9374640089    0.3358931027
 C    1.4105036913    2.0680716396   -0.0970370674
 C    0.9334753646    2.8165372988   -1.3469890681
 C    1.1184888205    2.0024521856   -2.6066555440
 C    1.6493686164    2.5911898369   -3.8407505584
 O    2.4794471857    1.7852030614   -3.0012087620
 C    1.6630338571    2.9771559927    1.1056509657
 O    1.9857525837    2.5714118336    2.1908843766
 H    0.7573942943    0.4673580468    1.2999635453
 H    2.3826416982    1.5906935056   -0.3000005238
 H   -0.1251878429    3.0781213402   -1.2387499750
 H    1.5003948409    3.7500874575   -1.4391900186
 H    0.4860990454    1.1202315889   -2.6863277846
 H    1.3940173004    2.1535200652   -4.8045061944
 H    1.8995264714    3.6514067961   -3.8654768390
 H    1.5178600157    4.0634252878    0.9096380246