20

 C   -0.4606086017    1.3922410072   -0.5931103173
 O   -0.3818067255   -0.0089221226   -0.6841049922
 C    0.9002313515   -0.5082085460   -0.3511393760
 C    0.8679935587   -2.0138630958   -0.5071843652
 C    0.8732461612   -2.6057993594   -1.9191937258
 N    2.1860469936   -2.2495291926   -2.5181477182
 C    2.0731272365   -3.4351388571   -1.6289029550
 C    2.1978079049   -2.8348359658   -0.2198744290
 O    3.3764575871   -2.1244033162    0.0436423835
 H   -0.2512383692    1.7491304615    0.4282738727
 H    0.2458555903    1.8885605277   -1.2777057497
 H   -1.4785136183    1.6831144401   -0.8654884165
 H    1.6651349419   -0.0695018079   -1.0094534132
 H    1.1653551613   -0.2411993213    0.6854789160
 H    0.0407752546   -2.4218960247    0.0808612238
 H    0.0233790650   -2.8257055137   -2.5522670522
 H    2.1920060770   -2.5830982333   -3.4801153405
 H    2.3601823893   -4.4195775348   -1.9775613012
 H    2.0656396183   -3.5587552013    0.5865744086
 H    3.5867358234   -1.6678387639   -0.7831649024