16

 C   -0.0219065091    1.4372704071   -0.0510429557
 N   -0.0725645996   -0.0078724531   -0.0941755026
 C   -1.1963613910   -0.8260258423    0.0191434897
 C   -0.7769563753   -2.0952539970   -0.0666877034
 C   -1.4484447975   -3.4197844186   -0.0420900999
 O   -1.3726444955   -4.1060059375   -1.2840929230
 O    0.5988339500   -2.1009018108   -0.2397437126
 C    1.0480748897   -0.7936181497   -0.2625057797
 O    2.1968148424   -0.4671123735   -0.4015562389
 H    1.0223911144    1.7266521443   -0.1766066725
 H   -0.6169541972    1.8763577152   -0.8584172774
 H   -0.3878089506    1.8162614461    0.9088328773
 H   -2.1879689837   -0.4271617491    0.1502765222
 H   -1.0277572633   -4.0320893163    0.7709215192
 H   -2.5111048892   -3.2720382343    0.1697482227
 H   -0.4389079944   -4.2200051604   -1.4923186752