15

 N    0.4792275991    0.9384662821   -0.9562315924
 C    0.2007572205   -0.2204575683   -0.2622891732
 N   -0.9583973442   -0.8714982274   -0.3758500473
 N   -0.8368524868   -1.8591657122    0.5187577764
 N    0.2899536090   -1.9061206273    1.2015541678
 C    0.9898653855   -0.8763527836    0.7186102867
 C    2.3593024060   -0.5699123917    1.1802101768
 C    3.5321893603   -0.7136916789    0.2967993827
 O    2.9808507903    0.5760641629    0.5769252422
 H    1.4572625343    1.1868589640   -0.9579385090
 H    0.0170423710    1.0209806962   -1.8487722762
 H   -1.5781633649   -2.5212337487    0.6720598854
 H    2.5287860593   -0.6622031195    2.2521627310
 H    4.5129661447   -0.9012075005    0.7302827384
 H    3.3884221360   -1.0730016572   -0.7202889193