17

 C   -0.1413851042    1.6578924603   -0.8396142681
 N   -0.3278998546    0.2388753577   -1.0632773798
 C    0.1595605325   -0.5539321442   -0.2060147241
 N    0.0195408700   -1.9261819944   -0.3547693456
 C    0.5256163036   -2.8502684544    0.5416069920
 O    1.1401721714   -2.5374385341    1.5424760342
 C    0.2488546943   -4.2216899569    0.1657955026
 C    0.0393099171   -5.3759741049   -0.1116837416
 C   -0.2059864150   -6.7713634855   -0.4322933120
 H    0.4199927378    1.8944565246    0.0777540098
 H    0.3877701354    2.0970805501   -1.6933151164
 H   -1.1184424895    2.1520220558   -0.7857525902
 H    0.7128399571   -0.2756748447    0.6955966771
 H   -0.4831157203   -2.2486906501   -1.1692833491
 H   -0.8594653865   -7.2314471786    0.3167739493
 H   -0.6843597053   -6.8793199754   -1.4110874914
 H    0.7317288861   -7.3370235352   -0.4476347168