27

 C    0.3839693910    1.5816686358    0.2318882479
 C   -0.0167418536    0.1282049550   -0.0350987017
 C    0.7579558553   -0.5086333497   -1.1933956820
 C    0.3533576428   -1.9626113934   -1.4728783560
 C    1.1243497075   -2.5731574257   -2.6265942750
 C    2.4679972483   -3.2324054690   -2.4088025504
 C    1.2780874536   -4.0631642490   -2.8330597428
 C    0.6757353670   -5.1038893078   -1.9096076831
 C    1.3902312543   -6.4572553042   -2.0069263759
 H    1.4472175615    1.6591114475    0.4853614758
 H    0.2102026553    2.2083191835   -0.6501540251
 H   -0.1876663609    2.0097243316    1.0614755207
 H    0.1380321022   -0.4674826577    0.8745308288
 H   -1.0929525368    0.0779988422   -0.2484805119
 H    0.6076682671    0.0903210397   -2.1026792471
 H    1.8349216673   -0.4686298780   -0.9812954265
 H    0.5031310744   -2.5558469931   -0.5627557563
 H   -0.7242787081   -2.0015681105   -1.6864941811
 H    1.0373420688   -1.9978873212   -3.5466548404
 H    3.2703473379   -3.0520834585   -3.1161249118
 H    2.8032405996   -3.3400131665   -1.3804795600
 H    1.2839277976   -4.3750855183   -3.8761092703
 H    0.7107234676   -4.7520200653   -0.8725489491
 H   -0.3878973502   -5.2358078091   -2.1498093293
 H    1.3431208765   -6.8560038429   -3.0264544360
 H    2.4477769467   -6.3629773462   -1.7387228921
 H    0.9363324073   -7.1964595695   -1.3392087693