14

 N    0.1413895108    1.4095006625    0.1549750133
 C   -0.0238635283    0.0170586903    0.0433402788
 C   -1.1095894465   -0.8104199664    0.0478024223
 C   -0.6206744668   -2.1682252383   -0.0153432965
 C   -1.3289406478   -3.3851159042   -0.0421544781
 N   -1.8629928305   -4.4160597953   -0.0689634552
 C    0.7616006553   -2.0874720413   -0.0672006268
 O    1.7176183935   -3.0279395977   -0.1423161244
 N    1.1181879846   -0.7803812531   -0.0285672770
 H    0.2712672729    1.8623461972   -0.7456393078
 H   -0.6616117626    1.8334983107    0.6026125189
 H   -2.1453251755   -0.5132232156    0.0776168687
 H    1.2917251429   -3.8941597180   -0.1697548186
 H    2.0623702080   -0.4383371008    0.0378685725