18

 C    0.0240384886    1.4409562925    0.0239962587
 N    0.0223580943   -0.0008539386    0.0112532395
 C   -0.0285427186   -0.8341155666   -1.1019613123
 N   -0.0189910491   -2.0907373634   -0.8622197699
 C    0.0454241972   -2.1936574872    0.5735651109
 C   -0.6702639162   -3.3206563384    1.2936468266
 C    0.8212491203   -3.3218678727    1.2265171106
 C    0.0725533171   -0.8134387770    1.1480281252
 N    0.1281283024   -0.4998013173    2.3817709514
 H    0.9350452496    1.8317912408    0.4929438559
 H   -0.0208690905    1.8101025764   -1.0026109206
 H   -0.8415426134    1.8333139121    0.5712094490
 H   -0.0726357354   -0.3943705665   -2.0929891970
 H   -1.1404955641   -3.0476602527    2.2317388949
 H   -1.2159529907   -4.0123516904    0.6631394963
 H    1.3069134090   -4.0143114644    0.5494642168
 H    1.3742683612   -3.0496491408    2.1185445500
 H    0.1356059685    0.5094782043    2.5266056541