14

 C    0.0175887631    1.5226781273    0.2171383315
 C   -0.0376739763    0.0457275372   -0.0318334569
 C   -1.1659823696   -0.6771629034    0.0604521153
 O   -1.2084812486   -2.0177966005   -0.1673113437
 C   -0.0478012258   -2.6861405803   -0.5119897042
 N   -0.0221536984   -3.9339523504   -0.7378593393
 C    1.1462050722   -1.8421261161   -0.5949146857
 N    1.1672428738   -0.5768941217   -0.3757596228
 H    0.7130397817    1.7496090215    1.0322756535
 H    0.3819954655    2.0494631660   -0.6712735628
 H   -0.9655818595    1.9222009807    0.4785881426
 H   -2.1411245260   -0.2846623528    0.3191753689
 H   -0.9495141297   -4.3471700361   -0.6305120206
 H    2.0656074076   -2.3566108414   -0.8640832658