18

 O   -0.2086947133    0.0105604660    0.0823959229
 C   -0.0604883464    1.2033569741    0.0266816233
 C    1.2788329724    1.9148780873   -0.0050473713
 C    1.3302491642    2.8957873971   -1.1831664963
 C    2.7318520869    3.4359828058   -1.4326638806
 O    3.2064868976    4.3993897622   -0.4915557200
 C    3.3198757825    4.1133324838    0.8333612030
 N    2.6775630109    3.3702876891    1.6208660924
 C    1.4719373552    2.6144905256    1.3610118542
 H   -0.9414503798    1.8896774756    0.0080406763
 H    2.0490704735    1.1446820011   -0.1274788977
 H    1.0157238922    2.3863513262   -2.1030125271
 H    0.6351473279    3.7303995981   -1.0265686859
 H    3.4468295168    2.6026729329   -1.4736603757
 H    2.7692732854    3.9604718633   -2.3906087185
 H    4.1303282895    4.7202660542    1.2400037204
 H    0.6226733085    3.2970432211    1.5232291334
 H    1.3972811160    1.8524858466    2.1444672373