19

 C   -0.1578927438    1.5366682685   -0.0537633371
 C    0.0639969706    0.0635431036   -0.0102114073
 C    0.4106952939   -0.9663196621   -1.0176594419
 C    1.4290629901   -1.6321045005   -0.0993109242
 C    0.6598871603   -0.9525484425    1.0702939029
 C    1.3280411155   -0.6423016271    2.3828601465
 C   -0.7141966418   -1.6384491017    0.9646466214
 N   -0.9500629864   -0.9741393662   -0.3565140367
 H    0.7911404953    2.0840971073   -0.0357734222
 H   -0.6906717298    1.8058991548   -0.9712417587
 H   -0.7596232887    1.8786776270    0.7961197332
 H    0.4083362624   -0.8969726481   -2.0980312727
 H    1.5043842689   -2.7257015189   -0.0854599018
 H    2.4223270836   -1.1958644021   -0.2403986159
 H    2.2364703921   -0.0463866657    2.2417054142
 H    0.6614413551   -0.0847007231    3.0502977797
 H    1.6166214903   -1.5655968575    2.8997879425
 H   -0.7476907393   -2.7353512335    0.9557038321
 H   -1.4480198181   -1.2546155322    1.6798103559