16

 O   -0.0567246254    1.3635695357    0.0763760118
 C   -0.0180595001   -0.0227680986    0.0254644628
 C   -0.4715476919   -0.7068640336   -1.2632597312
 C   -1.3211625445   -0.7710117858   -0.0255292505
 O   -1.3702753884   -2.0247826623    0.6176283882
 C   -0.5028005250   -2.0995517167    1.6971171468
 O    0.8660468996   -1.8765804704    1.3162932044
 C    1.0981514412   -0.6368773626    0.8016461724
 N    2.1844497441   -0.0025364035    0.9324469716
 H    0.8664269806    1.6362631820    0.1890618538
 H   -0.7767169771   -0.0302316480   -2.0527797829
 H    0.0145468096   -1.6253358234   -1.5711757879
 H   -2.2460297930   -0.2041707522    0.0272184960
 H   -0.7626826950   -1.3709057909    2.4790328593
 H   -0.5412997433   -3.1172760653    2.0855479334
 H    2.8528940887   -0.5182131145    1.5050754923