16

 C    0.0098539792    1.4031022863    0.2228721465
 C    1.1583431688    2.0891426651    0.2158805918
 C    2.5032983446    1.5898582680   -0.1075636154
 C    2.8902361416    0.9308963054   -1.2056424600
 C    2.0659103767    0.5428749755   -2.3600833401
 C    0.9175721593   -0.1434147151   -2.3528826199
 C    0.1960373747   -0.6788180617   -1.1886049500
 C   -0.1910542709   -0.0196057169   -0.0907322421
 H   -0.8833078079    1.9237130987    0.5683844811
 H    1.1265415544    3.1242124494    0.5561263968
 H    3.2752767202    1.8619873839    0.6122614460
 H    3.9523442579    0.7088219727   -1.3093581765
 H    2.4957549862    0.7912370278   -3.3304971401
 H    0.4861935858   -0.4097454343   -3.3178323838
 H   -0.1126102681   -1.7199129456   -1.2835312320
 H   -0.7899796825   -0.5662581091    0.6376957880