15

 C   -0.0153583520    1.4164902062    0.0072850230
 O    0.0246085953   -0.0002594881    0.0026872669
 C   -1.1798945561   -0.6084829485    0.0105414241
 C   -2.4404954508   -0.0745625560    0.0219643646
 O   -3.3655796145   -1.0754585624    0.0264937152
 C   -2.6838423041   -2.2592070730    0.0178139254
 C   -1.3356033748   -2.0261008624    0.0078967836
 C   -3.4321198678   -3.4494948496    0.0204035192
 C   -4.0614769378   -4.4765070953    0.0225224255
 H    1.0198301447    1.7597781448    0.0003050529
 H   -0.5344307400    1.7998050638   -0.8814219326
 H   -0.5206007356    1.7943842065    0.9062209879
 H   -2.8294036117    0.9278624688    0.0278470238
 H   -0.5504475204   -2.7638572315   -0.0003055418
 H   -4.6174926144   -5.3810325334    0.0244023823