19

 C    0.1377326616    1.5974813379    0.2392108113
 C   -0.0170490372    0.0953786638    0.1435403756
 C    1.1426093976   -0.7697735517   -0.3500324756
 C    0.7175683762   -0.8073926366    1.0748344567
 O    1.5730153745   -0.2672786158    2.1191868878
 C    1.1653149402   -1.2411817582    3.0018746946
 O    1.4863377456   -1.3704990460    4.1388030615
 C    0.2489624615   -1.9386419912    1.9871987362
 C   -1.2252220576   -2.0441457981    2.3578330940
 H    1.1332069990    1.8649916151    0.6032860388
 H   -0.0092741188    2.0686793005   -0.7379275432
 H   -0.5931786788    2.0249534341    0.9334668237
 H   -1.0090245392   -0.2480608893   -0.1425039735
 H    0.9333265126   -1.6282486715   -0.9801191391
 H    2.0769028945   -0.2621672602   -0.5684043631
 H    0.6545156458   -2.9144219230    1.7013549763
 H   -1.6350568480   -1.0691445602    2.6365082436
 H   -1.8115610871   -2.4352047063    1.5206094239
 H   -1.3524184423   -2.7222003432    3.2062665104