19

 C   -0.2607767447    1.5873807164   -0.1125744279
 C    0.0259760915    0.0925692630   -0.0596995743
 C    0.6836141460   -0.5994150405   -1.2623093550
 C    2.1258589236   -0.2240670804   -1.4383342690
 O    2.6333060120    1.0646674787   -1.2411822164
 C    1.7893459642   -1.1912775382   -0.3506599276
 C    1.1771336757   -0.4811116386    0.8733991799
 C    2.0309561119    0.4272248824    1.6232722360
 C    2.7459075779    1.1743313713    2.2411323099
 H    0.6297401024    2.1537631601   -0.3854960562
 H   -1.0357334574    1.7914005743   -0.8598175051
 H   -0.6272317935    1.9476828969    0.8547103014
 H   -0.8906922947   -0.4422887712    0.2066303972
 H    0.1307679932   -1.0884500363   -2.0564191627
 H    2.5779473825   -0.7065618626   -2.3045703066
 H    3.0120777262    1.1153887219   -0.3555162515
 H    2.2057222244   -2.1910634288   -0.3113979547
 H    0.7500405828   -1.2106436168    1.5671121625
 H    3.3670987461    1.8295638284    2.8005639701