18

 C   -0.0066937280    1.5138936175    0.0615048881
 C    0.0971876485   -0.0075999316    0.0001609892
 C    0.7880374128   -0.5056823309   -1.2487384667
 O    1.2398334078    0.2348808502   -2.0992132222
 C    0.9103499170   -2.0078746856   -1.4370571281
 N    1.6564857059   -2.3459153168   -2.5331473786
 N    0.3532992198   -2.7822786124   -0.5834243952
 C    0.4904853661   -4.2105829817   -0.7958051582
 H    0.9822973639    1.9786702971    0.0291335160
 H   -0.5759804312    1.9051284406   -0.7860857701
 H   -0.5047643967    1.8253741908    0.9837151250
 H    0.6410349013   -0.4152362508    0.8612396212
 H   -0.8837836820   -0.4929001232    0.0539897049
 H    1.8621959520   -1.5823452654   -3.1607329715
 H    1.5743127863   -3.2665138481   -2.9282155191
 H    1.5457186181   -4.5230263360   -0.8422599890
 H    0.0114567607   -4.7528360211    0.0227021914
 H    0.0128116276   -4.5391203725   -1.7340041971