18

 C   -0.2271533043    1.6020059133   -0.1263180892
 C    0.0366253118    0.1028616321   -0.0288044052
 C   -1.2431465832   -0.7023847250    0.1719689730
 C    0.9280431867   -0.4402820398   -1.1882465663
 N    2.1677813533   -0.9063417165   -0.5615363874
 C    2.0325857126   -0.6852129689    0.6868251758
 O    0.8857239133   -0.1195452302    1.1453288802
 C    3.0075646088   -0.9862968719    1.6825951518
 C    3.8220852294   -1.2358082925    2.5294569228
 H    0.7130341759    2.1516303661   -0.2276026747
 H   -0.8484506726    1.8196475478   -1.0012281291
 H   -0.7467052438    1.9660927256    0.7646093712
 H   -1.9059865118   -0.5787026123   -0.6906968946
 H   -1.0144695887   -1.7665558864    0.2794280272
 H   -1.7769516843   -0.3709193881    1.0671937433
 H    0.4493920673   -1.2687205032   -1.7234367472
 H    1.1564406252    0.3335892934   -1.9304166951
 H    4.5480341544   -1.4599096436    3.2719814936