19

 C    0.0708081943    1.4140028823    0.0439007828
 N    0.0074099225   -0.0322634160    0.0280863642
 C   -0.1429735579   -0.8245819102   -1.0741830746
 N   -0.1498512406   -2.1000537379   -0.7707144544
 C   -0.0044239828   -2.1491091815    0.5994856466
 C    0.0222094675   -3.4594373458    1.3294965998
 O    1.0624822833   -3.5475428536    2.3044760132
 C    0.0994741151   -0.8766913307    1.1209227887
 C    0.2638892727   -0.3855964119    2.5200996705
 H    1.0320142750    1.7644385013    0.4336851316
 H   -0.0447468568    1.7833652341   -0.9767015263
 H   -0.7288109982    1.8372351278    0.6599195489
 H   -0.2340778599   -0.4037289103   -2.0654002567
 H   -0.9025297812   -3.6224328629    1.8952654835
 H    0.0929522606   -4.2615029174    0.5820760842
 H    1.8879199239   -3.3488379412    1.8495858188
 H    1.1025826723    0.3151702611    2.6166492914
 H   -0.6316194940    0.1299450309    2.8907670346
 H    0.4657479840   -1.2376794579    3.1710969934