20

 C    0.1985568814    1.6293789193    0.3298273966
 C    1.3699673519    0.7581524193   -0.0412549848
 C    2.2475697374    0.2138026948    1.0836131584
 C    1.3222451203   -0.6264647304    1.9915529654
 C    0.5800847891    0.0375095146    3.1918512046
 C   -0.7874519525   -0.3542582506    2.5598567644
 C   -0.0515238548   -0.8029617019    1.2600813392
 C   -0.0192753722    0.1546856224    0.0769507498
 H    0.1258294014    2.0181741062    1.3398810368
 H   -0.1712805470    2.3165211553   -0.4241750136
 H    1.8275911735    0.9120289883   -1.0129368313
 H    3.0315060643   -0.4194822600    0.6527588115
 H    2.7569573321    1.0082024086    1.6429405890
 H    1.7980409415   -1.5656835738    2.2835100876
 H    0.7904706551   -0.3994551347    4.1713995233
 H    0.7451244814    1.1161430752    3.2685029721
 H   -1.2725254047   -1.1837496765    3.0809070618
 H   -1.5191262984    0.4485143989    2.4401232110
 H   -0.2945881003   -1.8120418924    0.9171239793
 H   -0.5803181396   -0.1161369827   -0.8111235712