16

 C    0.0889338293    1.5474734747   -0.2042422206
 O    1.5331478325    1.4715154945    0.1223865563
 C    1.2038166100    0.3342437047    0.9808177591
 C    1.3335724160   -1.2399752686    0.9789082378
 C   -0.2809469880   -1.1475329091    1.1381502517
 C   -0.0186616185    0.0505581796    0.1775868597
 O    0.4578994142   -0.6365268345   -1.0082696042
 C    1.4401733877   -1.5539686719   -0.5017561459
 H   -0.4233969256    2.2446639575    0.4666688004
 H   -0.0787916272    1.7940653433   -1.2536132373
 H    1.0233282525    0.6943824731    1.9980335856
 H    1.9555142096   -1.7902496974    1.6847491696
 H   -0.8555644143   -1.9938197125    0.7566503000
 H   -0.5897212691   -0.8736580568    2.1463406200
 H    2.4272469967   -1.3255032724   -0.9204881493
 H    1.1714472041   -2.5864533043   -0.7549702929