18

 C   -0.0455251681    1.5370255885    0.0209020007
 C   -0.0039975281    0.0462848747   -0.0502104338
 C   -0.0350606127   -0.8122240463   -1.1267940911
 C    0.0147404400   -2.1516043413   -0.6357884328
 C    0.0519134356   -3.4167185083   -1.4478820277
 C    1.4827956146   -3.8992840471   -1.6246468796
 O    1.8761066782   -5.0044834710   -1.3543833257
 C    0.0849646108   -2.0660241746    0.7380224199
 N    0.0693446641   -0.7364281163    1.0779948899
 H    0.8473917555    1.9543700838    0.5030968740
 H   -0.1005954464    1.9547086618   -0.9867950304
 H   -0.9177717402    1.9018906733    0.5777630651
 H   -0.0979732947   -0.5131730111   -2.1631339316
 H   -0.5259514552   -4.2264190765   -0.9934247798
 H   -0.3611524674   -3.2266819554   -2.4476147151
 H    2.1739161392   -3.1188791862   -2.0186124646
 H    0.1382504981   -2.8365082038    1.4907558356
 H    0.0945600767   -0.3838364142    2.0192521972