23

 C   -0.1316433041    1.6358634282   -0.1505021815
 C   -0.0144390026    0.1166517835    0.0020279955
 C    0.7761639277   -0.5308618770   -1.1400889709
 C    0.7748310766   -2.0762456792   -1.1439750234
 C    1.3763002693   -2.6650153605    0.1329461094
 O   -0.5633507617   -2.5708280181   -1.1954168537
 C    1.5675133990   -2.5574218417   -2.3950651447
 C    1.5771915106   -4.0012945127   -2.5873059361
 C    1.5926576309   -5.1917753530   -2.7521754148
 H    0.8549075856    2.1128867164   -0.1686208574
 H   -0.6430814394    1.9043785360   -1.0819161297
 H   -0.6972703141    2.0753247053    0.6769978887
 H    0.4640345177   -0.1128620829    0.9611002767
 H   -1.0108413442   -0.3366376616    0.0387232452
 H    0.3548500601   -0.1919077505   -2.0988870340
 H    1.8141855380   -0.1722028276   -1.1255206651
 H    0.7569544430   -2.4134777546    0.9962155937
 H    1.4262437119   -3.7531687558    0.0535778152
 H    2.3858183778   -2.2778417621    0.3012319994
 H   -0.9551853817   -2.2943163860   -2.0311667356
 H    1.1361530346   -2.0760831602   -3.2844325804
 H    2.5983251577   -2.1871603734   -2.3257442910
 H    1.6012045672   -6.2437305822   -2.8954849455