22

 C    0.0809877107    1.5219512194   -0.0772110998
 C    0.0675677176    0.0072352271    0.0059532423
 O    0.7038624589   -0.4951996187   -1.1803135006
 C    0.7398463054   -1.8491857640   -1.2806261843
 O    0.2619281749   -2.5934887033   -0.4471760647
 N    1.3795123795   -2.2651135737   -2.4131466454
 C    1.8591330190   -1.3686744459   -3.4503014088
 C    1.4235834164   -3.7009479799   -2.6755685460
 C    0.2257043815   -4.2120552008   -3.4818332399
 H    1.1051156120    1.9025812846   -0.1313283585
 H   -0.4621460185    1.8697872815   -0.9606922026
 H   -0.3973341684    1.9466306600    0.8104078613
 H    0.6079419133   -0.3568278853    0.8856186005
 H   -0.9505726010   -0.3898654347    0.0627129467
 H    1.8767010486   -0.3480340993   -3.0768053946
 H    2.8751229527   -1.6547971249   -3.7473339864
 H    1.2233215176   -1.4016848738   -4.3453849569
 H    2.3590043964   -3.9098919500   -3.2077308171
 H    1.4626656553   -4.2088020105   -1.7106628818
 H   -0.7005274083   -4.0472847228   -2.9247245861
 H    0.1440828411   -3.7074299416   -4.4499871191
 H    0.3255128353   -5.2856738132   -3.6709395183