15

 O   -0.0217809959    1.4206297661    0.0067446220
 C    0.0212372375    0.0134922590   -0.0911880366
 C    0.8091957280   -0.6923703750    1.0455582369
 C    0.0631840888   -2.0010912446    1.3201100827
 O    0.5296234810   -3.0273824642    1.7428532604
 C   -1.3542974975   -1.8080113798    0.8533093279
 N   -1.9189703029   -0.5030770087    1.3180820092
 C   -1.3699503755   -0.6167316170   -0.0392925021
 H   -0.5492984715    1.6200210820    0.7907745761
 H    0.4851947981   -0.2030052553   -1.0586801099
 H    1.8564228829   -0.8830551779    0.8074125897
 H    0.7787828226   -0.0768262934    1.9510794971
 H   -2.0079976279   -2.6636215991    0.7332371608
 H   -2.9333406885   -0.5758283158    1.2847246936
 H   -2.0329612192   -0.5460494363   -0.8948422777