17

 C    0.1145370236    1.5095163089   -0.1878346679
 C    0.0167852535    0.0057186846   -0.0200828579
 C    1.2978287672   -0.8181272008   -0.0512880273
 C    0.5769576567   -0.6263559149    1.2477738046
 C   -1.1885750025   -0.6039540897   -0.5989706476
 C   -2.2586918375   -0.0819062972   -1.2699476950
 N   -3.0922706750   -1.1278639695   -1.5779383921
 N   -2.6307219797   -2.2148221180   -1.1613135783
 O   -1.3686926697   -1.9209011088   -0.5046051086
 H    1.0353381562    1.8826909705    0.2680538491
 H    0.1266057272    1.7930813678   -1.2457225989
 H   -0.7270025679    2.0201616097    0.2925132515
 H    1.2512445621   -1.7943426253   -0.5186470954
 H    2.2193212424   -0.2722745400   -0.2211751752
 H    0.9971225378    0.0528625338    1.9813193724
 H    0.0415942984   -1.4725422867    1.6612291653
 H   -2.4878924030    0.9316840756   -1.5468164987