18

 C    0.0398675413    1.5547247593   -0.0153490671
 C   -0.0096256262    0.0463390138   -0.0007419757
 N    0.3017927036   -0.6888027459   -1.2991045368
 C   -0.6385927401   -1.7937714281   -0.8625642915
 C    0.1496479539   -2.7595979957    0.0331238413
 C    0.9027853120   -1.9615587418    1.0724720858
 C    0.8192491086   -0.6313980747    1.0775859858
 C   -1.3609994842   -0.7017887363   -0.0483260113
 O   -2.5021583898   -0.4068347694    0.1592329218
 H    1.0597291076    1.9097129873   -0.1956841497
 H   -0.6166329204    1.9647771972   -0.7887843173
 H   -0.2948830126    1.9501351985    0.9485359377
 H   -0.1567839102   -0.1765779491   -2.0541121563
 H   -1.1932321703   -2.2955033052   -1.6582237430
 H   -0.5420284957   -3.4634878892    0.5150054904
 H    0.8382576208   -3.3619106371   -0.5739583865
 H    1.4985754929   -2.4971905064    1.8056337804
 H    1.3092346190   -0.0154799873    1.8249837719