21

 C   -0.0424943818    1.5626225835    0.0526623394
 C    0.0312996242    0.0391042937    0.0063642086
 N    0.7078993974   -0.4743062856   -1.2147812701
 C    2.1221493197   -0.1226095345   -1.4225908568
 C    1.7626160659   -1.4218612689   -0.7983631923
 C    1.7758595860   -1.4979714846    0.7099134938
 N    2.1139884452   -0.2170188930    1.3796251792
 C    0.6981755547   -0.6156491787    1.2298496454
 C   -0.1320236207   -0.9100681820    2.4526841332
 H    0.9478167599    1.9969779653    0.2092749116
 H   -0.4556154225    1.9521491203   -0.8818957122
 H   -0.6899864092    1.8910654943    0.8725233412
 H   -0.9913318912   -0.3578186853   -0.0468835090
 H    2.4141678462   -0.0866844556   -2.4691003341
 H    2.5934602079    0.6100900668   -0.7777405808
 H    1.8357684581   -2.3574028955   -1.3465672968
 H    2.0425308981   -2.4316304229    1.1942193987
 H    2.4182037031   -0.4064068526    2.3328395716
 H   -0.4674934643    0.0146863524    2.9369631498
 H   -1.0236325616   -1.4919938063    2.1956941278
 H    0.4426101649   -1.4815967607    3.1895279619