17

 O   -0.0110255902    1.3845514074   -0.1765403495
 C    0.1110971026    0.0181445936    0.1852782274
 C   -1.2545833376   -0.6416977550    0.1539294008
 N   -1.9571694810   -0.6822661375   -1.2315168577
 C   -1.1009696021   -1.9221940786   -1.5317044326
 C   -1.5356745876   -2.1412354964   -0.0587587469
 O   -1.1932364662   -3.1308343960    0.8435668149
 C   -2.9276987680   -1.6624093248   -0.5580624298
 H   -0.5517193565    1.4072259738   -0.9754417407
 H    0.8479247322   -0.4979427449   -0.4453793498
 H    0.4971566462   -0.0047147838    1.2100427474
 H   -1.8975327792   -0.1473641699    0.8898137340
 H   -1.5438362193   -2.5669332920   -2.2956269217
 H   -0.0565909395   -1.7120676516   -1.7583314430
 H   -1.4814810692   -3.9829545296    0.4978412038
 H   -3.6009515728   -1.1896647823    0.1607754391
 H   -3.4669329020   -2.2904434425   -1.2722341557