13

 O    0.0163238982    0.0865334176   -0.6010836193
 C    0.1486611445    1.0007385731    0.1723956108
 C    1.2739581569    1.9625596862    0.1624519027
 C    1.6425332089    3.0521742878    1.1845499374
 C    2.1271902773    3.9546884736   -0.0024194571
 C    1.7429266466    2.8253194404   -0.9666030475
 O    2.4499784837    1.6604938212   -0.5901351156
 H   -0.6034526125    1.2118749210    0.9663579108
 H    0.7713676471    3.4683302129    1.6960750830
 H    2.3925902224    2.7542582195    1.9197476195
 H    1.5171868140    4.8520380735   -0.1243361820
 H    3.1850829939    4.2254164116   -0.0188925774
 H    1.3717658489    2.8754803817   -1.9843524553