20

 C   -0.2555335326    1.0575928986   -0.4377947330
 C    1.0963980780    1.2039702225    0.1656425518
 N    0.3950906585   -0.0819255079    0.2021965599
 C   -0.0809425901   -0.5475534889    1.4610905687
 C    0.6123793376   -1.6463437229    2.2605061479
 C   -0.7219655561   -1.7683049175    3.0461156746
 C   -0.8245959365   -0.4300691780    3.8289355000
 C   -0.9784966184    0.2318462441    2.4615284930
 C   -1.4474684512   -1.0653509387    1.8242547127
 H   -1.0849311027    1.5437314122    0.0692771967
 H   -0.3716329653    0.9745130894   -1.5147835143
 H    1.9806087028    1.2384831012   -0.4639863256
 H    1.1648591096    1.7660041262    1.0944843273
 H    0.7964063153   -2.5166827294    1.6252007827
 H    1.5164896917   -1.4024184206    2.8315412445
 H   -1.0098468370   -2.7115121900    3.5048203851
 H   -1.7516040450   -0.3647072234    4.4069475101
 H    0.0246667613   -0.1533177709    4.4653669909
 H   -1.3322349991    1.2323087505    2.2471983004
 H   -2.3169727408   -1.3047273065    1.2291492666