19

 C   -0.3437045459    1.4402585057   -0.1622639985
 N   -0.0082661311    0.0310818500    0.0425409097
 C    1.3058217318   -0.5103153794   -0.3372884514
 C    2.4333124810    0.3173497897   -0.8364576006
 O    2.6405668779    1.4835881977   -0.5811916655
 C    0.8485277972   -0.3928129544    1.1156268723
 C    1.5003101140    0.5286102941    2.0963558677
 C    0.9783758154    0.5529250879    3.4895703687
 N    2.2844686896   -0.0565275086    3.2003897889
 H    0.4963899320    2.1338144510   -0.0716323325
 H   -0.7702364847    1.5428702551   -1.1643123974
 H   -1.1177895105    1.7058208011    0.5637788662
 H    1.2567024888   -1.4926557775   -0.8043940499
 H    3.1181504153   -0.2417582531   -1.5122071362
 H    0.5366644681   -1.3374750057    1.5693794956
 H    1.9401185507    1.4288802013    1.6843340464
 H    1.0168616596    1.4739876936    4.0637692474
 H    0.1395081194   -0.0965169773    3.7289914733
 H    2.1962937214   -1.0710636012    3.1900969959