23

 C    0.0259072324    1.5074194470    0.2142030494
 C   -0.0717388002    0.0164062668   -0.1177835647
 C   -1.4669842181   -0.5408251746    0.1267654591
 O   -1.4641964077   -1.9181724820   -0.2081435099
 C   -2.7168488877   -2.5659258276   -0.0588936834
 C   -2.5986327667   -3.9527913617   -0.7093199810
 C   -2.2986333951   -3.8771896176   -2.2073041029
 C   -3.1216109353   -2.6672617379    1.3514044024
 C   -3.4491258879   -2.7623241534    2.5043617726
 H    1.0366136015    1.8845271999    0.0337593014
 H   -0.6632845630    2.0995940508   -0.3980799324
 H   -0.2173280967    1.6989740152    1.2651175909
 H    0.1972365070   -0.1585514978   -1.1659519942
 H    0.6409859477   -0.5554363360    0.4872972610
 H   -1.7578084265   -0.4047596893    1.1796113947
 H   -2.2099761584   -0.0047846861   -0.4891729660
 H   -3.4903244915   -1.9878678371   -0.5962058136
 H   -1.8076298686   -4.5003325045   -0.1857590881
 H   -3.5343158448   -4.4921248477   -0.5282255119
 H   -2.1951143501   -4.8795313131   -2.6331430973
 H   -3.1044307314   -3.3671584026   -2.7474059204
 H   -1.3716966501   -3.3281661123   -2.3875027437
 H   -3.7409008287   -2.8430648683    3.5224075480