16

 O    0.1011606866    1.3184414237   -0.2574120445
 C   -0.0193257537   -0.0554698918    0.0357898623
 C   -1.4876937930   -0.5180524667    0.0752873656
 C   -2.1266501541   -0.5704342537   -1.3417704582
 O   -1.9494388963   -1.9997296120   -1.4038451903
 C   -1.6260192893   -2.0647282728   -0.0041572187
 C   -2.2156701182    0.1860307816    1.1134272596
 C   -2.7835648513    0.8056104881    1.9748941174
 H   -0.3761843248    1.8002660599    0.4288239318
 H    0.4953546808   -0.5923118892   -0.7674667396
 H    0.4661828746   -0.3188594267    0.9883872679
 H   -3.1851625800   -0.2855462957   -1.3655902559
 H   -1.5787135666   -0.0393796158   -2.1262131644
 H   -0.7124605972   -2.6398658704    0.1886814710
 H   -2.4490893826   -2.4695970830    0.5970863621
 H   -3.3070151151    1.3327054144    2.7343207239