20

 C    0.1980997480    1.3324314226    0.2010113710
 O   -0.2906967966    0.0882455169   -0.2462004459
 C    0.4994394889   -0.4901020688   -1.2321363167
 C    1.7301280895   -1.3705325766   -0.8490924139
 N    0.7478322879   -2.3630059957   -0.2664435305
 C    0.1363882197   -1.9522859939   -1.6058141932
 C   -1.1767478899   -2.4817031458   -2.0984775277
 C    1.5514176525   -2.0729145586   -2.2339638577
 O    1.7705772129   -1.4062988816   -3.4518495820
 H    1.1716172286    1.2346433056    0.7041787253
 H    0.3092273812    2.0490658267   -0.6284431669
 H   -0.5277585320    1.7284757734    0.9149893109
 H    0.6629218526    0.1891843051   -2.0754388394
 H    2.6498828017   -1.0971441390   -0.3301993287
 H    1.1342419130   -3.3110977748   -0.3549090859
 H   -1.9782273550   -2.1990199556   -1.4102000280
 H   -1.4035969989   -2.0710787423   -3.0874116551
 H   -1.1577376462   -3.5738122507   -2.1795196127
 H    1.9350852508   -3.1032898799   -2.2499283260
 H    2.7116786413   -1.4364693567   -3.6511695170