21

 C    0.9782252642   -0.7616181725   -1.2403484871
 C    0.0414844825   -0.1220815680   -0.2013651574
 C    0.0557055746    1.4109097063   -0.3262148999
 O   -1.2910046821   -0.5995990094   -0.4133148474
 C    0.5195429870   -0.5100743957    1.2030111544
 C   -0.2610630286   -0.3493737331    2.5433136058
 C   -1.1087581527   -1.6100326490    2.2514376904
 C    0.3701133656   -1.8968535382    1.9005228424
 O    0.7592580071   -1.2287455565    3.1684887749
 H    2.0153221956   -0.4424169620   -1.0988336768
 H    0.9365123637   -1.8520100497   -1.1703869927
 H    0.6769830831   -0.4723224736   -2.2542202078
 H   -0.2454173734    1.7145588237   -1.3360040220
 H   -0.6431376127    1.8571770440    0.3865920740
 H    1.0530773975    1.8209477615   -0.1400703315
 H   -1.5548761359   -0.3339441299   -1.3003333344
 H    1.5423702684   -0.1421046170    1.3241196521
 H   -0.5287191324    0.5608818522    3.0817188196
 H   -1.4563622616   -2.1246089199    3.1485350877
 H   -1.8366542279   -1.5731254400    1.4464218963
 H    0.8599819780   -2.8433053432    1.6674446194