17

 C    0.2024684577    1.5493670092    0.0123356518
 C    0.0158215450    0.0296172809   -0.0887018103
 O   -1.3509381138   -0.3046145099   -0.2302881920
 C    0.8734221465   -0.5950456539   -1.2251077307
 O    1.2801458338    0.2692002559   -2.2673767346
 C    2.0920860759   -1.1103059295   -0.4975706254
 C    1.9329059220   -1.1589472003    0.8316178267
 C    0.5920547506   -0.6479144672    1.1722483011
 O   -0.0318697301   -0.7548944864    2.2052841061
 H    1.2577006835    1.8281036534    0.0700415986
 H   -0.2331052502    2.0323748901   -0.8654440398
 H   -0.3113461102    1.9150381716    0.9061632464
 H   -1.6919940267   -0.4008651083    0.6708852870
 H    0.3042579676   -1.4472343277   -1.6273155121
 H    0.5145378851    0.4470461560   -2.8228645120
 H    2.9705508226   -1.4245747772   -1.0502655753
 H    2.6294991606   -1.5498579668    1.5620496844