16

 N   -0.0844497320    1.1934615915    0.0699940967
 C   -0.0823541001   -0.0628989520    0.0349556074
 O    1.0253987157   -0.8958586376    0.0273933016
 C    0.4133654099   -2.2181444315   -0.0231508616
 C   -0.6850275927   -2.0276773563   -1.0971301638
 C   -1.2443754148   -1.0283114344   -0.0154954515
 C   -0.7182732172   -2.0770671495    0.9990593251
 C   -1.4115629198   -3.0457368518    1.8343156030
 O   -0.6204226723   -1.9678305872    2.3859662874
 H    0.8700087068    1.5568187299    0.1020145943
 H    1.1820191576   -2.9862098649   -0.0255778330
 H   -0.3618590584   -1.6010753136   -2.0471517913
 H   -1.3197502165   -2.9028150115   -1.2406476247
 H   -2.2477828202   -0.6154075476   -0.0160415797
 H   -2.4852507161   -2.9578123983    1.9906681600
 H   -0.9971346998   -4.0421449052    1.9792484002