19

 C   -0.0996682020    1.5592161229    0.0418256263
 C    0.0676785485    0.0585167368   -0.0273513236
 C    0.7178596401   -0.6750606785   -1.1766033600
 C    1.6405470925    0.0900772021   -2.1281735970
 C    2.7773236424    0.5484367938   -1.2472501277
 C    2.6480453692    0.1111880230    0.0192262732
 C    3.5468831533    0.3481340716    1.0879720857
 C    4.2901780162    0.5166959390    2.0216530897
 C    1.3825039488   -0.6756218539    0.1948557089
 H    0.7918008849    2.0916940705   -0.2973158437
 H   -0.9418837221    1.8829428748   -0.5802783015
 H   -0.3039302460    1.8783485008    1.0694316320
 H   -0.7803830542   -0.4828808671    0.3869459115
 H    0.2266768774   -1.5655110257   -1.5514925073
 H    2.0020244304   -0.5554196616   -2.9399300840
 H    1.1379243747    0.9365039456   -2.6164391426
 H    3.5838720516    1.1800137968   -1.6004624556
 H    4.9520263005    0.6768509561    2.8361079351
 H    1.3950850540   -1.5412822370    0.8474049504