20

 C   -0.0713054432    1.4085872254    0.0628876469
 C   -0.0099021548   -0.1151508490   -0.0703042068
 N    0.8288890430   -0.4971181025   -1.2003493413
 C    1.8944480738   -1.1447841117   -1.0275590287
 O    2.4084581771   -1.5929834370    0.1495154833
 C    3.5450859435   -2.4481388250   -0.1168996458
 C    3.4291382762   -2.8430076679   -1.5946275243
 C    2.7702591737   -1.5912572522   -2.1849209752
 O    2.0322134434   -1.8024159872   -3.3551320792
 H    0.9157719805    1.8189381427    0.2978247443
 H   -0.4125246841    1.8630552515   -0.8716940072
 H   -0.7607319667    1.6969426494    0.8626585288
 H    0.3339145703   -0.5627496240    0.8704277175
 H   -1.0191745461   -0.4975228377   -0.2671728375
 H    4.4614056214   -1.8818538594    0.0880654812
 H    3.4926589422   -3.2908429141    0.5752195061
 H    4.3928103796   -3.0909993723   -2.0423811207
 H    2.7501056521   -3.6914587399   -1.7228302686
 H    3.5430548318   -0.8178460398   -2.3447710134
 H    1.2219804262   -1.2820944594   -3.2346190993