14

 O   -0.0073778171   -0.0636212291   -0.2229499247
 C    0.0231752326    1.1142484210    0.0171265701
 N   -1.1622289239    1.8243925938    0.2477954651
 C   -1.5147352457    3.1756724698    0.1572470887
 N   -0.8245631764    4.2287319993    0.0460302299
 C    0.6230702828    4.1913099029    0.0061876328
 C    1.2806381716    3.0442235118    0.7602750590
 O    1.1819853596    1.7854584542    0.0780926917
 H   -1.9443083505    1.1849778663    0.2382390162
 H   -2.6002267359    3.2802454033    0.1983118703
 H    0.9619981630    4.1712621934   -1.0384976964
 H    0.9924587417    5.1334445900    0.4301400316
 H    2.3556767881    3.2170417885    0.8452068949
 H    0.8641669400    2.9514828046    1.7699454310