15

 O    0.0062665887    1.2894985108   -0.1490661018
 N    0.0245044411   -0.0891144643   -0.1629719129
 C   -1.1161451750   -0.6340455732    0.0028240825
 C   -1.2150932061   -2.1431879871    0.0689687358
 O   -0.8350490526   -2.6296639804    1.3504345479
 C   -2.7255916588   -2.4080530168   -0.0988654797
 N   -3.3347386381   -1.1169138544    0.1706123062
 C   -2.4909527960   -0.0361463223    0.1901903927
 O   -2.8093243349    1.1225482475    0.3313672454
 H    0.9318539620    1.5111451456   -0.3057913444
 H   -0.6261865354   -2.6234684144   -0.7214493489
 H    0.0335666515   -2.2597584821    1.5462463285
 H   -2.9573090493   -2.7618632032   -1.1112645709
 H   -3.0426708169   -3.1680232563    0.6204096616
 H   -4.3302129503   -0.9767049193    0.2355546980