19

 C    0.0777693587    1.4311149922    0.0047879708
 O   -0.1131377045    0.0260711655    0.0526527014
 C    0.6219279248   -0.6259720391    1.0623590148
 C    0.1011204214   -2.0587063463    1.2535613078
 C    1.3355898049   -2.9337267477    1.2189422597
 C    1.2431591811   -4.3975420221    1.4920625541
 C    2.4409024384   -2.2334177736    0.9104555291
 C    2.1256051612   -0.8106020216    0.7147410152
 O    2.8707134391    0.0725793776    0.3488570873
 H    1.1140006837    1.6940306381   -0.2264553627
 H   -0.5840550502    1.8085503721   -0.7785830892
 H   -0.2018869446    1.8986890938    0.9624733346
 H    0.5643876761   -0.0563198919    2.0054531783
 H   -0.4654052519   -2.1940980752    2.1818243831
 H   -0.5776001094   -2.3099264084    0.4298192956
 H    0.5513230778   -4.8783714841    0.7892305051
 H    2.2145940532   -4.8913608639    1.4176015857
 H    0.8362069514   -4.5768580280    2.4952795319
 H    3.4411359988   -2.6325750773    0.7931987572