18

 C   -0.1303705048   -1.2201850494    0.1832543685
 C   -0.0749910078   -0.0195777811    0.1277050871
 C   -0.0168661068    1.4110095724    0.0517671477
 C    0.6300585862    2.2139363730    1.1718488674
 C    1.3075248286    2.1346051785   -0.1675938122
 C    2.5953197428    1.3632164169   -0.3433157875
 C    3.8186007974    2.2022041968    0.0857082543
 C    5.0790268891    1.4821998676   -0.0801792682
 N    6.0668028148    0.8984968170   -0.2178744637
 H   -0.1815591003   -2.2795165998    0.2348647709
 H   -0.8792937034    1.8715146216   -0.4211865485
 H    0.1495819723    3.1394543754    1.4677757213
 H    1.0569615298    1.6426902722    1.9890821632
 H    1.2266970666    3.0224406690   -0.7903951276
 H    2.5628805649    0.4403608678    0.2427718909
 H    2.7145667514    1.0619565502   -1.3897598164
 H    3.8699230358    3.1284790119   -0.4987304036
 H    3.7204252136    2.4997793101    1.1358114464