13

 N   -0.0322960860   -1.1847789970   -0.1587933210
 C   -0.0121559158   -0.0332598649   -0.0682516243
 C   -0.0075000653    1.4270553497    0.0341813443
 C   -0.6229611954    1.9459630563    1.3340480421
 C    0.1939306600    2.7869737512    1.9675283985
 C    1.4956585355    2.9010027604    1.2428809077
 O    2.2008033268    1.6401701196    1.1595228637
 C    1.4050170879    2.0372125457    0.0549271096
 H   -0.5593305636    1.8195000943   -0.8313646066
 H   -1.5968752372    1.6127490160    1.6693693701
 H   -0.0213295567    3.2995671667    2.8961973334
 H    2.1258655978    3.7821805511    1.3016141513
 H    1.9281333720    2.2137965209   -0.8798093089