21

 C   -0.1441967170    1.5204876231   -0.0054934560
 C   -0.0295717243   -0.0133886166    0.0009417408
 C   -1.3654774389   -0.5694834449   -0.1680577218
 C   -2.4826979612   -0.9947279124   -0.3091663176
 C    1.1283173542   -0.6144269132   -0.8931467525
 C    2.1009293616   -0.2521974832    0.2646982515
 C    0.8747879753   -0.6248262941    1.1453321457
 C    0.7673656176   -2.1389852307    0.8799605631
 C    0.9610657555   -2.1310405655   -0.6774031503
 H    0.8186520141    2.0188802327    0.1169667855
 H   -0.5845763186    1.8604388404   -0.9477561378
 H   -0.8026481022    1.8514825676    0.8033585818
 H   -3.4661185822   -1.3753085864   -0.4336279548
 H    1.2776398774   -0.2592004853   -1.9136994916
 H    2.9920154184   -0.8767219450    0.3723388978
 H    2.3874305678    0.7969741193    0.3056792726
 H    0.7691353347   -0.2800659892    2.1748895615
 H    1.5509595180   -2.6957659730    1.4012783731
 H   -0.2003262426   -2.5482521357    1.1768001217
 H    0.0960841117   -2.5361009718   -1.2063401948
 H    1.8491867609   -2.6835282360   -0.9964557581