14

 O    0.3326359078    1.5507278989   -0.0624807732
 C    0.0971870620    0.1574407231   -0.0925403684
 C    0.6940148564   -0.4739133983   -1.2838746450
 N    1.2077071980   -0.9329986706   -2.2110324332
 C    0.5984517582   -0.5099095411    1.1934440043
 C   -0.1499814397   -0.1270751650    2.4790721959
 C   -0.5731826902   -1.5976819073    2.4683483419
 O   -1.2202534495   -2.3410681931    3.1249245185
 O    0.1197213921   -1.8844957647    1.3055886803
 H    1.2692994902    1.7126080037   -0.2255861707
 H   -0.9900698810    0.0306371335   -0.1440014765
 H    1.6900598501   -0.4818575078    1.2498348702
 H    0.4655811959    0.1574323670    3.3330384682
 H   -0.9663656803    0.5875567915    2.3621577777