23

 C   -0.0228420274    1.4892690259    0.0315690958
 C    0.0142602165   -0.0132518584   -0.0321141934
 C    0.2304412169   -0.7688373892   -1.3421233588
 C    0.1697917932   -2.2121837102   -0.7800429879
 C    0.3430149679   -3.3507599145   -1.7667033962
 C    1.2025340470   -2.1184836899    0.3762010457
 C    0.6318604648   -0.8794815682    1.0535636853
 C   -0.8712798942   -0.9067303223    0.8211116936
 C   -1.1664411305   -2.1615571919    0.0099973876
 H    0.9185142503    1.9280470300   -0.3206054005
 H   -0.8293467915    1.8962904681   -0.5901920662
 H   -0.1872071770    1.8399855568    1.0559205310
 H   -0.5581992714   -0.5748187153   -2.0795194287
 H    1.1974919646   -0.5429710919   -1.8081083809
 H    1.3142510319   -3.2960508421   -2.2711494845
 H    0.2845733597   -4.3229410324   -1.2642626885
 H   -0.4337313860   -3.3295788440   -2.5393433084
 H    1.1887423907   -3.0071962702    1.0178288806
 H    2.2250322984   -1.9763798723    0.0076107121
 H    1.0618094736   -0.4440352150    1.9470673614
 H   -1.5661151543   -0.4916621930    1.5406534289
 H   -2.0342973939   -2.0538391316   -0.6508920559
 H   -1.3154981095   -3.0526911882    0.6307640380