18

 C    0.0512520535    1.5721537255   -0.0981502132
 C   -0.0474763081    0.0361310890    0.0624806089
 C    0.6067006774   -0.6304540824   -1.1530056857
 O    0.0007130087   -1.2006935293   -2.0184497948
 C    0.6115451531   -0.4280936267    1.2782420842
 C    1.1936096966   -0.8258380824    2.2576402074
 C    1.8930596343   -1.2990584705    3.4182781266
 C    1.2197415851   -2.2465538830    4.3586418497
 N    2.3125129766   -2.7208810703    3.5068511036
 H    1.0957104831    1.8876589308   -0.1783243402
 H   -0.4837540081    1.8927580396   -0.9962462658
 H   -0.3867887899    2.0684664930    0.7707727995
 H   -1.1014532461   -0.2633848023    0.0562961478
 H    1.7146177225   -0.5261886437   -1.1770617050
 H    2.6303231936   -0.6140370295    3.8290626190
 H    1.4533551318   -2.1906581958    5.4179886070
 H    0.2009368266   -2.5401198428    4.1244735836
 H    1.9306902593   -3.2243103190    2.7093838273