18

 C   -0.0440864823    1.5610419892    0.0541704338
 C    0.0020553628    0.0239859545    0.0014917535
 C    0.7042409609   -0.4974438111   -1.2320428995
 C   -0.0041352447   -0.7366764730   -2.4136145837
 C    0.6449444900   -1.1846482913   -3.5610813377
 C    2.0205581498   -1.4031634546   -3.5459739062
 C    2.7388657706   -1.1705313925   -2.3754646092
 C    2.0842050565   -0.7226223227   -1.2310939853
 H    0.9661369486    1.9825954877    0.0534716981
 H   -0.5719005347    1.9662997648   -0.8150022229
 H   -0.5574451759    1.9078192508    0.9567167610
 H    0.5090348168   -0.3521115623    0.8976275391
 H   -1.0209592624   -0.3684146906    0.0336642473
 H   -1.0783645632   -0.5740749398   -2.4316962705
 H    0.0748924930   -1.3681762862   -4.4662705856
 H    2.5279613549   -1.7554566575   -4.4378958808
 H    3.8101715932   -1.3429466971   -2.3512570116
 H    2.6506371162   -0.5489408981   -0.3202073296