15

 C   -0.0368959426    1.5495369138    0.3355581295
 C   -0.0177978890    0.0682930145   -0.0462795773
 O    0.8146470163   -0.6888445516    0.8064339348
 C   -1.4336781197   -0.5319465279   -0.0407867205
 C   -1.6515149069   -1.9492777741    0.3011797268
 O   -1.9031920519   -0.9126707365    1.2587771959
 C   -2.4096893738    0.1317383967   -0.8861287891
 N   -3.1499921319    0.6748385952   -1.5882247394
 H    0.9860242006    1.9317812641    0.3579858700
 H   -0.6174389835    2.1391332301   -0.3795673367
 H   -0.4815610497    1.6835025321    1.3279293512
 H    0.3956331211   -0.0517501204   -1.0540061000
 H    0.4217094404   -0.6458884698    1.6880646921
 H   -2.5378725879   -2.4561942041   -0.0719920342
 H   -0.7751623215   -2.5588284720    0.4998486570