13

 C    0.0042106565    1.5167575622   -0.0171179547
 C   -0.0516552900    0.0270795725   -0.0022826593
 C   -1.0688055019   -0.8220962513   -0.1568444146
 C   -0.5655167780   -2.2305786927   -0.0507195633
 O    0.8361763543   -2.1091176331    0.1792989100
 C    1.1814381124   -0.7815906534    0.2149056471
 O    2.3063928450   -0.4075500678    0.3950356548
 H    0.6873925262    1.8666588173   -0.7983070297
 H   -0.9809499894    1.9567147868   -0.1871115367
 H    0.4014426483    1.8945258456    0.9310024579
 H   -2.1095544530   -0.5810081203   -0.3329832032
 H   -1.0185297570   -2.7836341971    0.7822247971
 H   -0.7289731036   -2.8119938786   -0.9673033154