17

 C   -0.1226041461    1.5109818644   -0.0004309845
 C   -0.0058068531   -0.0116189595    0.0091377523
 C    1.1404508522   -0.5750500826   -0.8777188424
 O    1.5319235490    0.2787383809   -1.9277241957
 C    2.0427457141   -0.6796780168    0.3833163907
 C    0.7483342298   -0.5918740460    1.2389431796
 O    0.7353599129    0.2445689500    2.3725005756
 H    0.8374001427    1.9989468704    0.1818908798
 H   -0.4916061154    1.8536312791   -0.9705898539
 H   -0.8164832653    1.8397094799    0.7775507962
 H   -0.9882278828   -0.4553054374   -0.1763876499
 H    0.8841191312   -1.5731109721   -1.2611289905
 H    2.2858968093   -0.1190818173   -2.3740919104
 H    2.6869775600   -1.5560504987    0.4956800708
 H    2.6346352113    0.2322790693    0.5002553319
 H    0.3745330461   -1.5949677674    1.4897348914
 H    1.2793831138   -0.1629170062    3.0536571688