16

 C   -0.0172407577    1.4522816474    0.0309198300
 C    0.0115818931   -0.0373970675   -0.0230269506
 N    0.0199173343   -0.7536743311   -1.1449076403
 C    0.0486025335   -2.0594823958   -0.7528525093
 N    0.1203928366   -3.0590460493   -1.6927821150
 C    0.0562051755   -2.1555331287    0.6417037001
 N    0.0311731592   -0.8260402128    1.0664395319
 C    0.0854773568   -3.2322146429    1.5787843141
 O    0.0862981147   -3.0827936539    2.7929694174
 H    0.8708692333    1.8515420853    0.5329303016
 H   -0.0470677155    1.8422413452   -0.9866200205
 H   -0.8961409125    1.8172899623    0.5733535016
 H   -0.1690829989   -2.7649307001   -2.6139527669
 H   -0.2365142407   -3.9626376650   -1.4250085156
 H    0.0292278469   -0.5664900175    2.0399330436
 H    0.1099904015   -4.2475460155    1.1253684676