17

 O   -0.2727389864   -0.0064838602   -0.3783685092
 C   -0.1392704558    1.1522423022   -0.1296751957
 O    1.0640106229    1.7703539237   -0.2298191519
 C    1.1256325041    3.1607257623    0.0229764456
 C    0.8802958563    3.6679312723    1.4868003350
 C    2.1691427257    4.5235913531    1.3745879216
 C    2.5841511411    3.6841094814    0.1371465335
 C    0.3146476504    3.9505152947   -0.9864835636
 O   -0.4400299099    3.4634235828   -1.7851229903
 H   -0.9448814579    1.8141655494    0.2293316643
 H   -0.0629544058    4.1773972854    1.6969054312
 H    0.9964059240    2.8303185002    2.1783424952
 H    1.9561642700    5.5650699266    1.1214365807
 H    2.8458775256    4.5092468188    2.2298169537
 H    3.2372984118    2.8489839195    0.3961868241
 H    2.9969735052    4.2045746063   -0.7298176957
 H    0.4681848587    5.0511392517   -0.9236701783