19

 C   -0.0624792072    1.5991251444    0.0539049865
 C    0.0186579041    0.0728794833    0.0144728836
 N    0.7826701514   -0.4285604705   -1.1252129299
 C    1.7896476869   -1.3111789195   -0.8437906308
 O    2.4860041963   -1.8988878055   -1.6432473473
 C    1.8451111764   -1.4281143419    0.6712173424
 C    2.3474326731   -2.7065247264    1.2756138850
 N    2.1811742402   -0.0973132112    1.2536378348
 C    0.7760910905   -0.5435514665    1.1911514235
 H    0.9397071442    2.0221533352    0.1512268672
 H   -0.5285530878    1.9912727180   -0.8560743257
 H   -0.6701251045    1.9252125751    0.9043119176
 H   -0.9988106863   -0.3452047899   -0.0050051547
 H    0.6220936517   -0.1207837938   -2.0710668983
 H    3.3732556636   -2.8982742693    0.9472154609
 H    2.3293710322   -2.6602797121    2.3692626630
 H    1.7368719002   -3.5576370603    0.9582516563
 H    2.5300839177   -0.2471486705    2.1994123944
 H    0.2393784974   -0.7576569085    2.1088454616