13

 O   -0.0307899681   -0.0223895685    0.0038435127
 C   -0.0175740618    1.1838121099    0.0099634911
 C   -1.2434010075    2.1113858685    0.0318218886
 C   -0.6841007298    3.5451227120    0.0315563294
 C    0.8236851212    3.3467882352    0.0096212117
 C    1.1868225226    2.0532786477   -0.0020705919
 C    1.7142708849    4.4551171728    0.0031066488
 N    2.4116305101    5.3798364611   -0.0014895599
 H   -1.8691078982    1.8985008967   -0.8392466613
 H   -1.8447192846    1.8892982223    0.9176504249
 H   -1.0022136033    4.1296636953   -0.8379523450
 H   -0.9779530604    4.1204957665    0.9155917222
 H    2.1961587050    1.6650208805   -0.0179320513