23

 C   -0.6537785354    1.1127085069   -0.0519175397
 C    0.2274459021   -0.1128648127   -0.2310990686
 C    1.6873033396    0.0739438543   -0.7391143784
 C    2.1532793723   -0.9814710701    0.2989842206
 C    0.8116229690   -0.8056401512    1.0406817461
 O    0.8916815558    0.0597762342    2.2010052174
 C    0.0933919279   -0.8448260148    2.9893295422
 C    0.0955609024   -1.9004927117    1.8652344973
 C   -1.2388752694   -2.4444555826    1.3782389657
 H   -0.1931245858    1.8134427323    0.6494771326
 H   -0.8065714467    1.6261516760   -1.0075621400
 H   -1.6412067807    0.8484411800    0.3432928582
 H   -0.2816383354   -0.8673176159   -0.8430771921
 H    1.8805319116   -0.1344203096   -1.7940361779
 H    2.0692294049    1.0715114790   -0.5041366102
 H    2.2471838942   -1.9837940817   -0.1314347896
 H    3.0447072842   -0.7606766803    0.8904012150
 H    0.5885978331   -1.1150317219    3.9292000013
 H   -0.8965379094   -0.4250811522    3.2166690376
 H    0.7791713097   -2.7264852906    2.0879509182
 H   -1.9417536817   -1.6362815733    1.1504398420
 H   -1.1175422574   -3.0484076719    0.4724780933
 H   -1.7008021150   -3.0830876323    2.1390162789