20

 C   -0.1682705241    1.5820063140   -0.1295598230
 C    0.0255201814    0.0732103871   -0.0917711732
 C    0.7187409377   -0.6350986882   -1.2670274712
 C    2.1547746650   -0.2167495132   -1.3806099130
 C    1.7746083545   -1.2266197159   -0.3271718348
 C    1.1177719368   -0.5505391483    0.8712281173
 N    1.9698272564    0.3159026071    1.6589749171
 C    1.6633418450    0.6989623400    2.9258544540
 O    0.6530682058    0.3845828754    3.5204589047
 H    0.7615634255    2.1156590718   -0.3489218496
 H   -0.8983300303    1.8581271726   -0.8979526781
 H   -0.5385599335    1.9441325116    0.8349096301
 H   -0.9321491347   -0.4079103890    0.1265933601
 H    0.2076195105   -1.1293877301   -2.0839342898
 H    2.6943482010   -0.6296779142   -2.2267050252
 H    2.4674077566    0.7913192618   -1.1191855050
 H    2.2011070191   -2.2223515436   -0.3184056263
 H    0.6487020920   -1.2546464822    1.5592662564
 H    2.8313459942    0.6431737832    1.2512971617
 H    2.4535413812    1.3384154200    3.3691716478