19

 C   -0.3237222918    1.0620420349   -1.5921923967
 C   -0.0243679355   -0.1953009627   -0.8021450697
 C    1.3789795051   -0.6224837060   -0.4175608787
 C    2.6197984181    0.1631145336   -0.7900187316
 C    0.4002050293   -0.1785264893    0.6521527264
 C    0.5929398851    1.1147332710    1.4330193811
 C   -0.6689082598    1.6238694031    1.9753741726
 N   -1.6712766240    2.0119155714    2.3998538349
 H    0.3582603869    1.8854487151   -1.3661348564
 H   -0.2475076706    0.8672764972   -2.6672819955
 H   -1.3402687608    1.4143438116   -1.3884944915
 H   -0.6930947506   -1.0141090737   -1.0555247404
 H    1.5473793196   -1.6965701887   -0.4374680752
 H    2.4594544930    1.2438980094   -0.8008294022
 H    3.4373243531   -0.0409341737   -0.0896049908
 H    2.9659258863   -0.1192668231   -1.7900820201
 H   -0.0136968383   -0.9694567670    1.2709422087
 H    1.2833105444    0.9523117223    2.2696781362
 H    1.0375663204    1.9003765946    0.8164948587