16

 O   -0.0815694659   -0.0154920641    0.1096973412
 C    0.0136795386    1.1699839261    0.2022772330
 O    1.1094583612    1.8482025344   -0.1958678396
 C    1.1196376360    3.2663697267   -0.0611774727
 C    2.3261735067    3.9179300663    0.5660382142
 C    3.3435930277    4.1432225583   -0.5016110041
 C    2.8221425097    3.5777903385   -1.8114213880
 C    1.4649863597    4.0972609312   -1.3055680153
 N    2.1994005997    5.1089075260   -0.3629365130
 H   -0.7714743967    1.8309625176    0.6194057776
 H    0.1932750445    3.6138276821    0.4082716008
 H    2.5412112562    4.0454983577    1.6199518073
 H    4.3555290649    4.4406433451   -0.2523811213
 H    3.1752767333    4.1705202492   -2.6581804034
 H    2.9247246773    2.5101213942   -2.0197719365
 H    0.6880289372    4.4496820707   -1.9799221602