23

 C    0.1589931331    1.5567801851   -0.0095115205
 C    0.0394126961    0.0293507829   -0.0338565720
 C   -1.4015366193   -0.5333169652    0.0536884362
 C   -2.1716074283   -0.1182530372    1.3254016408
 C   -1.4485211758   -0.3835309665    2.6505546686
 C   -2.2367926952   -0.0936700879   -1.1705202704
 O   -1.5635236153   -0.4943921208   -2.3558336417
 C   -1.3045788638   -2.0609777561   -0.0336420705
 O   -2.0044376442   -2.8296849490    0.5763743296
 H    1.2117942595    1.8519085839   -0.0555078401
 H   -0.3436934693    2.0162101564   -0.8659375847
 H   -0.2638306889    1.9908526994    0.9017968401
 H    0.4909173945   -0.3460460522   -0.9577524180
 H    0.6296695732   -0.3904137346    0.7893279791
 H   -2.4226863457    0.9468949299    1.2540664033
 H   -3.1203803991   -0.6644719616    1.3301051629
 H   -1.2037324290   -1.4431785987    2.7621131238
 H   -0.5226671095    0.1932707916    2.7396437691
 H   -2.0901413721   -0.1026089880    3.4912894590
 H   -3.2326742782   -0.5565704881   -1.1027834105
 H   -2.3762558531    0.9973234323   -1.1397152520
 H   -2.1185494122   -0.2753951560   -3.1095625140
 H   -0.5284572674   -2.4345028394   -0.7357764683