22

 C   -0.0621320884    0.9431139264   -0.6628916620
 C   -0.1307422285    0.1236250307    0.6166353037
 O   -1.3880272388   -0.5800859396    0.7261294890
 C   -1.4664290195   -1.7716067973    0.1069394044
 O   -0.5604302720   -2.2849783556   -0.5037365199
 C   -2.8632610339   -2.3670020199    0.2265433740
 C   -3.7277206929   -1.7725304792   -0.9130045970
 N   -2.7181824803   -3.8131934885    0.2456421204
 C   -3.9492721070   -4.5837478670    0.2499841165
 H    0.8667152159    1.5220584976   -0.6827737629
 H   -0.0771701759    0.2897232108   -1.5383725420
 H   -0.9025441514    1.6406057244   -0.7249920374
 H    0.6828979286   -0.6036221072    0.6622347777
 H   -0.0974224657    0.7618085456    1.5026169222
 H   -3.2900302907   -2.0436102311    1.1834487706
 H   -4.7568148755   -2.1344309349   -0.8484349549
 H   -3.7499975116   -0.6805846387   -0.8486137164
 H   -3.3214189044   -2.0558245437   -1.8897414659
 H   -2.0957478703   -4.0926977427   -0.5044388771
 H   -4.5450922810   -4.3177503833    1.1315907553
 H   -4.5943263823   -4.4563023451   -0.6358894880
 H   -3.7023558544   -5.6465536916    0.3313644597