24

 C   -1.5643051442    0.3186766164   -2.3977684239
 C   -0.8805815895   -1.0187941204   -2.0826653479
 C   -1.8483615420   -2.0014576242   -1.4555385695
 C   -1.5933400016   -3.1900916156   -0.6126279382
 N   -2.3187778427   -1.9615879490   -0.0521337102
 C   -1.1124447448   -1.7227041927    0.8234631929
 C   -0.4653391040   -3.0829437084    0.4259971041
 C   -0.6816381875   -4.1236370405    1.5316257569
 C    0.9872750361   -3.1263005503   -0.0487378491
 H   -0.8686809572    1.0146688748   -2.8761864644
 H   -2.4153864087    0.1773126447   -3.0725896664
 H   -1.9432858756    0.7895404664   -1.4852143005
 H   -0.4939992542   -1.4646566663   -3.0080851760
 H   -0.0114132166   -0.8399965285   -1.4475467169
 H   -2.7189626889   -2.1508779989   -2.0972299646
 H   -2.1330354415   -4.1183098475   -0.7922204151
 H   -0.5512423782   -0.8147399631    0.5828991026
 H   -1.4217497510   -1.6693568374    1.8698049036
 H   -1.7194724862   -4.1209999905    1.8785616468
 H   -0.4475480627   -5.1323833665    1.1719793005
 H   -0.0339182183   -3.9166278181    2.3908948154
 H    1.6700248639   -2.9166127589    0.7831651546
 H    1.2358676893   -4.1230357294   -0.4314976352
 H    1.1986216063   -2.4076089760   -0.8427808294