20

 C    0.0023432094    1.5258926292    0.0278629386
 C    0.0048894153    0.0189972927    0.0108893918
 N   -0.0416339819   -0.7232864656    1.0629595445
 O   -0.1119694464    0.0166900340    2.2470420661
 C    0.0489958712   -0.7039449980   -1.2580894316
 C    0.0299630557   -0.1598395022   -2.4850518883
 C    0.0284691878   -1.1976621971   -3.5774291060
 C    0.3912939194   -2.5014333898   -2.8218801024
 C    0.0602957846   -2.2201211210   -1.3362030900
 H    0.7194883060    1.9172712089   -0.6982212420
 H   -0.9864997559    1.9110977368   -0.2458282072
 H    0.2519675369    1.9023773544    1.0185931403
 H   -0.1054320281   -0.6758604867    2.9159657895
 H   -0.0245748952    0.9022407762   -2.6953446535
 H   -0.9645566008   -1.2579668439   -4.0473595648
 H    0.7309931371   -0.9663865514   -4.3865697451
 H   -0.1307828061   -3.3777297673   -3.2140760595
 H    1.4641996724   -2.6920301347   -2.9265730647
 H    0.7790459275   -2.6669239250   -0.6442975317
 H   -0.9224463390   -2.6159539694   -1.0486774640