18

 C   -0.6077243953    0.9999674481    0.0021132074
 N    0.5527310416    0.1311658976   -0.1674599113
 C    0.9912295879   -0.5376462026    1.0480104335
 C    0.0526730581   -1.6641064178    1.5572458701
 O   -0.2446528505   -2.5742840371    0.5119078862
 C    0.4719482911   -3.7257522288    0.4468097513
 N    0.2937859405   -4.5073085680   -0.5231690629
 C    2.3463649193   -1.0834552962    0.8489227935
 N    3.3936363068   -1.5528364955    0.7164459462
 H   -0.3577524346    1.8074952220    0.6992104354
 H   -0.8446059859    1.4566320726   -0.9620447262
 H   -1.5180696573    0.5002423742    0.3706073938
 H    0.3718344618   -0.5707861484   -0.8781202565
 H    1.0593660622    0.2148794042    1.8454160704
 H    0.4964553784   -2.1744648908    2.4210478965
 H   -0.8989622867   -1.2248931679    1.8668504939
 H    1.1553488703   -3.8621941281    1.2939607893
 H    0.8862292025   -5.3287733674   -0.4238790209