23

 C   -0.2022125378    1.5367455393    0.0669838880
 C   -0.0164858868    0.0381505514   -0.0004330742
 C    0.6781980652   -0.6617428055   -1.1543750364
 C    1.3530717677    0.1195446504   -2.2796583076
 C    2.8858885443    0.1681237387   -2.1296493997
 C    3.3277149384    0.5193991194   -0.7216914187
 C    4.6299417340    1.2570222360   -0.5837110217
 C    2.5916022168    0.1509958178    0.3326381433
 C    1.3359570067   -0.6296121149    0.2076106909
 H    0.7079405324    2.0742383919   -0.2104735422
 H   -1.0091160360    1.8698455969   -0.5962218938
 H   -0.4638054705    1.8450101365    1.0853141947
 H   -0.8530077604   -0.5191800453    0.4150035761
 H    0.2432291558   -1.6102509076   -1.4538580342
 H    1.0915796301   -0.3266905145   -3.2448872410
 H    0.9751965020    1.1472384715   -2.3117427501
 H    3.3211429067   -0.8034339830   -2.4075366587
 H    3.3032621366    0.8913561411   -2.8410660510
 H    4.5934485459    2.2309174903   -1.0896008831
 H    4.8922289716    1.4257354254    0.4645403334
 H    5.4500947747    0.6980074041   -1.0539666471
 H    2.9289895757    0.4020811110    1.3371145346
 H    1.3144591067   -1.5465671610    0.7928346083