19

 C    0.5425136620    1.4044713775    0.2020164055
 C   -0.2807977909    0.1519610190   -0.1243103743
 C    0.1999685268   -0.5181432246   -1.3896089526
 O    1.4364455103   -1.2430659880   -1.3227870196
 C    0.2389063725   -1.9698260287   -1.6335401866
 C   -0.1951698185   -3.0405456017   -0.6607639039
 C    0.6951626672   -4.2862156087   -0.7542126445
 H    1.5963704730    1.1449043237    0.3394196084
 H    0.4818248210    2.1407738215   -0.6068974991
 H    0.1856898732    1.8838687279    1.1182663056
 H   -0.2312819504   -0.5495599766    0.7131806192
 H   -1.3373125902    0.4213812396   -0.2542304938
 H    0.1262290485    0.1186768424   -2.2762342484
 H    0.1907044670   -2.2850667054   -2.6801455258
 H   -0.1749722348   -2.6494628525    0.3603242198
 H   -1.2372940499   -3.3074595186   -0.8808165190
 H    0.6658652023   -4.7200457959   -1.7597462283
 H    1.7352124352   -4.0311769972   -0.5303373110
 H    0.3718645057   -5.0564928035   -0.0479473315