15

 C    0.0129377979    1.3477784865   -0.1858681906
 C    0.4521700015   -0.0818938315   -0.0028218534
 O    0.8641580894   -0.5536412672    1.0240823152
 C    0.3285669722   -0.9513867342   -1.2778744488
 O   -0.1154579006   -0.5388776039   -2.3208314652
 O    0.7706493692   -2.1985139706   -1.0748586140
 C    0.7098283788   -3.0557580237   -2.2198195250
 C   -0.7221220464   -3.4438024602   -2.5717562145
 O   -1.0016014783   -4.0447548552   -3.5713273966
 H   -1.0280593968    1.3805926441   -0.5229053910
 H    0.1275609019    1.8879061279    0.7537622987
 H    0.6033438884    1.8238674845   -0.9755240748
 H    1.1790178502   -2.5874499806   -3.0889159151
 H    1.2682254074   -3.9531351049   -1.9411539851
 H   -1.4803110750   -3.1539065609   -1.8110721998