20

 C   -0.1367466628    1.5315624360   -0.0639419018
 C    0.0367119549    0.0167983935    0.0134934457
 C    0.8212751347   -0.5039170674   -1.2048149106
 O    0.9768399966   -1.9075004513   -1.1804352408
 C    1.6709181207   -2.3367155516   -0.0192992844
 C    0.9292525362   -1.9159949045    1.2462316681
 N    0.7022864232   -0.4731704399    1.2250090433
 C    1.0882893903    0.2799246114    2.2941832218
 O    1.6320203977   -0.1554533586    3.2912019982
 H    0.8234093307    2.0565621392   -0.0471805523
 H   -0.6363208577    1.7766650712   -1.0059657268
 H   -0.7573504245    1.9184884754    0.7479808977
 H   -0.9593295484   -0.4511321125   -0.0260214413
 H    0.2808791617   -0.2669836183   -2.1261133774
 H    1.8053806150   -0.0045665879   -1.2351339803
 H    1.7424836465   -3.4258415084   -0.0829309178
 H    2.6899832014   -1.9171027433   -0.0086218445
 H   -0.0361103606   -2.4387015636    1.2940155415
 H    1.5001721728   -2.1457024851    2.1469685855
 H    0.8617290915    1.3503936756    2.1702860261