14

 O    0.1069004375    0.5750212100    0.7936661965
 C    0.7202269318    0.9502332817   -0.1698226623
 C    1.4928129099    2.2678888592   -0.2135728302
 C    1.1569026824    3.0046531084   -1.5151470478
 O    1.2340858654    2.4844347809   -2.5968549412
 C    1.2741383142    3.1144433736    1.0166584141
 C    2.2664891561    3.2023391478    2.0905863186
 O    2.1301710922    4.2553250362    1.1330978572
 H    0.7651571146    0.3700962671   -1.1128900110
 H    2.5551585331    1.9973374189   -0.3068601312
 H    0.8269872254    4.0571011771   -1.3897654385
 H    0.2315899306    3.3041494755    1.2697367309
 H    1.9439540860    3.4440886396    3.1012275966
 H    3.1859242307    2.6225206240    2.0213471783