14

 O   -0.0388783442    1.4542835182   -0.1051582235
 C   -0.0007008612    0.0578153079    0.0062313503
 C    0.2296629003   -0.6334439016    1.3854569622
 N   -1.0781538017   -1.3834698934    1.2711347692
 C   -2.1445130591   -0.3533678936    1.2449311545
 C   -2.0823672591    0.8495878039    2.0390540722
 N   -2.0743947772    1.7783919298    2.7275928160
 C   -1.3687186938   -0.6004191814    0.0020745550
 H    0.8569713367    1.7992192748   -0.0315512356
 H    0.6408844806   -0.3932928557   -0.7622100691
 H    1.0564347686   -1.3446614743    1.3998612693
 H    0.2869401443    0.0272125368    2.2539320444
 H   -3.1295186718   -0.8123522906    1.2594206370
 H   -1.8533877023   -1.0525295008   -0.8569338119