18

 C    0.0275860947    1.4303630099    0.1128538786
 N   -0.1268672754    0.0050466924   -0.1463231481
 C    0.6824128571   -0.5138585251   -1.2492088762
 C    2.2085436038   -0.5332498210   -1.0136940664
 C    0.1910371578   -1.8912133349   -1.5843659789
 N   -0.2362858054   -2.3525939559   -2.7221376877
 C   -0.5230348214   -3.6583422017   -2.4048552808
 N   -0.2946510000   -3.9986364269   -1.1675333681
 O    0.1940133956   -2.8086237911   -0.6072845045
 H    1.0473094676    1.7534296806    0.3804643428
 H   -0.2783993751    1.9938894299   -0.7756969474
 H   -0.6398529100    1.7159276349    0.9307424633
 H    0.0542390005   -0.5330142472    0.6946353086
 H    0.4646584267    0.0977321085   -2.1308101520
 H    2.4584566414   -1.1748920676   -0.1629057896
 H    2.7358063820   -0.9120986890   -1.8946708604
 H    2.5755987525    0.4755258497   -0.8087639745
 H   -0.9138837925   -4.3710179856   -3.1165543386