17

 C    0.2308510654    1.6259448712    0.1157979143
 C   -0.0258546301    0.1566035791    0.1503748437
 C   -1.3384344288   -0.5961631274   -0.1310117293
 C   -0.8400300775   -1.7567632954    0.8208173652
 O   -1.6117404501   -1.8983272029    1.9706275341
 C   -0.6084040314   -3.0995198102    0.1721009649
 O   -1.1029895209   -4.1068771798    0.6250084396
 C    0.4587894786   -0.9210073237    1.0289415997
 O    1.0308661772   -0.7298320375   -0.2691973928
 H    1.2314099105    1.8463383157    0.4968648944
 H    0.1636312773    2.0076628873   -0.9091196661
 H   -0.5048880341    2.1605509611    0.7244363118
 H   -2.2162500624   -0.1380519029    0.3286400429
 H   -1.5352110399   -0.8301801794   -1.1806939746
 H   -1.8083234163   -2.8485963668    2.0309840533
 H    0.0376246958   -3.1071607662   -0.7231137571
 H    1.1136048667   -0.9243205320    1.8935109360