20

 C   -0.0171167631    1.6354469369   -0.3183386262
 C   -0.0061039672    0.1584042444    0.1075532152
 C   -1.3750731988   -0.4417047923    0.1539649161
 C   -2.0803098401   -0.9386024732    1.2022823053
 C   -1.8347442755   -1.1111858067    2.6559679229
 O   -3.2977663272   -1.3643126206    0.7168856552
 C   -3.2591221147   -1.0957390599   -0.6138393274
 C   -4.4527925559   -1.4513875383   -1.4246876064
 N   -2.1522110316   -0.5519813326   -1.0032617559
 H    1.0015595513    2.0284077831   -0.3932166809
 H   -0.5026574786    1.7459636098   -1.2915626445
 H   -0.5673879919    2.2476978012    0.4033417139
 H    0.6062918879   -0.4130613829   -0.6012678603
 H    0.4728275211    0.0539570042    1.0873420568
 H   -2.5667625384   -0.5598608393    3.2574734806
 H   -1.8941066694   -2.1646604663    2.9530500742
 H   -0.8393075796   -0.7424636324    2.9128720780
 H   -5.3442141676   -0.9239989773   -1.0688729094
 H   -4.2685140658   -1.1776388904   -2.4637343902
 H   -4.6629480246   -2.5247560174   -1.3696201770