18

 C   -0.4594911499    1.3843379931   -0.0158311089
 C    1.0289814046    1.3222815995    0.0060360927
 C    0.2294629094    0.0121531212    0.0178007815
 C    0.1685824785   -0.6979443856    1.3128241212
 C   -0.0381998834   -1.9936648240    1.5362108686
 C   -0.3075100489   -3.0545414256    0.5129364104
 O    0.3911955863   -2.9731035077   -0.7341331086
 C    0.3405873350   -1.8594002862   -1.5071973809
 N    0.2479622491   -0.6287049004   -1.2494491781
 H   -0.9863671408    1.7000581602    0.8772145033
 H   -0.9451546867    1.6285984203   -0.9521140625
 H    1.5625383404    1.5302960574   -0.9124043935
 H    1.5520351329    1.5892116528    0.9174332177
 H    0.2979291247   -0.0502433690    2.1781878447
 H   -0.0772514271   -2.3424475202    2.5650640456
 H   -0.0260974850   -4.0339553563    0.9096945959
 H   -1.3849252477   -3.0962989595    0.2927536115
 H    0.4421509886   -2.1602058503   -2.5504901007