21

 C   -0.0269104558    1.4655701165   -0.4533737668
 O   -0.2192380755    0.0701876230   -0.4714491513
 C    0.8310510493   -0.6546400068   -1.1105295476
 C    2.0581641844   -0.8098496345   -0.1961201494
 C    0.3065526546   -1.9583447762   -1.5122789607
 C   -0.0951180512   -3.0454127026   -1.8439209409
 C   -0.5842212784   -4.3347739873   -2.2351929092
 C   -2.0203964110   -4.4912791716   -2.7129464515
 C   -0.8966819679   -4.6260548771   -3.6956721448
 H    0.8271905597    1.7732999423    0.1680234044
 H    0.1232616531    1.8695348605   -1.4674134462
 H   -0.9342381306    1.9053572150   -0.0319490532
 H    1.1365643090   -0.1039394272   -2.0175967840
 H    1.7749987957   -1.3421779429    0.7152500030
 H    2.8403526029   -1.3780869577   -0.7067361221
 H    2.4672600357    0.1670264874    0.0765885573
 H   -0.1868797162   -5.1694274757   -1.6646732090
 H   -2.5496501457   -5.3849649519   -2.4023390801
 H   -2.6252287650   -3.5933659463   -2.7481514119
 H   -0.7371323482   -3.8203246309   -4.4020425319
 H   -0.6466104587   -5.6132571160   -4.0676252544