15

 O    0.4456063740    0.9618279166   -0.6920715811
 C    0.0657829630   -0.1723845288    0.0213794533
 C   -0.0737863236   -0.1293235012    1.5664317851
 C   -1.2918598360   -1.0806880697    1.4435751389
 C   -1.4282544799   -0.6818591893   -0.0646973287
 C   -2.3479988812    0.4122299680   -0.3051274096
 C   -3.0499405652    1.3710395172   -0.5022350046
 H   -0.2746864607    1.6024510827   -0.6220013962
 H    0.7390726208   -0.9772457593   -0.2880416406
 H    0.7814881869   -0.4522429265    2.1633589754
 H   -0.3796916054    0.8687412169    1.8937405695
 H   -1.0119671195   -2.1323885749    1.5403622907
 H   -2.1559714053   -0.8813871105    2.0774408615
 H   -1.6135873153   -1.4967293520   -0.7698351192
 H   -3.7066370725    2.1868228009   -0.6791225345