14

 O    0.0106848677   -0.0821504627    0.0454202777
 C   -0.0153018335    1.1091725753    0.0213795849
 C   -1.0260060781    2.2503879443    0.0226715425
 C   -0.0366247639    3.1136562694    0.8967824214
 N    0.0128589111    4.2943491294   -0.0189599453
 C   -0.0583383704    3.0934551860   -0.9245592961
 C   -0.0867811142    3.1534132796   -2.3518278024
 C   -0.1256540168    3.2074398839   -3.5522251892
 C    0.9497162168    2.2884063840   -0.0039242074
 H   -2.1136131640    2.2820788740    0.0233017237
 H   -0.0137871429    3.1850265252    1.9819944336
 H   -0.8884366301    4.7803954260   -0.0210161084
 H   -0.1527690294    3.2540981846   -4.6132074171
 H    2.0324677177    2.3713281910   -0.0294072581