16

 O    0.0011533627   -0.0705900311   -0.1349824013
 C   -0.0134448221    1.1377004489    0.0040082071
 N   -1.1864273891    1.8535550153    0.1422582888
 C   -1.2958877501    3.2951424170    0.0494559914
 C   -0.0422498526    3.9231705645    0.6887629890
 C    1.2105686648    3.3292587319    0.0161122120
 N    1.1428919322    1.8852574820    0.1112659920
 C   -0.0636248847    5.3786844180    0.5721813028
 N   -0.0806241515    6.5294506591    0.4707832671
 H   -2.0086073434    1.2951887797   -0.0222565051
 H   -1.3824058134    3.6494734024   -0.9888150776
 H   -2.1920803299    3.6252101424    0.5826714046
 H   -0.0244823190    3.6567117931    1.7516567181
 H    1.2597707224    3.6854391943   -1.0239630036
 H    2.1113105657    3.6837842026    0.5254279589
 H    1.9752781580    1.3494233499   -0.0753765839