17

 O    0.0829904605    1.3652669408   -0.1618388613
 C    0.0617166168   -0.0431423341   -0.1177501474
 C   -1.3709266312   -0.5604247575    0.0366108825
 O   -2.1050539615   -0.0528474531   -1.0704224692
 C   -3.3619142625   -0.6872734093   -1.1952571372
 C   -3.1354416514   -2.1503708981   -1.5142047068
 O   -2.3073919230   -2.7896078861   -0.5268754054
 C   -1.3982885918   -2.0830699127    0.1813558399
 O   -0.6644955672   -2.6501954546    0.9440748563
 H   -0.5236925287    1.6277844466   -0.8636553816
 H    0.5034508747   -0.4893679788   -1.0224660865
 H    0.6505138984   -0.3628192450    0.7431788822
 H   -1.7904929035   -0.1544046139    0.9725199554
 H   -3.9518481794   -0.5736010417   -0.2719419950
 H   -3.8986305421   -0.1980526624   -2.0127805179
 H   -4.0732005132   -2.7127404247   -1.5328350008
 H   -2.6442386349   -2.2491423652   -2.4888318973