18

 N   -0.2215511775    1.3826994304    0.6098017873
 C    0.1068027638    0.1960157571    0.0469269151
 O    1.2348694671   -0.1078458956   -0.2995792069
 C   -1.0601911901   -0.7826254023   -0.1384200974
 O   -2.2500156145   -0.1621715483    0.3526004948
 C   -1.2361166662   -1.1951789939   -1.6271636926
 C   -1.6856642866   -2.6342152215   -1.5297726429
 C   -1.4513674432   -3.1426436901   -0.3197178050
 C   -0.8057829413   -2.1292703601    0.5960764582
 H    0.5022691191    2.0655145458    0.7566033518
 H   -1.1733204407    1.5705955653    0.8731785769
 H   -2.9733478651   -0.7863008370    0.2304474075
 H   -1.9505087742   -0.5292660090   -2.1230619737
 H   -0.2810752811   -1.1161715538   -2.1595863155
 H   -2.1012028803   -3.1767281620   -2.3714443252
 H   -1.6455023576   -4.1656637538   -0.0178055765
 H    0.2706724249   -2.3138054226    0.6909712822
 H   -1.2287727965   -2.0959378686    1.6058681317