12

 O    0.0085618203   -0.0057042128    0.1488884004
 C   -0.0128574346    1.1601928856   -0.0708632650
 O    1.0902712744    1.9445273076    0.2220085041
 C    0.9971192227    3.2937609763    0.1431828501
 N    2.1622479215    3.9150377684   -0.0379252960
 C    2.0684330176    5.2342816639   -0.0748156301
 C    0.8294010634    5.8704036302    0.0459663245
 N   -0.2880357579    5.1736991919    0.2177065765
 N   -0.2048796929    3.8494278093    0.2859598956
 H   -0.8320214408    1.7343538906   -0.5205585270
 H    2.9886084721    5.7976384946   -0.2086279099
 H    0.7244378642    6.9487068044    0.0066440170