17

 C    0.0207760609    1.4993478563   -0.0232089912
 C    0.0175346216   -0.0054178703    0.0063780004
 C   -1.3100346886   -0.7964319545   -0.1361099028
 C   -0.7099024576   -2.0865886944    0.4418181605
 O   -0.3993127977   -1.6663253017    1.8046172241
 C    0.6376746435   -0.8966066404    1.1991626913
 C    0.8248086824   -1.8589000743    0.0233837505
 N    0.9550222064   -0.7367913113   -0.9050430198
 H    1.0363764600    1.8879252369    0.0950221966
 H   -0.3761931934    1.8797993789   -0.9717816107
 H   -0.6025891879    1.8999588515    0.7829128818
 H   -2.1298761163   -0.4385722456    0.4907452270
 H   -1.6361365870   -0.8569413203   -1.1792691992
 H   -1.2416376778   -3.0346427006    0.3828520385
 H    1.3962362664   -0.4894923106    1.8645186927
 H    1.5096265052   -2.7039025549   -0.0244468548
 H    0.5835035398   -0.8977883245   -1.8416630648