18

 O   -0.0238509334    1.4381928368   -0.0982416345
 C    0.0074610737    0.0272703670    0.0789364289
 C    0.1460743994   -0.5570592610    1.5274645273
 C   -1.1906968220   -1.2742511323    1.3282370199
 C   -2.2767805910   -0.2764572814    1.0431784937
 N   -2.3172951145    1.0482276793    1.5936781413
 C   -3.2638552146    1.4255553453    2.4903746620
 O   -4.1125574841    0.6955908309    2.9602012642
 C   -1.3532021335   -0.6393590125   -0.0766973196
 H    0.8654104018    1.7818448382    0.0371459058
 H    0.7469276152   -0.4227869322   -0.5940151109
 H    1.0021907399   -1.2265090606    1.6290728988
 H    0.1647843526    0.1805645343    2.3353979100
 H   -1.4150813839   -2.2870786540    1.6376988793
 H   -3.2668904983   -0.7149120984    0.9762144658
 H   -1.6854006553    1.7305190142    1.1993794068
 H   -3.1781620646    2.5002822351    2.7493831615
 H   -1.7204805572   -1.0698609986   -1.0005349303