16

 C   -0.0626802951    1.4454985220   -0.1419924331
 C   -0.1084220594   -0.0439921657   -0.0917059008
 O    0.6923830518   -0.7566213011   -1.1509904580
 C    0.1050584387   -1.8698770164   -0.5404749041
 N    0.7591049556   -2.6912134381    0.1683047058
 C    0.2855611456   -2.3052648178    1.5484511088
 C   -0.3934878227   -0.9301945237    1.3125839611
 C   -1.1282798819   -1.0630725599    0.0329132365
 O   -2.4547640178   -1.0695407401   -0.3186920855
 H    0.9457027029    1.8138988604    0.0648365777
 H   -0.3654374300    1.7942800680   -1.1337366463
 H   -0.7474760899    1.8628095310    0.6006958524
 H   -0.3914074523   -3.0207970013    2.0420877676
 H    1.1996856148   -2.2417990851    2.1459101992
 H   -0.7621727119   -0.3184832163    2.1338417955
 H   -2.8951122384   -1.7848698259    0.1546339532