18

 C   -0.0751255498    1.4654494337    0.0112942524
 C   -0.0518024950    0.0105252509    0.0029634920
 C   -0.0359635766   -1.1923777473   -0.0038746139
 C    0.0114199946   -2.6460532133   -0.0123073829
 O   -1.3074085804   -3.1765207968   -0.0030312314
 C   -1.3241064636   -4.5824967917   -0.0104210129
 C   -2.7995066539   -5.0005661730    0.0009880950
 C   -2.9588773040   -6.4510951520   -0.0054009110
 N   -3.0650572306   -7.6015156711   -0.0104005167
 H    0.9414189044    1.8735883906    0.0019435950
 H   -0.5992470578    1.8601703456   -0.8657181150
 H   -0.5790669020    1.8504040412    0.9043309812
 H    0.5540096139   -3.0033536140   -0.9040548002
 H    0.5703461262   -3.0130890974    0.8652855336
 H   -0.8233779679   -4.9854055789   -0.9052066068
 H   -0.8069316177   -4.9949357307    0.8705624386
 H   -3.2861523450   -4.5837846929    0.8887105828
 H   -3.3024903548   -4.5742696630   -0.8729979399