14

 N    0.0835117711    1.3950143044   -0.1503656135
 C   -0.0155335427    0.0056172910    0.0225513691
 C   -1.0529233483   -0.8784847985    0.1866747237
 O   -2.3678994306   -0.5050289141    0.2975258490
 C   -3.3258305287   -1.3667139594   -0.1524318356
 O   -4.4854329037   -1.1115327187   -0.0424846910
 N   -0.6249707013   -2.1700890160    0.2550833627
 C    0.6857596754   -2.0962088806    0.1352081545
 N    1.1019401321   -0.8112129108   -0.0090321117
 H   -0.7426412465    1.7537110018   -0.6159825879
 H    0.1692081112    1.8898455495    0.7334306015
 H   -2.8982351348   -2.2753008754   -0.5997977413
 H    1.3672108585   -2.9320387202    0.1631184896
 H    2.0432495282   -0.4814916530   -0.1465894992