16

 O   -0.0524644456    1.4102030367   -0.0567066459
 C    0.0207148090    0.0225845700    0.0034926283
 C   -1.3393291003   -0.6893896030    0.0733554509
 O   -0.8763560720   -1.5270359510    1.1677837251
 C    0.3831892948   -0.8147306468    1.2526197496
 C    1.5842326768   -1.4422898838    0.5043424062
 C    1.1185461233   -2.1579611583   -0.7277548915
 C    1.1899832745   -0.6561385174   -0.7608031495
 H    0.8436090323    1.7640734772   -0.0703160364
 H   -2.1441542520   -0.0175386018    0.3937883525
 H   -1.6627479853   -1.2743548239   -0.7943953438
 H    0.5762206137   -0.3910952709    2.2408231497
 H    2.5643995924   -1.6085050933    0.9349411571
 H    1.8989455200   -2.6598094094   -1.2909712352
 H    0.1682049298   -2.6798919399   -0.7175021038
 H    1.8148658387   -0.1314426743   -1.4761033933