16

 C    0.0582116003    1.4766404032    0.0038180135
 C    1.2888198909    0.6514045617    0.0558811044
 C    1.9168323922    0.3276135273    1.4185180529
 N    0.8103134739   -0.3683578273    2.0464112239
 N    0.6584364899   -0.9046583780    3.2705615070
 C   -0.5623656450   -1.4446495712    3.2100305623
 C   -1.1907580038   -1.2654059940    1.9506795660
 C   -0.2523178956   -0.5596604393    1.2302545250
 N   -0.0532596383   -0.0052635990   -0.0566688249
 H   -0.2802000669    1.9618915429    0.9155160243
 H   -0.2045670142    1.9834454534   -0.9192726676
 H    1.9225006498    0.5774825155   -0.8206466926
 H    2.7911035622   -0.3238165646    1.3124984867
 H    2.2116432982    1.2140920379    1.9885571723
 H   -0.9573589787   -1.9551834504    4.0766972136
 H   -2.1645780149   -1.5967941082    1.6332646531