21

 C    0.1694620659    1.5725062700    0.9239246964
 C    0.1126531689    0.1006747399    0.5436765231
 C    0.7411215488   -0.4323467185   -0.7914047701
 C    2.1776509552    0.0577867977   -0.6391044605
 O    2.4225064687   -0.3128594385    0.7527712308
 C    1.1458298293   -0.8823072086    1.1384321600
 C    0.8743145627   -1.8387203053   -0.0587951641
 C   -0.3600466062   -2.7251523611   -0.0541327267
 O    1.9557000046   -2.6657746122   -0.4090710045
 H    1.1966963875    1.9350014571    1.0037584969
 H   -0.3594608227    2.1908813790    0.1904500317
 H   -0.3102126914    1.7332385687    1.8953320219
 H   -0.9021777583   -0.2779856778    0.6645489976
 H    0.2580438147   -0.3148147225   -1.7611576456
 H    2.8821339566   -0.4665692080   -1.2918644752
 H    2.3040527946    1.1369338253   -0.7659422484
 H    1.1923721265   -1.1919399609    2.1825532819
 H   -1.2926682395   -2.1782125326    0.0891516529
 H   -0.4173703050   -3.2494106780   -1.0130790992
 H   -0.2739486889   -3.4831823192    0.7302870633
 H    2.7431278179   -2.2546624543   -0.0279164321