18

 C    0.2236729777    1.5545712208   -0.1815220454
 O   -0.3372653168    0.3177131637   -0.5657323747
 C    0.5805067811   -0.5467075393   -1.1750342213
 C    1.6186052456   -1.2992408608   -0.2957769399
 C    1.2771003184   -2.5883307930   -1.0891894823
 C   -0.0322451813   -1.9063288506   -1.6162743741
 C   -1.2425734402   -2.3000584072   -0.8057361457
 O   -2.2889425607   -2.6578618361   -1.2818884475
 H    1.0156670519    1.4311702298    0.5718324954
 H    0.6479297916    2.0894585457   -1.0454428674
 H   -0.5805933356    2.1557597964    0.2479145867
 H    1.0714834000   -0.0505478895   -2.0267835939
 H    2.6533767261   -0.9510457538   -0.3102069568
 H    1.2749777585   -1.3542020173    0.7411094856
 H    1.9763104913   -2.7839944587   -1.9044033236
 H    1.1499984478   -3.5081488042   -0.5139367014
 H   -0.2729439089   -2.0169971144   -2.6744084048
 H   -1.0990271665   -2.2663069315    0.2977168510