18

 C   -0.0850597199    1.6528175218    0.2120854138
 N   -0.3032193215    0.3478104841   -0.4053895064
 C   -0.1620486157   -0.8081999820    0.4738954873
 C   -1.5056421675   -0.3614299920    0.0122094396
 C    1.3520227152    2.0632343956    0.1109313496
 C    2.3229202262    1.5643994601   -0.7181915504
 N    3.4562343579    2.2962738933   -0.4319463136
 C    3.1249707620    3.1887692297    0.5418357742
 N    1.8651504188    3.0759982167    0.8937325103
 H   -0.7230961633    2.3786115914   -0.3097284008
 H   -0.3898892183    1.6774174533    1.2734776578
 H    0.3094702665   -1.6838774145    0.0370531773
 H    0.0925233207   -0.6247533457    1.5164792389
 H   -2.1483634056    0.1174909699    0.7495493827
 H   -2.0333194905   -0.9030414761   -0.7678707312
 H    2.3072488164    0.7850118237   -1.4596251425
 H    4.3610809096    2.1798952009   -0.8554985928
 H    3.8389657190    3.8870067298    0.9527613262