17

 O   -0.0579360779    1.4007126644   -0.0446478295
 C   -0.0436672474    0.0141994342   -0.1060725817
 C    0.7931080900   -0.6423139990   -1.2128735631
 C    0.1916653656   -2.0391839100   -1.2391108447
 C   -0.8847666638   -2.1026226303   -0.4338603114
 C   -0.8769257760   -2.9666301930    0.7929782422
 C   -0.5113212938   -2.1110575425    1.7656276560
 C   -0.5631310153   -0.6769304054    1.2946651992
 C   -1.3228876157   -0.7067731555    0.0041616504
 H    0.8308923632    1.7030348946    0.1704336838
 H    0.7189207019   -0.0388088762   -2.1312457992
 H    1.8632425839   -0.7233115515   -0.9756692654
 H    0.7982644637   -2.9029345633   -1.4931774783
 H   -0.8921475191   -4.0465613771    0.8357738773
 H   -0.2379055457   -2.3859188923    2.7779880972
 H   -0.7556530739    0.1103467538    2.0165227666
 H   -2.3186714297   -0.3069904308   -0.1673175596