20

 C   -0.0796661230    1.5723111181    0.1244215462
 C   -0.0134947333    0.0392679540    0.0178669244
 C    0.6861737480   -0.4503007577   -1.2708264383
 C   -0.0399848141   -0.0652517613   -2.5640921059
 C    0.6181828389   -0.6656104962   -3.8006259461
 O   -0.1104883117   -0.2255803828   -4.9358148782
 C    0.7456782704   -0.5089652438    1.2103548654
 O    0.3252069432   -1.3196203380    1.9942903623
 H    0.9245619807    2.0116658150    0.1077089218
 H   -0.6464340897    2.0017334653   -0.7050146402
 H   -0.5666034271    1.8804647122    1.0547334023
 H   -1.0231342519   -0.3838352714    0.0633257290
 H    1.7132964392   -0.0593408542   -1.2934574553
 H    0.7745046953   -1.5435722811   -1.2223139662
 H   -1.0825913561   -0.4033057665   -2.5262547152
 H   -0.0658525179    1.0222685760   -2.6903317461
 H    1.6720398515   -0.3450343708   -3.8534931634
 H    0.6172855397   -1.7654888615   -3.7259634076
 H    0.2915347302   -0.6098466715   -5.7201836853
 H    1.7788445377   -0.0946987536    1.3146658868