18

 C    0.3041894688    1.5011735494   -0.0485402656
 N    0.0060511731    0.0706024742    0.0303445462
 C   -0.2667926347   -0.5621752082   -1.1919382818
 C   -0.2831048779   -1.8531787359   -1.5358930701
 C    0.0528437575   -3.0579323186   -0.7127975835
 O    0.5288073810   -2.7703964508    0.5815698090
 C   -0.3618215787   -1.9992757640    1.3606981670
 C   -0.0755362459   -0.4997069479    1.2899127172
 O    0.0691226037    0.1515554816    2.3074111980
 H    1.2149577880    1.6707784413   -0.6313013114
 H   -0.5238881920    2.0393119708   -0.5234166888
 H    0.4418844522    1.8716811017    0.9648128403
 H   -0.5146436524    0.1648625657   -1.9599656174
 H   -0.5777463660   -2.0671068114   -2.5597052860
 H   -0.8244936318   -3.7300276022   -0.6624987720
 H    0.8523771604   -3.6296684178   -1.2007513429
 H   -1.4097772174   -2.1919393586    1.0831364953
 H   -0.2228146682   -2.2774792292    2.4069856464