22

 C   -0.0808342808    1.6179184670   -0.0451912438
 C   -0.0477179117    0.0879528766   -0.0047255921
 C    0.7443605415   -0.5107699150   -1.1710153197
 C    0.7345633003   -2.0565981116   -1.2308828224
 O   -0.6007091852   -2.5611750363   -1.2640655464
 C    1.5495089710   -2.5659989938   -2.4446828374
 C    1.5770753398   -4.0884201568   -2.5863534935
 C    1.3291250603   -2.5971933890    0.0113875798
 N    1.8441949578   -2.9947788527    0.9657379007
 H    0.9289069017    2.0404591824    0.0030928873
 H   -0.5481053756    1.9836179149   -0.9667453284
 H   -0.6498563881    2.0208971792    0.7977698651
 H    0.3946905969   -0.2471470020    0.9404732481
 H   -1.0668155310   -0.3121597300   -0.0246938604
 H    0.3316111974   -0.1543520237   -2.1258757470
 H    1.7853671251   -0.1674115063   -1.1390486072
 H   -1.0108043016   -2.2164355242   -2.0658213908
 H    1.1011215881   -2.1091575596   -3.3373264999
 H    2.5677769992   -2.1680367248   -2.3722836608
 H    2.0847581882   -4.5543057182   -1.7367279062
 H    0.5629571462   -4.4929148330   -2.6335337000
 H    2.1079945004   -4.3778136031   -3.4974699750