18

 C    0.0819259979    1.5046804323    0.0379205798
 C    0.0060284406    0.0151434746   -0.0466364060
 C    0.1057230572   -0.8480748649   -1.1181440296
 C   -0.0526481266   -2.1427080298   -0.5629800029
 N   -0.2357463599   -2.0970816957    0.7527775634
 N   -0.1988171951   -0.7718789346    1.0405520581
 N   -0.0924445885   -3.3475976214   -1.2790227992
 C    1.1753692478   -3.9739077579   -1.6688048893
 C    0.3250726642   -4.5659042572   -0.5987234273
 H    0.9219962281    1.8360025370    0.6594334047
 H    0.2173663288    1.9292322623   -0.9587172990
 H   -0.8323416726    1.9349179893    0.4626854185
 H    0.2597983425   -0.5887567411   -2.1527983194
 H   -0.3358474328   -0.4804851720    1.9928912865
 H    1.1935924683   -4.4058725087   -2.6651170894
 H    2.0937514073   -3.4803797517   -1.3598362228
 H    0.6654132389   -4.4677028819    0.4275205983
 H   -0.2823533060   -5.4416624686   -0.8068341646