22

 C   -0.4363098013    1.2233201136    1.1923709401
 C    0.0898766052   -0.0530401514    0.5516632028
 C    0.5471659644    0.0317055660   -0.9338508582
 C    1.9338226750   -0.5241274679   -0.4975039035
 C    3.1752335380    0.2871120437   -0.8322218030
 N    1.4726230497   -0.4408417403    0.8992828018
 C    2.0122165300   -1.1203469952    1.9521459562
 C    1.1916790739   -1.1284843771    3.2324636914
 O    3.1029872847   -1.6611869036    1.8637400389
 H    0.2677727233    2.0482054770    1.0461654796
 H   -1.3944001137    1.5007990807    0.7394700245
 H   -0.5993146222    1.0984041643    2.2672090300
 H   -0.6194056034   -0.8744779904    0.7234408110
 H   -0.0143727438   -0.5833315811   -1.6375833678
 H    0.5908975186    1.0570772327   -1.3095792215
 H    2.0882047371   -1.5694919300   -0.7925575870
 H    3.0478614967    1.3348275811   -0.5407497790
 H    4.0398652832   -0.1195614353   -0.3025789668
 H    3.3737627151    0.2490645770   -1.9089411449
 H    0.1604120404   -1.4506234348    3.0542889275
 H    1.6672568897   -1.8070192446    3.9403652984
 H    1.1533567895   -0.1258888742    3.6702816895