23

 C   -0.0955277215    1.5207604155   -0.1286310222
 C    0.0289223668    0.0089143825    0.0432209149
 C    0.7809769121   -0.4020288750    1.3043468578
 O    1.2262730475    0.4144171637    2.0781103704
 C    0.9394083985   -1.9019199969    1.5339118593
 C    1.7002239782   -2.2499068703    2.8118252338
 C    1.8395083995   -3.7528984875    3.0086881472
 O    2.5498738996   -3.9857481702    4.2040436691
 C    2.7318053815   -5.3527303728    4.4772539759
 H    0.8903479888    1.9898545929   -0.1774035801
 H   -0.6409095538    1.7624965180   -1.0451769468
 H   -0.6239296458    1.9669580380    0.7175855410
 H   -0.9597420007   -0.4700632701    0.0702597602
 H    0.5393441067   -0.4474392443   -0.8163254709
 H   -0.0648603812   -2.3499864112    1.5363064498
 H    1.4353705849   -2.3272397098    0.6493467854
 H    2.6953443118   -1.7955450310    2.7879137589
 H    1.1896358010   -1.8184816851    3.6781131054
 H    0.8442640710   -4.2315515181    3.0546751084
 H    2.3699299386   -4.2083187111    2.1525430741
 H    3.3052959135   -5.8576195622    3.6828942765
 H    3.2875566532   -5.4292575942    5.4150674990
 H    1.7708083501   -5.8804625204    4.5903587131