18

 N    0.1882031318    1.3129924986   -0.5836265509
 C    0.0710625636    0.1479925951   -0.1494527024
 O    1.0817422978   -0.7877899506    0.2295919959
 C    0.0208333589   -1.5173549944    0.9637857781
 C   -0.8578227262   -2.8131177327    1.0010179301
 C   -1.9974109630   -1.6694774147    1.1052176344
 C   -1.7253733067   -1.0758776902    2.4907385857
 C   -0.1774540750   -0.9464591133    2.3855308042
 C   -1.0294977070   -0.8956318252    0.1110041314
 H    1.1700780917    1.5845708320   -0.6635399062
 H   -0.9010321263   -3.3620421233    0.0612862986
 H   -0.7571881400   -3.4906365552    1.8538751762
 H   -3.0250863924   -1.8961877105    0.8233888324
 H   -2.2187492658   -0.1121728696    2.6362181761
 H   -2.0503112866   -1.7479244984    3.2899240270
 H    0.3626949416   -1.5278478341    3.1369774100
 H    0.1613917473    0.0898288610    2.4474605134
 H   -1.0759206934   -1.4380728545   -0.8393876839