17

 O    0.0892452259    0.5395041282    1.5155995487
 C    0.0507371295    1.3778387818    0.6449065732
 N    1.0857667577    1.7342048137   -0.1764492356
 C    2.3667096519    1.1234723004   -0.1869144189
 C    3.1369347297    0.9075280332    1.0775727017
 C    3.7565487670    1.7564149126    0.0012754715
 C    4.3244780541    0.8569108079   -1.1033374499
 C    2.9055649785    0.2284714127   -1.3125380001
 H   -0.8554475769    1.9786660976    0.4220809002
 H    0.8772118372    2.4071308452   -0.8995095480
 H    2.7513752940    1.4449714968    1.9356952023
 H    3.5355541574   -0.0774458045    1.3093211244
 H    4.0151904846    2.7942844692    0.1741086004
 H    4.6707938802    1.4062797555   -1.9813052786
 H    5.1153625195    0.1698573079   -0.7871965122
 H    2.8001201786   -0.8505552051   -1.1611360541
 H    2.4862226910    0.4868652870   -2.2886902550