16

 C   -0.0112567708    1.5265446272   -0.0029525953
 C   -0.0134603979    0.0254246424    0.0160506701
 C   -0.8974903055   -0.8354536389    0.8818983327
 O   -1.8041640570   -1.8115103202    0.5013965824
 C    0.5994337494   -0.9672639982    1.0570014047
 C    1.2943592152   -1.6994825051   -0.1182219367
 O    0.3045046783   -2.1804945583   -1.0595141593
 C    0.7104303046   -0.7944122053   -1.0976256006
 H    0.9913672639    1.9306890756   -0.1892280652
 H   -0.6754911766    1.9123430587   -0.7863199610
 H   -0.3580442008    1.9297244854    0.9535804125
 H   -1.3288528546   -0.2482976432    1.6917717100
 H   -1.3694005359   -2.3081812876   -0.2051042638
 H    1.1119009308   -0.7410516192    1.9846836760
 H    2.2416474994   -2.2234307860   -0.0959601333
 H    1.0761953977   -0.4133590673   -2.0439280429