18

 C   -0.5868277912    1.3765571299   -0.0054550613
 C    0.0438476582   -0.0076420504   -0.0323229300
 C    1.3409369129   -0.2428932315   -0.8783761698
 C    2.0392175758   -0.8550647780    0.3564211096
 O    2.7966431253    0.1270965573    1.0970191360
 C    1.6939009908    0.4106450321    1.9834344847
 C    0.7653932246   -0.5593812895    1.2247638617
 O   -0.0141647059   -1.4545869221    1.9507354283
 H    0.1498246718    2.1543573342    0.2223858844
 H   -1.0254081503    1.6193883837   -0.9792232860
 H   -1.3849400541    1.4345330339    0.7425850605
 H   -0.7133320404   -0.7503221724   -0.3024054207
 H    1.2082321181   -0.9260748851   -1.7206081097
 H    1.8408469773    0.6638214717   -1.2275410264
 H    2.5577318469   -1.8130908537    0.2678362608
 H    1.9076859197    0.0823389855    3.0128943969
 H    1.4277987127    1.4740519696    2.0060037593
 H    0.5001346679   -1.7799454453    2.6980030817