15

 O   -0.1062218272    1.4172379904   -0.0842901433
 C   -0.0384576551    0.0131558978    0.0141143095
 C    0.2388460139   -0.6280151612    1.4343683071
 C   -1.1382050844   -1.2938833455    1.3695045248
 C   -2.1980506668   -0.2462705434    1.2153597839
 C   -1.4131377548   -0.6609959943    0.0014238382
 C    0.8654705170   -0.5335143319   -1.0100142460
 N    1.6004708293   -0.9370536916   -1.8059442567
 H    0.7891270049    1.7742259124   -0.0569371809
 H    1.0781066053   -1.3244221610    1.4185953662
 H    0.3842070400    0.1073599824    2.2313755067
 H   -1.3544241707   -2.3037190183    1.6910143110
 H   -3.2212912890   -0.6065653646    1.2233392359
 H   -2.0639031378    0.7442548518    1.6389915057
 H   -1.8756975546   -1.0785220530   -0.8828566921