16

 C    0.7188263571    1.3694511371   -0.1645740523
 C    0.0259344880    0.0190093002   -0.0451957476
 C    0.3046565310   -0.9596246760   -1.2070635632
 C    1.4912216278   -1.7951524742   -0.6875321136
 C    2.7944719114   -1.3021180077   -1.1242826295
 N    3.8135471660   -0.8925092774   -1.4843226128
 C    1.3528364830   -1.6714102180    0.8558073182
 O    1.8858228874   -2.3482212450    1.6795431495
 O    0.4977271453   -0.6682612650    1.1403764295
 H    1.7921132744    1.2528622343   -0.3421681637
 H    0.2912104408    1.9344183424   -0.9986688540
 H    0.5798139191    1.9475756181    0.7523310371
 H   -1.0476557001    0.1586486202    0.1031593217
 H   -0.5527896067   -1.6181463757   -1.3636405432
 H    0.5173801393   -0.4426190491   -2.1431088393
 H    1.4182092862   -2.8533693143   -0.9488978770