21

 C   -0.2737980198    1.4184390170    0.1675301959
 C    0.0445812948   -0.0578962134   -0.0009173492
 O    0.6481011084   -0.5156888606    1.1952829367
 C    0.9198077450   -1.9135467598    1.2229454779
 C    2.2264660583   -2.2562175884    0.4872871047
 C    0.9717639084   -2.3438211767    2.6198716620
 C    1.0253822016   -2.7293695862    3.7583359631
 C    1.1104506822   -3.1738288127    5.1427392147
 O   -0.1070830992   -3.8045263327    5.5230457826
 H    0.6406078905    1.9886525746    0.3540103503
 H   -0.7502696046    1.8111015896   -0.7358524996
 H   -0.9495376268    1.5692289559    1.0138613706
 H   -0.8759696672   -0.6314572312   -0.2019770799
 H    0.7118832538   -0.2051702411   -0.8649547889
 H    0.0885477765   -2.4499027177    0.7339923693
 H    3.0629226952   -1.7297776602    0.9536102686
 H    2.4173889527   -3.3318343781    0.5339144593
 H    2.1670825990   -1.9633733128   -0.5646397263
 H    1.9648059885   -3.8626638017    5.2479531354
 H    1.3253844185   -2.3018579861    5.7819163255
 H   -0.0144575362   -4.0729248476    6.4429144172