21

 C    0.0207476617    1.5190227409   -0.1087605266
 C    0.0637020274    0.0140637571    0.1631302173
 O    0.6411893098   -0.2629423628    1.4418044282
 C   -1.3150664753   -0.6143342320    0.0468407229
 C   -1.8989389982   -1.2167022281   -1.2143761872
 C   -0.9528676779   -1.6340535028   -2.3259962595
 O    0.0935875245   -2.3773305664   -1.7074619967
 C   -0.3998374654   -2.9732751635   -0.5060539708
 C   -1.5517239205   -2.1023281111   -0.0381704430
 H    1.0171315257    1.9540202944    0.0064464075
 H   -0.3378701677    1.7265530879   -1.1223774647
 H   -0.6558906478    2.0237824569    0.5930606668
 H    0.7439386591   -0.4625466626   -0.5456609694
 H    0.0573131473    0.1083438792    2.1127663491
 H   -2.0594318212   -0.0925409934    0.6497021812
 H   -2.9259581651   -0.9936988746   -1.4803682094
 H   -1.4995365653   -2.2488467297   -3.0595253109
 H   -0.4830654851   -0.8037155968   -2.8653808811
 H   -0.7578898178   -3.9979553856   -0.6930746410
 H    0.4368745188   -3.0181890687    0.1979816574
 H   -2.3154559871   -2.5569760785    0.5821746701