22

 O    0.0646330110    1.2346050611    1.3458988886
 C    0.1409520281   -0.0540689901    0.7554385766
 C   -1.2557746069   -0.6594354828    0.7656401830
 C   -1.3057158474   -2.0519983651    0.1234125976
 C   -2.7150598940   -2.6200214408    0.1221588912
 C   -3.0545436373   -4.1264218593   -0.0295363304
 C   -2.5776557721   -4.2642914104    1.4313274604
 N   -3.3867582301   -2.9531585713    1.4845743534
 C   -4.3974033409   -3.7276195703    0.6178426461
 H    0.9477176214    1.6147612375    1.3539597587
 H    0.5144259210    0.0042650288   -0.2810423989
 H    0.8340623590   -0.7070117149    1.3118447732
 H   -1.6148572656   -0.7167811924    1.7985484108
 H   -1.9327681019    0.0236856860    0.2380446858
 H   -0.9728012710   -1.9913457307   -0.9222888670
 H   -0.5963204085   -2.7169217485    0.6275580173
 H   -3.3626737450   -1.9513933612   -0.4588759826
 H   -2.8709582750   -4.7908014916   -0.8823405872
 H   -3.0181195058   -5.0620990868    2.0358124921
 H   -1.5184883737   -4.1519883434    1.6636899655
 H   -5.0748320249   -3.0810970212    0.0526974238
 H   -4.9456499105   -4.4916720228    1.1752220218