19

 C   -0.1067838857    1.5038810120   -0.1356049795
 C    1.4438725246    1.4590746729   -0.0028654980
 C    1.2051375391    0.2599896092    0.9793348926
 C    0.0165562611   -0.0660531955    0.0156493026
 C    0.7147679704   -0.3103010623   -1.2891912566
 C    0.4708116552   -0.6124733088   -2.5579967902
 C    1.4630110187    0.1717801539   -3.4079424164
 O    1.9774352482    1.1891204058   -2.5294199101
 C    1.9016985104    0.6374071745   -1.2271014377
 H   -0.5846650861    1.9609154541    0.7344979076
 H   -0.5355297738    1.8875360620   -1.0632748719
 H    2.0301144475    2.3288109698    0.2895738946
 H    1.9984067686   -0.4854098859    1.0885134443
 H    0.8637734972    0.5920149356    1.9617917606
 H   -0.8306780401   -0.6833476508    0.3082492854
 H   -0.3487265724   -1.1833296573   -2.9748968050
 H    2.2887679528   -0.4475715878   -3.7986678257
 H    0.9838273509    0.6634716125   -4.2625560219
 H    2.8527943333    0.1289405860   -0.9902541747