11

 N    0.0720531629    1.3820777390    0.1426605332
 C   -0.0323346834    0.0251849330    0.0407715046
 C   -1.1098804030   -0.8313682940    0.0068621511
 O   -0.6028336261   -2.0905350023   -0.0376203189
 N    0.7695255044   -1.9842257551   -0.0281824469
 N    1.1004227919   -0.7595760650    0.0165546106
 C   -2.5434580854   -0.6045820734    0.0125929518
 O   -3.3920503151   -1.4651227700   -0.0237861741
 H    0.9795890022    1.7534749505   -0.0950152076
 H   -0.7029094103    1.9378937060   -0.1810130941
 H   -2.8084874681    0.4756721914    0.0568806704