21

 C   -0.0250836504    1.4244897284    0.0097323786
 C   -0.0001977820   -0.0304183653    0.0018706183
 C    0.0204116464   -1.2357574094   -0.0046448641
 C    0.0449199442   -2.6701073996   -0.0124950431
 C    0.7860118286   -3.6170743614    0.9882384716
 C    0.0773743030   -4.5703244481   -0.0229522181
 C    0.1030475125   -6.0741833791   -0.0312322353
 C   -1.1722388884   -3.6456716542    0.1069802765
 C    0.5698376360   -3.6090085454   -1.1484860208
 H    0.5459790036    1.8287448856    0.8532189623
 H    0.4075984967    1.8358861272   -0.9092594757
 H   -1.0493340102    1.8055414397    0.0916859943
 H    1.8791137041   -3.5892942549    0.9584761506
 H    0.4114877898   -3.6201763741    2.0159855854
 H   -0.3097122003   -6.4810955422    0.8985831014
 H   -0.4875351673   -6.4744210218   -0.8628108699
 H    1.1265863591   -6.4508717621   -0.1359961893
 H   -1.6930347170   -3.6509298786    1.0688948225
 H   -1.8752006576   -3.6441215100   -0.7310997304
 H   -0.0029218917   -3.6047151334   -2.0803955787
 H    1.6467804410   -3.5806317915   -1.3380106761