19

 C    0.1204429556    1.4585714613    0.3962919670
 C    1.4979509589    1.5433888707   -0.3707395321
 C    1.3198713707    0.0644686670   -0.7372801901
 O    1.4866829893   -0.5250901884   -2.0305822293
 C    2.1463550841   -1.1331912700   -0.9091252149
 C    1.5486992888   -2.4252989686   -0.3812666047
 C   -0.0057485948   -2.4200879534   -0.3235374389
 C   -0.5766642466   -1.1567409949    0.2948111693
 C    0.0505126027   -0.0175553767    0.0273056224
 H    0.1657573214    1.6759332192    1.4670704840
 H   -0.6640063120    2.0806660985   -0.0453140990
 H    1.4950296064    2.2113067735   -1.2347637972
 H    2.3631066887    1.7744199299    0.2551212343
 H    3.2335155807   -1.0570339732   -0.9261961241
 H    1.8832787541   -3.2744960235   -0.9878712648
 H    1.9541570378   -2.5797776725    0.6278323332
 H   -0.3909781808   -2.5382440629   -1.3433601085
 H   -0.3387817180   -3.3015303023    0.2337591701
 H   -1.4545921766   -1.2229294239    0.9313791731