21

 C   -0.0889423733    1.5060858013    0.0269767779
 C   -0.0241102589   -0.0095878019    0.0276051336
 C   -1.2465866152   -0.6899006087   -0.5588166537
 C    1.3301490771   -0.6596294414   -0.1923252187
 C    0.6872060663   -0.6844804405    1.1681137586
 C    1.2783766866   -0.0909981388    2.4765988729
 C    0.8290884041   -1.3852040343    3.1797983518
 O   -0.5860165108   -1.5053798034    3.0041849870
 C    0.2731887170   -1.9307767093    1.9314554123
 H    0.8125498127    1.9508953742    0.4587858751
 H   -0.1939866523    1.8915805052   -0.9941122054
 H   -0.9482904822    1.8633980863    0.6063867035
 H   -1.4055363579   -0.3802569960   -1.5985292431
 H   -1.1472206640   -1.7792983096   -0.5488227427
 H   -2.1479616062   -0.4335664143    0.0092315706
 H    1.3691304896   -1.5880534994   -0.7553923496
 H    2.1950586450   -0.0183838136   -0.3356369441
 H    2.3652820407    0.0230833773    2.4367946173
 H    0.8231987875    0.8237814130    2.8646817936
 H    1.2701521475   -1.8839374264    4.0346938805
 H    0.1685084366   -2.9530077597    1.5861564224