20

 C   -0.0479148666    1.4131755133   -0.2091326659
 C    1.4851492083    1.5127122171    0.0397097288
 C    2.0735725976    2.4090052949    1.1301278242
 C    1.3140180285    2.4169532429    2.4597707683
 O    1.1918080632    1.1418474872    3.0598448251
 C    0.1453466050    0.3320153370    2.5567413305
 C    0.4623953362   -0.4258293992    1.2687926655
 C    1.4438560210   -0.0037825855    0.2525962110
 N   -0.0386976886   -0.0863241103   -0.0902915783
 H   -0.7155954147    1.9174521081    0.4961133838
 H   -0.3466679703    1.6945576212   -1.2204426210
 H    1.9912305959    1.7309524155   -0.9048988729
 H    3.1080395396    2.0948317143    1.3181892021
 H    2.1217911055    3.4458384111    0.7694075101
 H    1.8569851242    3.0385508993    3.1800986227
 H    0.3173084379    2.8693766274    2.3311509222
 H   -0.0486680873   -0.4065010477    3.3403307149
 H   -0.7758614210    0.9246717433    2.4428796993
 H    0.4093470158   -1.5056283158    1.3904208672
 H    2.1647843397   -0.7004450041   -0.1657871575