15

 N   -0.1026256701    1.2992663950   -0.2141231334
 C   -0.0392340562    0.0398821456   -0.0163867432
 N   -1.1856779791   -0.7206201381    0.0682126557
 C   -1.1719909212   -1.9762026895    0.8034283479
 C   -0.0320713147   -2.8407176798    0.2672385076
 C    1.2815118424   -2.0795011321    0.2380609401
 O    2.3732860789   -2.5980693211    0.3064559663
 N    1.1447789874   -0.7063984352    0.1087755432
 H    0.8195860259    1.7109639794   -0.3360520168
 H   -2.0079721410   -0.1412783881    0.1499907270
 H   -1.0483316155   -1.8239888576    1.8877319865
 H   -2.1325356067   -2.4747354661    0.6510742933
 H    0.1165025006   -3.7420908613    0.8644296032
 H   -0.2537213332   -3.1515709507   -0.7606967119
 H    2.0158824023   -0.1968778403    0.0608667443