15

 N   -0.0232314985    0.8837437053   -1.1204669675
 C    0.1163729464    0.1017152125   -0.1334858177
 N   -1.0507741606   -0.4201055123    0.4417611432
 C   -1.4111005169   -1.4976685071    1.2344702506
 O   -2.5840792356   -1.7383256271    1.4217281841
 C   -0.3658590583   -2.3582271032    1.9334619808
 O    0.9849811502   -2.1942274301    1.5608616975
 C    1.4445029528   -0.8900198385    1.6287533965
 O    1.3248596721   -0.2188193401    0.3805060115
 H    0.8830504905    1.2446627847   -1.4112455403
 H   -1.8675072785    0.0162980247    0.0298471521
 H   -0.5006840570   -2.1869023163    3.0121099605
 H   -0.6272070688   -3.3990691390    1.7337065978
 H    0.9310491300   -0.3166750074    2.4147419847
 H    2.5190244322   -0.9145748061    1.8139718763