16

 C   -0.0022330803    1.4158632360    0.0126786146
 C    1.4414251282    1.9545389027    0.0034904623
 C    2.1774959386    1.2161705139   -1.0654780526
 C    1.6950604594    0.0518447588   -1.6080631191
 C    0.4082004638   -0.5932560590   -1.2006692200
 O   -0.0427886811   -0.0101358031    0.0087935593
 N    2.6212527074   -0.2844060414   -2.5334762761
 N    3.6313211459    0.6196564690   -2.5617076102
 N    3.3588826847    1.5278659614   -1.6699280086
 H   -0.5322769193    1.7211556842    0.9177364865
 H   -0.5517353695    1.8100485317   -0.8569586749
 H    1.4380350828    3.0337856527   -0.1827347808
 H    1.9081187480    1.7967766865    0.9831762800
 H   -0.3514949938   -0.4845988468   -1.9946994841
 H    0.5242781418   -1.6641622802   -1.0004922126
 H    2.6565707136   -1.0741194163   -3.1579545838