23

 C    0.1906530357    1.3320141594    0.2919159603
 O    0.3617485860   -0.0573085224    0.1308098185
 C    0.7286799423   -0.5366566731   -1.1681656407
 C   -0.2263151367   -0.0505315438   -2.2579370112
 C    2.2110226745   -0.2312207411   -1.4620355329
 O    2.9887985350   -1.2288509398   -0.8121047331
 C    2.1325292689   -2.2526623685   -0.3086512893
 C    0.7881827217   -2.0776994456   -1.0225178626
 C   -0.3991291293   -2.7322960658   -0.3228009228
 H    1.0681367879    1.9100562020   -0.0313478033
 H   -0.6895373311    1.7124329600   -0.2445337288
 H    0.0438579912    1.5044005908    1.3612976350
 H   -0.1346845133    1.0254295781   -2.4351166542
 H   -0.0136810627   -0.5587460564   -3.2026660424
 H   -1.2636836799   -0.2601587322   -1.9800934833
 H    2.4003544339   -0.2555075026   -2.5457849236
 H    2.5108156391    0.7571178829   -1.0952574412
 H    2.5970784628   -3.2250406674   -0.5062460629
 H    2.0086544244   -2.1410504676    0.7780318068
 H    0.8851348361   -2.4854881117   -2.0368002443
 H   -0.5439566036   -2.3058302866    0.6716491038
 H   -1.3243826267   -2.5914495165   -0.8907520249
 H   -0.2388806461   -3.8106832621   -0.2199635129