15

 O    0.3541268909    0.8231581694   -0.9412026283
 C   -0.0654006273    0.2855749191    0.2990153901
 C   -1.3641666619   -0.4778532415    0.2111339080
 C   -1.9385818907   -0.8110237522   -0.9553503682
 O   -3.1092947638   -1.4997958231   -1.0227648632
 C   -3.7407055287   -1.8850903116    0.1475363321
 N   -4.8356601986   -2.5243311938    0.1501804816
 C   -3.0498163241   -1.4975299254    1.3804452404
 N   -1.9462747554   -0.8416304156    1.4259316402
 H   -0.2328173727    1.5551283603   -1.1580215370
 H    0.7365004371   -0.3866248185    0.6269431494
 H   -0.1635088509    1.0549439302    1.0791781218
 H   -1.5348816064   -0.5805827747   -1.9311647156
 H   -5.1619270380   -2.7016280201   -0.8008188612
 H   -3.5342279695   -1.8021099825    2.3049208800