21

 C   -0.1834238840    1.5420095842    0.0037940877
 N    0.1014140450    0.1239075598    0.0163773704
 C    0.9766017760   -0.4963569407   -0.9926836101
 C    2.4240898264    0.0514865312   -1.0342022613
 N    2.8011979985   -0.6877238020    0.2201940715
 C    2.2345168352    0.0350016309    1.4112923435
 C    0.8113073728   -0.5107387849    1.1398588635
 C    1.4847441827   -1.4743741354    0.1128397062
 C    1.4872346857   -2.9699257100    0.1029408576
 H    0.7043175974    2.1936424863    0.0774848198
 H   -0.7081178726    1.7971990111   -0.9236100458
 H   -0.8459145562    1.7852500097    0.8419165071
 H    0.4809519970   -0.7621030824   -1.9320809739
 H    2.9944890809   -0.3468312738   -1.8806886762
 H    2.5721574524    1.1358980304   -0.9954852954
 H    2.6680866867   -0.3752037035    2.3301502347
 H    2.3856320969    1.1196823627    1.4103928363
 H    0.1770876431   -0.7885847667    1.9879873683
 H    0.4666230928   -3.3579138381    0.0172923400
 H    2.0728839192   -3.3528987105   -0.7396544819
 H    1.9293760940   -3.3650743083    1.0238146177