21

 C    0.1516718402    1.4742482077   -0.0486405109
 C    0.2552796164   -0.0487529884    0.0627011418
 C    0.2613058464   -0.5232872935    1.5210324732
 N    0.3456940608   -1.9688812827    1.6551033162
 C    1.4913357132   -2.6150785329    2.0010533641
 O    2.5319139327   -2.0400725764    2.2906457583
 C    1.4008781284   -4.1150016877    2.0233697229
 C    2.5590072585   -4.8567671534    1.4420867584
 N    2.3626902496   -4.8114474688    2.8881327724
 H    0.9954074011    1.9647246760    0.4484694179
 H    0.1486410105    1.7951824800   -1.0942575222
 H   -0.7683757150    1.8460254911    0.4161791834
 H   -0.5824925751   -0.5188580953   -0.4692377503
 H    1.1715444192   -0.4029053849   -0.4233218670
 H    1.1272787048   -0.1161755378    2.0483476421
 H   -0.6412014001   -0.1698750287    2.0355715684
 H   -0.4538024103   -2.5228001516    1.3926744023
 H    0.4087045881   -4.5584040232    1.9840091750
 H    2.3870261953   -5.8234120624    0.9773700759
 H    3.3535548119   -4.2557352989    1.0098308634
 H    2.9768284934   -4.0886895081    3.2668072651