20

 C   -0.1820161417    1.5501411325    0.8111717305
 C   -0.1382683356    0.0669056177    0.4925692420
 C    1.0478682030   -0.4922924150   -0.3361889130
 O    1.9458845702   -0.2354522388    0.8122144213
 C    0.7289883907   -0.8742944310    1.3920771732
 C    0.6853074395   -1.0891601533    2.8732130204
 C    0.8091221155   -1.9178014307    0.2317442793
 C   -0.3432914133   -2.8203305824   -0.1793304060
 H    0.8139000880    1.9164294672    1.0678106696
 H   -0.5540774238    2.1218962277   -0.0461119519
 H   -0.8561480779    1.7504588655    1.6516576454
 H   -1.1259589134   -0.3189684171    0.2262859253
 H    1.4059566720   -0.1911105100   -1.3221532102
 H    0.7226395501   -0.1337893830    3.4058352822
 H   -0.2390642357   -1.6042383394    3.1545405307
 H    1.5339061546   -1.6993186869    3.1975763000
 H    1.7515145073   -2.4707693059    0.2831359448
 H   -1.3023638652   -2.3014081794   -0.2492567238
 H   -0.1411630855   -3.2742831657   -1.1556626526
 H   -0.4609310587   -3.6388653521    0.5395175329