16

 O   -0.0181355623    1.3303009460    0.0404011225
 N    0.0310866211   -0.0560368391    0.0366628533
 C   -1.1177772298   -0.6183327321    0.0376295595
 C   -1.1450039019   -2.1290495406    0.0123929960
 C   -2.2413471758   -2.6624983108   -0.8729037134
 C   -3.2503244900   -1.9243916911   -1.3298743516
 C   -3.4400151319   -0.4655874588   -1.0102478937
 C   -2.4532822050    0.0889139684    0.0127039836
 O   -2.7269022885    1.0136000662    0.7381473443
 H    0.9150082636    1.5664518114   -0.0069146478
 H   -0.1621599945   -2.4930218393   -0.3047014491
 H   -1.2891036204   -2.5110860593    1.0357205355
 H   -2.1834581777   -3.7170781690   -1.1282242149
 H   -4.0065159643   -2.3782098139   -1.9651745598
 H   -3.3260879928    0.1408179835   -1.9232266431
 H   -4.4522692397   -0.2558092817   -0.6459375113