18

 C    0.1766269450    1.4260168952    0.0045935995
 C   -0.0804648003   -0.0789606052    0.0027602602
 C   -1.5547955046   -0.4200866802    0.0156800432
 O   -2.4664662856    0.3652006090    0.0298411729
 O   -1.7372276820   -1.7652427567    0.0093848047
 C   -3.1008234802   -2.2005484299    0.0211529898
 C   -3.0521273428   -3.7309390055    0.0106237967
 C   -4.3905662279   -4.3146433379    0.0211674531
 N   -5.4547685244   -4.7636874176    0.0296879820
 H    1.2508494168    1.6288089702   -0.0040914596
 H   -0.2725485308    1.9009925663   -0.8710663100
 H   -0.2575100103    1.8961737347    0.8903563614
 H    0.3650488434   -0.5633461021   -0.8743526281
 H    0.3809214477   -0.5678399177    0.8691718692
 H   -3.6089662440   -1.8226808577    0.9126672946
 H   -3.6279160984   -1.8110996846   -0.8542217693
 H   -2.5150877020   -4.0778670058   -0.8784826812
 H   -2.4961181896   -4.0893803644    0.8833572609