17

 O   -0.4470590577   -0.3205983000   -1.5603437259
 C   -0.0726377594    0.5574387512   -0.8241450048
 C    1.3374489222    1.1578502221   -0.9873717754
 C    2.0201951598    1.4747744682    0.2580173595
 C    2.5744838953    1.7230188038    1.2951070274
 C   -0.9491726378    1.1367232593    0.2791978582
 C   -2.4165398709    0.8641274837    0.0636181960
 C   -3.4485707686    1.7031634194    0.6816691891
 O   -3.1284162194    1.8384666449   -0.7038424739
 H    1.9177436331    0.4599626495   -1.5982831666
 H    1.2124410790    2.0735507548   -1.5845779995
 H    3.0728828558    1.9446076930    2.2063538186
 H   -0.6060276464    0.6866607141    1.2214956814
 H   -0.7693984982    2.2123971140    0.3786064044
 H   -2.6616260991   -0.1656232291   -0.1891321577
 H   -4.4293814591    1.2826652871    0.8989638407
 H   -3.1550845185    2.5412198241    1.3134101782