10

 O    0.0665052194    0.0462441765    0.0025212088
 C    0.0245408783    1.2251920020    0.0093846044
 O   -1.1281202333    1.9964033263    0.0303297375
 C   -0.7513923916    3.3062254133    0.0316756078
 C    0.5815299339    3.3501331600    0.0125570173
 O    1.0976445179    2.0854850597   -0.0017413966
 N    1.4625755412    4.4774973862    0.0057734738
 O    0.9109150401    5.5733006718    0.0198121838
 O    2.6614840930    4.2552894447   -0.0127045403
 H   -1.5083679989    4.0694533796    0.0467397335