18

 C    0.4447268287   -0.7240806867    1.5494922897
 O   -0.0018590533   -0.3978377587    0.2327681833
 C   -1.3338241725   -0.7811338666   -0.0398473168
 C   -2.3742936072   -0.0187256544    0.7429578825
 O   -2.3004442591    1.3741986418    0.4901285405
 C   -1.5666838919   -1.1016163906   -1.4973745694
 C   -1.5090942149   -2.2162320685   -0.4769419854
 O   -0.4169282176   -3.0841969670   -0.4313765179
 H    1.5174951111   -0.5183427504    1.5707192646
 H   -0.0439954802   -0.1061487499    2.3130609762
 H    0.2703639035   -1.7814192555    1.7784802242
 H   -3.3736133210   -0.3510690621    0.4434138712
 H   -2.2761498378   -0.2300916952    1.8202479948
 H   -1.3625036224    1.5950430782    0.4556548359
 H   -2.5185859526   -0.8241058883   -1.9366251392
 H   -0.7105548853   -0.9992510033   -2.1563929915
 H   -2.4221576080   -2.7429793580   -0.2192936846
 H    0.3741366004   -2.5410707248   -0.5342256982