19

 C   -0.1658083487    1.5014544595   -0.0279850175
 C    0.0795363771   -0.0127583889    0.0341282480
 C    0.7507169061   -0.5253466411   -1.2069174127
 C    0.0303130932   -0.9708127630   -2.4444457181
 C    0.9423315620   -1.9636573975   -1.7389380639
 C    2.4029470793   -1.5890685668   -2.0173274959
 N    2.1661457807   -0.2237593689   -1.4648132987
 C    0.4791229625   -3.1989437252   -1.2067158030
 N    0.1103975836   -4.2067627360   -0.7709811877
 H    0.7774871565    2.0437981907   -0.1489247746
 H   -0.8188115650    1.7637860367   -0.8669006945
 H   -0.6383913091    1.8563225483    0.8920860951
 H    0.7112855065   -0.2496795261    0.8970794593
 H   -0.8690605782   -0.5440559556    0.1718757323
 H   -1.0292895027   -1.1741854216   -2.3282684918
 H    0.3210932266   -0.6048104744   -3.4269267200
 H    3.1187596422   -2.1472098024   -1.4083372105
 H    2.7067603354   -1.6375564324   -3.0693420985
 H    2.3046908821    0.5246529045   -2.1391189374