18

 O    0.0076167790    1.4544609275   -0.0062658207
 C    0.0577696328    0.0463873001   -0.0037246114
 C    0.4765515895   -0.5970966726    1.3508543971
 C   -0.8296555754   -1.3332660062    1.7132065391
 C   -0.5562840990   -2.7647537941    2.2621113339
 O   -0.3392239615   -3.1764820644    0.8486888010
 C   -1.2418309667   -2.0444356518    0.4991300125
 C   -1.3354360586   -0.5799787837   -0.0900904100
 N   -1.8444995882   -0.2047988673    1.3402847907
 H   -0.6445429327    1.6875236660    0.6691901796
 H    0.7039189669   -0.2438307303   -0.8346224957
 H    1.3145400855   -1.2875905454    1.2482231777
 H    0.7241318596    0.1691983546    2.0895310893
 H    0.3391747518   -2.9224358110    2.8679188217
 H   -1.4218887896   -3.2850622541    2.6865191201
 H   -2.2624279010   -2.4472516033    0.5362220937
 H   -1.9820862879   -0.3076182334   -0.9250141833
 H   -2.7942477344   -0.5687128106    1.4330416148