17

 N    0.4525155804    1.0107799475   -0.2035028875
 C    0.1729541354   -0.2334346620    0.2306425343
 O    0.8732555243   -0.8810763037    0.9815336495
 N   -1.0653229297   -0.7890474108   -0.2699605439
 C   -1.9256497687   -0.1375220948   -1.1133589538
 O   -1.8002716659    0.9846462555   -1.5733331909
 C   -1.3619975101   -2.1385143898    0.1950179741
 C   -2.7519844675   -2.6044086191    0.5217649394
 C   -2.0129124410   -3.1777757441   -0.6722481857
 H    1.3034755801    1.4227815054    0.1370276920
 H   -0.1872729998    1.4925863754   -0.8230793098
 H   -2.8063561103   -0.7481669787   -1.3637201697
 H   -0.5620281729   -2.4591253789    0.8446444104
 H   -2.8828891484   -3.2192700501    1.4053087989
 H   -3.5843449537   -1.9376128358    0.3236626927
 H   -2.3562974606   -2.8899311571   -1.6601455274
 H   -1.6305384018   -4.1910531788   -0.6184555625