19

 C   -0.0541302003    1.3604445768    0.2644680358
 O   -0.0402952410    0.0180659330   -0.1989339544
 C   -1.2556019735   -0.6461020895   -0.0445549349
 C   -1.3503275161   -1.9788120327   -0.7694770071
 C   -0.4031011344   -2.9789846946   -0.1744938259
 C   -1.6984137851   -2.6979817197    0.5384102337
 C   -1.5787111940   -1.3971305624    1.3335670687
 C   -0.5527486526   -1.3474604163    2.4408185785
 O   -0.2521678596   -0.3467955652    3.0438240642
 H    0.9381240978    1.7730241060    0.0692185726
 H   -0.8005372371    1.9570778308   -0.2819678981
 H   -0.2638281009    1.4127326183    1.3383875898
 H   -2.0949620134    0.0164548814   -0.2959290427
 H   -1.7786342440   -2.1104270928   -1.7549028927
 H   -0.3568360577   -3.9304888606   -0.6932950870
 H    0.5471041219   -2.6507574661    0.2365729368
 H   -2.4473271727   -3.4630787934    0.6971573697
 H   -2.5269889718   -1.0317217198    1.7386034783
 H   -0.0762639355   -2.3241834433    2.6856960045