24

 C   -0.1067033060    1.4874714091   -0.1428823375
 C    0.0086826480   -0.0310867491    0.0078530984
 C    0.7586799788   -0.4375147781    1.2719341746
 O    0.8056643281   -1.8491832419    1.3095928324
 C    1.4654139669   -2.4882541697    2.4126044330
 C    0.7730315560   -2.1530009158    3.7440819334
 C    1.3104399369   -3.9807759770    2.1021260504
 C    2.9558313305   -2.1129739944    2.4619949202
 H    0.8804083639    1.9605513081   -0.1936307775
 H   -0.6478131259    1.7527963293   -1.0558035999
 H   -0.6435247292    1.9336420111    0.7018205057
 H   -0.9869703342   -0.4886394149    0.0329369243
 H    0.5267809004   -0.4619177710   -0.8565931915
 H    1.7700951149   -0.0016454383    1.2577207959
 H    0.2430177776   -0.0285263756    2.1551076063
 H   -0.2991524189   -2.3607141378    3.6762589394
 H    1.1901183482   -2.7615211348    4.5525724940
 H    0.9043823518   -1.1037942338    4.0244751940
 H    1.7779178401   -4.2162772690    1.1420019137
 H    1.7775424267   -4.5929868754    2.8790293406
 H    0.2510021040   -4.2440749239    2.0381324909
 H    3.1083004797   -1.0637217603    2.7313115041
 H    3.4755866281   -2.7205512356    3.2093994188
 H    3.4237680937   -2.2913150113    1.4890820366