15

 N    0.6041813908    0.3237880933   -0.8020129796
 C   -0.0392540764    0.0323299053    0.3580859148
 O    0.2506200904    0.5278175642    1.4296871775
 C   -1.1926071097   -0.9506953214    0.2768257627
 C   -1.8375982269   -1.5538860853   -0.9207877799
 O   -0.8667632422   -1.7803539083   -1.9828243641
 C   -0.2029042726   -2.7178812431   -1.1634365987
 N    0.7303687739   -3.5017759479   -1.4346569594
 C   -1.0818285668   -2.4693004036    0.0144389949
 H    1.3929639364    0.9473150914   -0.7534867806
 H    0.3497607442   -0.1139482594   -1.6723235798
 H   -1.8875781829   -0.7670444237    1.0915617340
 H   -2.8773861779   -1.5044188610   -1.2132618618
 H    1.0442262189   -3.4015940172   -2.4009308851
 H   -1.4089762090   -3.2013875533    0.7369941750