17

 C    0.1016413362    1.4413743155   -0.2537831774
 C    0.0231317864   -0.0391932828    0.1354112791
 O    0.5785664951   -0.2653048000    1.4265519950
 C   -1.3790314032   -0.5832671794    0.0534217041
 C   -2.1060496363   -1.1659424566    1.0396830336
 O   -3.3293393898   -1.5047212488    0.6121569727
 N   -3.4412082077   -1.1631000840   -0.7385923347
 C   -2.2890080920   -0.6148964174   -1.0562212043
 N   -2.0766167673   -0.0913552927   -2.3267723318
 H    1.1394914905    1.7831119101   -0.2171423910
 H   -0.2994368073    1.6124291988   -1.2564355679
 H   -0.4942502171    2.0452204211    0.4410707142
 H    0.6717326898   -0.6129486045   -0.5414133537
 H    0.1856505258    0.3799141680    2.0253737323
 H   -1.8765616221   -1.4023688297    2.0664696689
 H   -2.8138497412   -0.3558618274   -2.9688313028
 H   -1.1691143797   -0.3158998701   -2.7128396162