19

 C   -0.2037083254    1.4761338796    0.0332209233
 C    0.0369381131   -0.0436608171    0.0135718549
 C    0.7775989046   -0.5163785871   -1.2128015012
 C    2.0850801363   -0.8052520670   -1.2298065868
 C    2.7763157764   -1.2561221762   -2.4836909607
 C    1.7555869732   -1.9164547922   -3.3980958677
 O    0.5891843216   -1.1024262093   -3.5797565055
 C   -0.0035417048   -0.5574711533   -2.4855205764
 O   -1.1094919642   -0.0893490206   -2.5944675714
 H    0.7448302525    2.0228238540    0.0134051570
 H   -0.7974189640    1.7790921204   -0.8312775731
 H   -0.7421847837    1.7654167008    0.9409653100
 H    0.6066660717   -0.3394018652    0.9015411657
 H   -0.9301568963   -0.5551476727    0.0622116573
 H    2.6757774421   -0.6973955505   -0.3226417822
 H    3.2544420466   -0.4025473600   -2.9850409148
 H    3.5760598314   -1.9701043977   -2.2569258739
 H    2.1486074527   -2.0874690966   -4.4025016928
 H    1.4480481664   -2.8829390496   -2.9774010315