17

 C   -0.0029803822    1.5218762995   -0.0209478713
 C    1.3003898992    0.7737414983   -0.0031452664
 C   -0.0094551191    0.0093082397   -0.0009646839
 C   -0.4653904197   -0.7737009157    1.1833224759
 C   -1.0283003341   -1.9334830479    0.8269426105
 C   -1.0729930893   -2.0520652090   -0.6611171692
 N   -1.9102409135   -0.9886329515   -1.2976334162
 C   -0.4432017034   -0.8109455829   -1.1917221360
 H   -0.3122942941    2.0383587165    0.8814606374
 H   -0.3111585543    2.0084808036   -0.9398120637
 H    1.8900576887    0.7463520112   -0.9143712841
 H    1.8887282308    0.7761683019    0.9083094087
 H   -0.3621003127   -0.4019850222    2.1970324950
 H   -1.4382255978   -2.6751385368    1.5009028774
 H   -0.9936548784   -3.0139598889   -1.1564235252
 H   -2.1192534205   -1.2800435300   -2.2520507351
 H    0.1519159805   -0.8003185957   -2.0994504539