19

 C   -0.0778833283    1.5463898273    0.0227444301
 C    0.0733000981    0.0271906649    0.0342652427
 C    1.0221849490   -0.5570609877   -1.0783721285
 C    2.0236923763   -1.3143006280   -0.1663903792
 N    1.1509476300   -1.9692781105    0.8772472823
 C    0.8189011654   -0.5530011715    1.2749053399
 C    2.2622745342   -0.2707386151    0.9147521088
 N    3.1693537589    0.4508193150    1.4058574936
 O    4.3809496152    0.3026848198    0.6936360601
 H    0.8963422777    2.0384521976    0.1095696979
 H   -0.5476710039    1.8882393542   -0.9052351618
 H   -0.7011372496    1.8880478912    0.8563590347
 H   -0.9189908500   -0.4350815127   -0.0236794658
 H    0.5103030087   -1.2368703080   -1.7659919293
 H    1.5022719654    0.2274588617   -1.6709563163
 H    2.8215373741   -1.9014302657   -0.6155330825
 H    0.3477985231   -2.4428216099    0.4574665484
 H    0.4030876498   -0.3783055450    2.2662696643
 H    4.9757130760    0.8714553725    1.1940670506