19

 C   -0.3743236835    1.5028175861    0.0745283729
 C   -0.0757648408    0.0412540681   -0.0219054147
 C   -0.0277145022   -0.7258449951   -1.1162243322
 C    0.3181634928   -2.1635937345   -0.8194330244
 C    0.2062836308   -2.2561489867    0.7254970593
 O    1.1606657769   -3.0912568641    1.3508640805
 C    0.2053566631   -0.7882926156    1.1862402218
 C    0.9465085612   -0.3265997227    2.3731680248
 O   -0.4735798243   -0.4737983605    2.4118272038
 H    0.5060181590    2.0706986755    0.4014463367
 H   -0.6956542250    1.9083627317   -0.8880231175
 H   -1.1595342222    1.6839834732    0.8160034541
 H   -0.1946660071   -0.3637363660   -2.1255023042
 H   -0.3324684229   -2.8812997997   -1.3304842840
 H    1.3442559476   -2.4049302480   -1.1348296956
 H   -0.7627128022   -2.6818898793    1.0045265601
 H    2.0363765402   -2.7852442358    1.0898189391
 H    1.5030914254   -1.0596811608    2.9544368607
 H    1.3151167833    0.6973318641    2.4257011486