14

 N    0.1485121376    1.3921388962    0.0092845843
 C    0.0026532722   -0.0168923721    0.0550678596
 C   -0.4856400603   -0.7092331475    1.2815153721
 O   -1.2422574439    0.0820528260    2.1788775436
 C   -2.3640553733    0.4512435100    1.4943157942
 N   -2.5404143583    0.0025403490    0.3186985160
 C   -1.3689785112   -0.7765929036    0.0146769993
 C   -1.5052525328   -1.9279949777   -0.8247939852
 N   -1.5637975326   -2.8607906447   -1.5066620005
 H   -0.2409207616    1.8002508249   -0.8324209505
 H   -0.2566801604    1.8494454598    0.8161007379
 H    0.7668080504   -0.5781694861   -0.4768524938
 H    0.0297715364   -1.5307826140    1.7614663617
 H   -3.0326541621    1.1070757198    2.0369662113