19

 C   -0.2082994922    1.4040992349    0.0415303887
 N    0.0016870397   -0.0314007539   -0.0363264241
 C   -0.0180878660   -0.8147570517    1.1862597799
 C   -1.4114421253   -0.9562165303    1.8131098301
 C   -1.3912788915   -1.8082804722    3.0760871586
 O   -2.7106606579   -1.8419979921    3.5935930681
 C    0.2370988156   -0.6135031408   -1.2474093686
 O    0.2704051941   -0.0396871189   -2.3157494345
 H    0.4969451694    1.8557492824    0.7496354390
 H   -0.0428809667    1.8161563668   -0.9539940443
 H   -1.2267333120    1.6481622272    0.3636508606
 H    0.3819386195   -1.8075446296    0.9500412745
 H    0.6719403618   -0.3600376127    1.9115852246
 H   -1.8186551943    0.0275345084    2.0700144169
 H   -2.0969155864   -1.4061009108    1.0864843394
 H   -1.0284730611   -2.8219220054    2.8372480294
 H   -0.6861673771   -1.3766505759    3.8062579328
 H   -2.7106434401   -2.3851950620    4.3871002063
 H    0.4038954605   -1.7046283434   -1.1478400674