9

 O   -0.0896829191    0.0048710663    0.0038339813
 N   -0.0376224686    1.2212293470    0.0070830070
 O    0.9753386696    1.9138953896    0.0028117822
 C   -1.2795269483    1.9494711718    0.0169558763
 C   -1.4635758311    3.3004109736    0.0220338481
 O   -2.7508062945    3.5457490173    0.0309696608
 N   -3.4120924885    2.2154947899    0.0308247377
 N   -2.5111158652    1.3581411037    0.0229881363
 H   -0.7660089342    4.1219379307    0.0201112702