15

 C   -0.0141857084    1.5635240706    0.0526777918
 C   -0.0248568974    0.0357359867   -0.0157220089
 C    0.7390120576   -0.4965074816   -1.2457138640
 O    2.0948646313   -0.0717688892   -1.2784745219
 C    0.6390181918   -1.9572900906   -1.3360074754
 C    0.5791547144   -3.1640053920   -1.3719527925
 C    0.5090731020   -4.5268042854   -1.4177079303
 N    0.4489868007   -5.6863772545   -1.4535102688
 H    1.0097244288    1.9449161161    0.0578647913
 H   -0.5298948363    2.0002915743   -0.8093477305
 H   -0.5188019399    1.9131673118    0.9574146536
 H    0.4305386457   -0.3951343678    0.8852555695
 H   -1.0517607190   -0.3447511249   -0.0555100849
 H    0.2915288589   -0.0654156455   -2.1505957578
 H    2.5532237797   -0.4823668780   -0.5357600413