17

 C    0.0080594801    1.5645292815    0.0097810482
 C   -0.0194371206    0.0250038914    0.0031239089
 C   -1.3728006173   -0.5216067726    0.0130929540
 C   -2.5026987418   -0.9394703920    0.0216966916
 C   -3.8549464265   -1.4830031067    0.0316366798
 C   -3.8723084233   -3.0154691347    0.0223352982
 O   -5.2326074241   -3.4149534949    0.0333037029
 H    1.0398528996    1.9287042939    0.0019877916
 H   -0.5062245296    1.9655580541   -0.8678011373
 H   -0.4900720653    1.9576215275    0.9001776450
 H    0.5185676569   -0.3453279314   -0.8792907575
 H    0.5346081630   -0.3531558641    0.8721933976
 H   -4.4033488921   -1.1383771213    0.9171495370
 H   -4.4206509378   -1.1274847740   -0.8385511112
 H   -3.3469588468   -3.3807171612   -0.8727207556
 H   -3.3294210470   -3.3916950996    0.9022514282
 H   -5.2649418671   -4.3757670056    0.0275777784