15

 C    0.2562222964    0.9582276256    0.5914154223
 N   -0.3817896719    0.4559117663   -0.6333414788
 C    0.3566982186   -0.4998138661   -1.3474996599
 C    0.7675467509   -1.7920134371   -1.1116524304
 O    0.5063371594   -2.5225071349   -0.0006137403
 N    1.4892831757   -2.2953903999   -2.1509960154
 C    1.5370705882   -1.3188221517   -3.0421111391
 N    0.8761208961   -0.2219768762   -2.6108539795
 H    0.4922190933    0.1696354079    1.3197499125
 H    1.1869441423    1.4695195115    0.3286255262
 H   -0.4088217897    1.6871104973    1.0648100264
 H   -1.3112269729    0.1113194192   -0.4208689581
 H    0.9281655368   -3.3792011221   -0.1383922865
 H    2.0344096908   -1.3670979935   -3.9986083520
 H    0.7441714261    0.6510786137   -3.0939131474