19

 C    0.0170143045    1.6180784395    0.1274673513
 C    0.1750464635    0.1292629962    0.0527815754
 O    0.6028859926   -0.3356565888   -1.2058036057
 C    1.2729164715   -1.5952944486   -1.0449825333
 C    1.7001692429   -1.7104890893    0.4312556248
 C    0.7652853331   -0.7474192185    1.1322759259
 O    1.1612047660   -0.2798152227    2.3783571190
 C   -0.7204955461   -0.8367967996    0.8338895142
 O   -1.5030395981   -0.3381137486    1.8884768048
 H    0.9514685886    2.1077790822   -0.1617281446
 H   -0.7718930983    1.9715737940   -0.5457935461
 H   -0.2256273903    1.9258871648    1.1471291950
 H    0.5910854925   -2.4108520518   -1.3209456204
 H    2.1167951358   -1.6166047482   -1.7403512495
 H    1.6338668842   -2.7380238349    0.8002966554
 H    2.7247589938   -1.3577821076    0.5881581392
 H    0.3474288556   -0.1265046819    2.8780070162
 H   -1.1358139402   -1.7096048291    0.3294430214
 H   -2.1609442214    0.2668268829    1.5304232069