16

 C    0.0339513363    1.3600340320    0.0100087463
 O   -0.0322821324   -0.0722760589    0.0036934643
 C   -1.2766634809   -0.5750802603    0.0103614355
 O   -2.2912590385    0.0730716567    0.0208159480
 N   -1.2424906158   -1.9697292927    0.0035467932
 C   -0.1243093420   -2.7982007727   -0.0085050202
 C   -0.5647337809   -4.0889573332   -0.0115844331
 C   -1.9994667107   -4.0617819700   -0.0009708780
 C   -2.3887216420   -2.7552687312    0.0082027134
 H    1.0961479664    1.6029315921    0.0023259501
 H   -0.4605407671    1.7709351379   -0.8732260570
 H   -0.4456507151    1.7623810051    0.9053258420
 H    0.8634051141   -2.3731405476   -0.0136220394
 H    0.0629616802   -4.9669263320   -0.0204143868
 H   -2.6597887798   -4.9152506712   -0.0002772478
 H   -3.3540614118   -2.2797305038    0.0175522396