20

 C   -0.0543045466    1.5055115803   -0.0766302876
 C    0.0376395255   -0.0056438932   -0.0110531956
 C    1.3663094793   -0.6893568289   -0.2243409049
 C    0.7035415410   -0.7305346266    1.1462999243
 C    1.3292129770    0.0029519046    2.3120865286
 N    0.1587494422   -2.0031563132    1.5490974882
 C   -0.7053622404   -2.5590490460    0.8139764449
 O   -1.2572861134   -2.0991835777   -0.3364599718
 C   -1.2125691898   -0.6807360717   -0.5421142579
 H    0.8686377630    1.9832946420    0.2579509852
 H   -0.2369586063    1.8361130835   -1.1067902028
 H   -0.8741943658    1.8862068524    0.5435199790
 H    1.3982601040   -1.6158087803   -0.7884326757
 H    2.2417935450   -0.0585029526   -0.3432274588
 H    1.8371627887    0.9184737215    2.0004066371
 H    0.5730944005    0.2659167063    3.0594951908
 H    2.0620870960   -0.6479516755    2.7984197472
 H   -1.0898630251   -3.5492542042    1.0498376796
 H   -2.0946148874   -0.2392891414   -0.0562707571
 H   -1.3175778073   -0.5382366593   -1.6230088128