19

 C   -0.3858239788    1.5460642787   -0.0883474299
 C   -0.0589915983    0.0678441914    0.0017076510
 O   -1.3028593172   -0.6543187107   -0.0223761019
 C   -1.1795477696   -2.0076058666    0.0583391772
 O   -0.1396921569   -2.5985925681    0.1442242459
 N   -2.4610481350   -2.5359589438    0.0216338616
 C   -2.8585776217   -3.8761897150    0.0745419267
 C   -4.3678210968   -4.0074943875    0.0036807430
 N   -2.0145980682   -4.8199791611    0.1700450571
 H    0.5385332348    2.1309467958   -0.0733005162
 H   -0.9215476218    1.7732013542   -1.0145378244
 H   -1.0066174888    1.8620660973    0.7549579353
 H    0.5627762842   -0.2649924030   -0.8354623772
 H    0.4776209635   -0.1769179755    0.9237770217
 H   -3.1888807518   -1.8441603779   -0.0541034207
 H   -4.8461597954   -3.4792088991    0.8363631958
 H   -4.7549567357   -3.5765975359   -0.9267680401
 H   -4.6606507537   -5.0572492745    0.0464454818
 H   -2.5023843427   -5.7141513188    0.1938830334