19

 C    0.1370973450    1.4996242355    0.1711727808
 C    0.0114555387   -0.0154246060   -0.0189445303
 C    0.6833263502   -0.4732141574   -1.3145989656
 O    0.0080313311    0.1379031402   -2.4033940547
 C    0.5904167398   -0.8068413125    1.1660612651
 N   -0.0860772036   -0.5345902465    2.4237282760
 C    0.5344949590    0.0017620213    3.5089911017
 O    1.7061267206    0.3085442721    3.5704835038
 H    1.1867604185    1.7885139311    0.2993758193
 H   -0.2586728040    2.0229068145   -0.7015816537
 H   -0.4087952634    1.8350254633    1.0570125322
 H   -1.0543437511   -0.2707315570   -0.1159091566
 H    1.7486541589   -0.1892624261   -1.2948674764
 H    0.6378575607   -1.5722044511   -1.3901936719
 H    0.4841553315   -0.0735436323   -3.2113059757
 H    0.5429693264   -1.8831726780    0.9528151895
 H    1.6399405431   -0.5468462938    1.3296562518
 H   -1.0687794498   -0.7455187308    2.4996411781
 H   -0.1679904616    0.1295088735    4.3570001264