16

 C   -0.0149844429   -1.2107379799   -0.1533235623
 C   -0.0384799172   -0.0093260289   -0.1298534161
 C   -0.0263620527    1.4466300401   -0.0930385991
 C    1.3937616968    2.0188396113    0.1579732913
 C    1.4196809067    3.5035908831    0.1923218163
 C    1.6966469859    4.4422291977    1.1310440817
 N    1.5457303587    5.7131610139    0.5858015933
 C    1.1880383882    5.4866637523   -0.6335083144
 O    1.0860573300    4.1764612329   -0.9599133546
 H   -0.0108565055   -2.2722335046   -0.1782682481
 H   -0.4098064709    1.8475540408   -1.0383523037
 H   -0.7021545127    1.8069301059    0.6919439173
 H    1.7746385298    1.6442154803    1.1119371099
 H    2.0657930543    1.6451089092   -0.6229726095
 H    1.9973400673    4.2972376361    2.1566450914
 H    0.9649866243    6.1986866499   -1.4125268634