18

 C   -0.0278899175    1.5194717416    0.0457956473
 C   -0.0056120169    0.0128063899   -0.0080942384
 C    0.3626731982   -0.8170229423   -1.2839533474
 C   -0.3084339308   -1.9438397523   -0.4668979345
 O    0.5579158649   -2.1203275615    0.6499422866
 C    0.8274547466   -0.7513294438    1.0342948441
 C   -1.3271381049   -0.8597301602    0.0167799034
 C   -2.0441368535   -1.0475002820    1.2630543640
 N   -2.6092212717   -1.1772108886    2.2637039042
 H    0.9826640819    1.9272697806   -0.0668724504
 H   -0.6483963853    1.9366568753   -0.7531216880
 H   -0.4266233261    1.8722854395    1.0030416229
 H   -0.2017034369   -0.5116819108   -2.1669906841
 H    1.4207952798   -0.9482665653   -1.5180407170
 H   -0.6148876450   -2.9076435623   -0.8670651673
 H    1.8993606682   -0.5381338602    0.9534522344
 H    0.4996947798   -0.5826046454    2.0654042248
 H   -2.0135927010   -0.5554395222   -0.7757700246