22

 C    0.1266486781    1.3268714788    0.0569450289
 O   -0.0162018836   -0.0699210373   -0.0074800634
 C    0.6772427271   -0.6460237574   -1.0947006617
 C    0.4379999480   -2.1570743468   -1.1008888365
 C   -1.0531712235   -2.4864230158   -1.2509592529
 C    1.2694387245   -2.8137559192   -2.1876617483
 C    2.7287968512   -3.1256837388   -1.9666994581
 C    1.7199018248   -4.2453646399   -2.0497520306
 H    1.1806517965    1.6265163427    0.1746715781
 H   -0.2681291918    1.8216803112   -0.8451991275
 H   -0.4374096311    1.6764889388    0.9254656210
 H    0.3295112745   -0.2043090112   -2.0466349932
 H    1.7567422417   -0.4342195489   -1.0156769469
 H    0.7820705926   -2.5371520036   -0.1288368107
 H   -1.2224334834   -3.5656287605   -1.1891345767
 H   -1.6381074337   -1.9928300810   -0.4717186929
 H   -1.4297525068   -2.1449264568   -2.2230220340
 H    1.0019450258   -2.5027349570   -3.1959754466
 H    3.4204349594   -2.9914245616   -2.7910956116
 H    3.1525049115   -2.9007359899   -0.9929249252
 H    1.4696735441   -4.7675361925   -1.1316570992
 H    1.7205810441   -4.8765877831   -2.9314876322