19

 C   -0.0315754894    1.5297088059   -0.0294899112
 C   -0.0048308993    0.0110340660    0.0602528640
 C   -1.3208612963   -0.7295289463    0.4457944647
 C   -0.4980001134   -1.6638469486    1.3760199549
 C    0.7400569582   -0.7345546985    1.2030051662
 C    1.9717664474   -1.3414599578    0.5365881377
 O    1.6754182688   -1.3953583480   -0.8716091491
 C    0.6171250860   -0.6014541645   -1.1963387705
 O    0.2635639433   -0.4455239361   -2.3301337759
 H    0.9771030305    1.9487358082   -0.1150470235
 H   -0.5977154103    1.8405263593   -0.9127200113
 H   -0.5047250625    1.9607098796    0.8582469634
 H   -1.9943582709   -0.0703591005    1.0001405313
 H   -1.8781782233   -1.1887149312   -0.3733885019
 H   -0.8695696889   -1.7787570127    2.3957483995
 H   -0.3376140618   -2.6604942274    0.9548387097
 H    0.9860836310   -0.1436427844    2.0864458483
 H    2.8697391618   -0.7280081389    0.6753710869
 H    2.1899572692   -2.3604718943    0.8690695568