18

 O   -0.2206118010    0.1249956832   -0.2383168481
 C   -0.0586319792    1.3060768163   -0.1052265727
 C    1.3094157277    1.9968750392   -0.0433595034
 C    1.4953955242    2.9446762996   -1.2558685087
 N    1.6212755851    2.1795168534   -2.4839627793
 C    0.4027167748    1.9543692121   -3.2596633317
 C    1.4361011959    2.9175842735   -3.7281498687
 C    1.3913313254    2.7360497223    1.2104974795
 C    1.4104501218    3.3566336510    2.2399797392
 H   -0.9145988480    2.0123922792   -0.0092357562
 H    2.0736733083    1.2148094423   -0.0928490425
 H    0.6637500954    3.6726178111   -1.2800452291
 H    2.4175086941    3.5137771093   -1.1024891591
 H    0.3084598582    0.9728508521   -3.7131639542
 H   -0.5295445106    2.3759062205   -2.8862586959
 H    1.1927703842    3.9770959611   -3.6628044185
 H    2.1134533071    2.6549477525   -4.5353745874
 H    1.4498678566    3.8941450913    3.1552046867