15

 O    0.1374080594    0.0452309368    0.6323027912
 C    0.1215181792    1.2340124266    0.3876134574
 N    1.1578701790    1.9155124259   -0.1488871430
 C    2.5220775502    1.4697771341   -0.4194876018
 C    2.8734133819    2.9480529424   -0.8136007797
 C    1.4196536911    3.3384531327   -0.3658892805
 C    3.9700700713    3.5805406328   -0.1142821437
 C    4.8757039843    4.1027581968    0.4790383643
 H   -0.7566202195    1.8883997610    0.5677094071
 H    3.0456334738    1.1008104972    0.4672934899
 H    2.6053333574    0.7328597119   -1.2228469076
 H    2.9981793271    3.0548879162   -1.8938185645
 H    0.8042748249    3.8066862097   -1.1404195301
 H    1.3879392074    3.9455003354    0.5445552903
 H    5.6795682123    4.5640331104    0.9976546206