16

 O   -0.0521914832    1.3840118682   -0.0675565566
 C    0.0572606551   -0.0255525030   -0.1591232650
 C    0.8121403624   -0.4308241287   -1.3653070267
 N    1.4316974843   -0.7380075020   -2.2911731287
 C    0.7060150485   -0.6277962413    1.0873851255
 C   -0.0463699748   -0.7156982140    2.4446300654
 C   -0.9115364127   -1.8875456597    1.9212227027
 C    0.5621424328   -2.1189940591    1.5081682994
 O    0.9662253560   -1.7089566310    2.8736362184
 H    0.8356727044    1.7525488737    0.0118458090
 H   -0.9694047477   -0.3815026271   -0.2798398266
 H    1.7329461163   -0.2691525107    1.2034567374
 H   -0.2988027986    0.0828045613    3.1410975421
 H   -1.2707962890   -2.5619577123    2.6982129389
 H   -1.6645876025   -1.7018485126    1.1528744428
 H    1.0405368285   -3.0002919117    1.0824888719