13

 C   -0.0229277834    1.4882153334    0.0001182763
 C    0.0138015163   -0.0081313895   -0.0074876475
 N   -0.0505363281   -0.6372557182   -1.1880428716
 C   -0.0121820171   -1.9680863673   -1.1133630863
 N    0.0814163486   -2.6993411036   -0.0028830913
 C    0.1385037281   -1.9637582063    1.1100102545
 N    0.1097127726   -0.6372943556    1.1747117691
 C   -0.0791575409   -2.6896052311   -2.3667823007
 N   -0.1326610777   -3.2642141429   -3.3674865737
 H    0.8820680958    1.8781381971    0.4763539653
 H   -0.1041362204    1.8750096910   -1.0150324219
 H   -0.8699482274    1.8346510065    0.6003692251
 H    0.2157645935   -2.5059503636    2.0493941026