17

 C   -0.0301623325    1.7074223578    0.0140925358
 C    0.0993833850    0.1992516942    0.0397608725
 O    1.2047545394   -0.3506923481   -0.7668030559
 C    1.6124186335   -1.1974957515    0.3197289018
 C    2.1354721795   -0.3379675404    1.4082222202
 O    2.8147542186    0.8465588060    1.1517440364
 C    0.6270582419   -0.5292314890    1.2839727571
 C   -1.1716116854   -0.5042001251   -0.4362675674
 O   -2.2738483163   -0.0292063587   -0.3724561934
 H    0.8154840170    2.1846529650    0.5080332117
 H   -0.1003876170    2.0598493837   -1.0199688181
 H   -0.9554635254    1.9900863312    0.5224663554
 H    1.8654883437   -2.2256887276    0.0881498509
 H    2.5482184293   -0.8680525258    2.2625338990
 H    2.7713558630    0.9788926951    0.1949350278
 H    0.0135073671   -0.9353059666    2.0775187468
 H   -0.9835877313   -1.5220728402   -0.8421919906