20

 C    0.1424065851    1.5457074936    0.1551766434
 C    0.0821445540    0.0199280371    0.0536625179
 C    0.6040163456   -0.5011376565   -1.2965986890
 O    1.9141632882   -0.0236043633   -1.5545467554
 C    0.5814358210   -2.0334484691   -1.3895095357
 C   -0.6978652640   -2.7471955481   -1.0168224834
 C    1.5372417682   -2.6888009168   -2.2925714713
 O    1.7888527953   -2.6321467164   -0.8758367188
 H    1.1624255870    1.9013890654   -0.0066871699
 H   -0.4976958022    2.0163174627   -0.5998749833
 H   -0.1945703356    1.8879389116    1.1381896170
 H    0.6782697877   -0.4355951885    0.8560207825
 H   -0.9498367015   -0.3190201491    0.2000488476
 H   -0.0272918069   -0.0986390018   -2.1009832014
 H    2.4990862493   -0.5964032681   -1.0376621310
 H   -1.5373127920   -2.3673296327   -1.6095864662
 H   -0.6036963613   -3.8200311140   -1.2005469514
 H   -0.9391995359   -2.6046724632    0.0400344583
 H    1.3112338324   -3.6824397844   -2.6758716416
 H    2.2037343356   -2.0830091884   -2.9000148084