11

 O   -0.0269039814   -0.1077804603    0.0037041175
 C    0.0080097051    1.0921354372    0.0055109236
 O    1.0976717614    1.8596731565   -0.0028954236
 C    2.3534242338    1.1244428018   -0.0152905821
 C    3.4449297889    2.0772520963   -0.0192626546
 C    4.3720016194    2.8389583434   -0.0228446997
 C   -1.1956423041    1.9316172206    0.0180446707
 N   -2.1758031260    2.5417774601    0.0280885994
 H    2.3849124313    0.4740180230    0.8646741752
 H    2.3718806505    0.4817525473   -0.9013152633
 H    5.1907455411    3.5162033640   -0.0259899132