21

 C   -0.0366234818    1.5758272446   -0.0244377774
 C    0.0399749983    0.0450879824   -0.0145183683
 C    0.6540895415   -0.5269327136   -1.3036820861
 C    0.9255860891   -2.0207744388   -1.1451643586
 O    1.9123935968   -2.2641957561   -0.1515052725
 C    1.6310297123   -1.7045674095    1.0978468316
 C    2.2423228357   -0.3555748130    1.4254589156
 C    0.7480350672   -0.4972173280    1.2222167349
 O   -0.0398257904   -0.4904308273    2.3875626246
 H    0.9631996817    2.0206039011   -0.0748325097
 H   -0.6084679817    1.9348584871   -0.8864852576
 H   -0.5300784569    1.9559947584    0.8768906535
 H   -0.9830589628   -0.3485432293    0.0600728657
 H   -0.0280510084   -0.3548510492   -2.1442106916
 H    1.5957983328   -0.0186358202   -1.5472410397
 H   -0.0098309804   -2.5491927565   -0.8986324847
 H    1.3258511374   -2.4546217555   -2.0658202674
 H    1.5663611844   -2.4378861794    1.8977377888
 H    2.5912455242   -0.1866677599    2.4383942560
 H    2.8359975913    0.1054405300    0.6433002330
 H   -0.0221233401    0.4019790527    2.7502309598