18

 C   -0.3919665996    1.4446846620    0.0428210386
 C    0.0678103784   -0.0114105463   -0.0373216161
 N    0.7181677843   -0.3209834847   -1.3266157963
 C    1.2348585724   -1.7381599842   -1.2254620645
 C    2.4521479691   -1.1854514754   -0.4702304104
 C    2.1649367868    0.1172485073   -1.2301918916
 O    2.1178257538   -1.0066642535    0.9202650329
 C    0.9356489218   -0.3843578721    1.1889265347
 O    0.6143342585   -0.1702703996    2.3242288427
 H    0.4481384725    2.1389585196   -0.0568832080
 H   -1.1016797754    1.6494046370   -0.7618691410
 H   -0.8679343049    1.6274497541    1.0079805916
 H   -0.8214512122   -0.6506814605    0.0332631259
 H    0.5867331486   -2.4436613824   -0.6987525050
 H    1.4781791312   -2.1219048666   -2.2196724648
 H    3.4272168982   -1.6751859803   -0.4907242066
 H    2.6111009113    0.1487278295   -2.2271432425
 H    2.3510519650    1.0587426763   -0.7085155794