16

 C    0.0145311119   -1.2106686023    0.0352245276
 C    0.0287535424   -0.0080457361    0.0231068251
 C    0.0224312521    1.4132537357   -0.0511869298
 C   -0.7370330303    2.2553610489   -1.0951710442
 C    0.4335029970    3.2865915691   -1.1007604342
 C    1.1787997588    2.4319027370   -0.0567980906
 N    0.3503952660    2.2131221310    1.1259845280
 C    2.5883377598    2.2466906833    0.0106668624
 C    3.7832636246    2.1097253454    0.0179664587
 H    0.0099482048   -2.2721174313    0.0640251669
 H   -0.8455667136    1.7428160214   -2.0521320194
 H   -1.7196715513    2.6087635941   -0.7675160388
 H    0.9504605219    3.3251475071   -2.0607202467
 H    0.2085494527    4.3074730083   -0.7766724844
 H   -0.3159822134    2.9703729230    1.2773135644
 H    4.8369484165    1.9803534954    0.0411192648