17

 N    0.1026106269   -1.1197247042    0.0357548841
 C    0.0374501258    0.0335997004    0.0149631260
 C   -0.0540463163    1.4843714152    0.0117763828
 C   -0.7099881425    2.1618770859    1.2465651797
 C   -0.4991079485    3.5696326611    0.6436024895
 C    1.0461394279    3.5322797150    0.4052354714
 N    1.3025197390    2.1366274016   -0.0574707688
 C   -1.1244652486    3.3720854229   -0.7303233830
 C   -0.8670157994    2.1218484426   -1.1177674491
 H   -1.7610434274    1.9015716751    1.3777008963
 H   -0.1523017075    1.9768439767    2.1693457809
 H   -0.8470531847    4.4219847327    1.2255041537
 H    1.3557218306    4.2538181357   -0.3563419303
 H    1.5917286214    3.7511290512    1.3293760801
 H    1.9136875749    1.6667053439    0.6037084669
 H   -1.5865350936    4.1555910258   -1.3171919766
 H   -1.0541906579    1.6471423983   -2.0703688336