14

 C   -0.3195724503    1.2517005779   -0.0966099385
 O    0.5801784908    0.1586858342    0.1327366956
 C    0.8692719631   -0.5777899004   -0.9470726364
 C    0.7200196655   -1.8972177871   -1.2370086564
 N    0.1944956952   -2.9320570786   -0.4664289730
 N    1.2872529812   -2.1456389231   -2.4794251960
 C    1.7397244061   -0.9972071182   -2.8678506369
 O    1.5451500130    0.0145111966   -1.9992784297
 H    0.1290260769    1.9901835499   -0.7686375836
 H   -1.2627896211    0.8940699461   -0.5262968329
 H   -0.5035737750    1.7073112236    0.8775019841
 H   -0.4538720073   -2.6087373997    0.2388665213
 H   -0.2257940881   -3.6496558211   -1.0427234623
 H    2.2377435199   -0.7577741802   -3.7940071153