17

 O    0.0533219083    0.0206900407    0.2400237676
 C    0.0127557798    1.2175527027    0.0450169372
 C   -1.2576259325    1.9489206136   -0.1413837342
 C   -1.3148197760    3.2831887314   -0.2477611264
 C   -0.0994963941    4.1672791086   -0.2522056824
 C    1.1636186137    3.4012159448   -0.6715737354
 C    1.2696342583    2.0715820649    0.0441152959
 C    2.2202562463    1.8521261392    1.1565182737
 O    2.4861455301    1.3558376237   -0.1472007398
 H   -2.1522987774    1.3343015291   -0.1300605910
 H   -2.2837190280    3.7728822014   -0.3183507912
 H   -0.2629162812    5.0222669772   -0.9174572033
 H    0.0279184795    4.5970543749    0.7529055322
 H    1.1159032573    3.2021497867   -1.7496244388
 H    2.0651065191    3.9950159029   -0.4955296094
 H    2.8459340190    2.6810354524    1.4873808920
 H    1.9915586576    1.0924424757    1.9015477532