19

 C   -0.1242195596    0.5546576125    0.8474186801
 O    0.2947396060    0.9612046894   -0.4417081545
 C    0.7582063566   -0.0399497439   -1.2282902971
 C    0.9184449316   -1.3927227548   -1.0414183536
 C    1.4766730335   -1.8971111891   -2.2580170478
 C    1.6241273480   -0.8471728707   -3.1289637869
 N    2.0666182307   -0.7576714876   -4.4693297191
 N    1.1695713454    0.3042394664   -2.4879674102
 C    1.1198685922    1.6372073727   -3.0491027410
 H   -0.9442032278   -0.1726436588    0.7859419464
 H    0.7050365955    0.1052170454    1.4091343821
 H   -0.4696546541    1.4530985914    1.3611697610
 H    0.6797364355   -1.9538745192   -0.1533269042
 H    1.7417438640   -2.9233555931   -2.4637362745
 H    3.0785009868   -0.7021739817   -4.5427110709
 H    1.7669355258   -1.5644355787   -5.0032509067
 H    0.1419763450    2.0891866518   -2.8643397962
 H    1.8859378021    2.2881257928   -2.6124310884
 H    1.2905989929    1.5502456754   -4.1224968986