21

 C    0.3702101484    1.6024179334    0.0290090096
 C    0.0902663554    0.1080052704    0.0285722996
 C    0.8740609396   -0.8045452920   -0.9763995143
 C    1.2946874670   -1.7376494043    0.1980558622
 O    0.9136971393   -3.0793523196    0.1383535101
 C    2.6225444757   -1.3854133346    0.9092433638
 C    3.8682474367   -0.9427981825    0.1736729083
 O    1.9602797927   -0.3081429726    1.6299600539
 C    0.6503847994   -0.7387387642    1.1966889148
 H    1.4288833932    1.7928571542    0.2237992704
 H    0.1059447147    2.0515791708   -0.9343242669
 H   -0.2089736380    2.1124484606    0.8065605049
 H   -0.9851618460   -0.0790500532   -0.0651613471
 H    0.2354811365   -1.3102525755   -1.7052170380
 H    1.6934794229   -0.3162601390   -1.5096540461
 H    1.1595180010   -3.4274859731   -0.7251994099
 H    2.8671461168   -2.2012803728    1.6063508328
 H    3.6607917204   -0.1347452476   -0.5330276061
 H    4.6163977796   -0.5815107523    0.8865039896
 H    4.3064497630   -1.7852948546   -0.3731616866
 H   -0.0005103284   -1.0148174315    2.0305157250