20

 C    0.0011151544    1.5501647263   -0.0040821108
 C   -0.0458572586    0.0093370160    0.0231600497
 C    0.6960082763   -0.5121703263    1.1778294711
 N    1.2648555182   -0.9221808970    2.0968059716
 C   -1.4695801592   -0.5338183615    0.0325834117
 C   -2.5674613608   -0.2829568368   -1.0471889982
 C   -3.2217351731   -1.2048696253    0.0217666034
 C   -1.9040090450   -2.0299454863    0.0225124841
 C   -2.5761161462   -0.2968451547    1.1071425231
 H    1.0325699047    1.9089272167   -0.0325440949
 H   -0.5206009287    1.9183940031   -0.8912152705
 H   -0.4833559156    1.9676621673    0.8823253233
 H    0.4550968884   -0.3732994743   -0.8764843027
 H   -2.9599732064    0.7348230745   -1.1230599970
 H   -2.3909942077   -0.7207476274   -2.0340894560
 H   -4.2397428196   -1.5927762851    0.0137174528
 H   -1.6777321014   -2.5966488067   -0.8853319210
 H   -1.6810854265   -2.6064562654    0.9236139608
 H   -2.4042144635   -0.7463240914    2.0882113087
 H   -2.9704082297    0.7196211145    1.1922321807