19

 O    0.1214064757    1.2887731579    0.5387575999
 C    0.0198856813   -0.0593167304    0.0905002125
 C   -1.4479404377   -0.4376637018   -0.0629510068
 C   -2.2849935092    0.3562988576   -1.0260910128
 C   -1.7030047494   -0.9610314749   -1.4663333906
 C   -0.3979669671   -0.8829122543   -2.2444511328
 O   -0.2583892443    0.2624467485   -3.1271201388
 C    0.7878676962    0.8268291885   -2.3067155233
 C    0.6879547994   -0.3275261667   -1.2900758633
 H    1.0464837898    1.4695133652    0.7351044342
 H    0.4737037587   -0.7267615583    0.8374697545
 H   -1.9402316475   -0.8827370840    0.7942475134
 H   -3.3518180644    0.3892691189   -0.8362825754
 H   -1.8808042628    1.2596570915   -1.4648615455
 H   -2.3659964824   -1.8003274844   -1.6416177151
 H   -0.1810655642   -1.8131729400   -2.7799672238
 H    1.7386191451    0.8816213163   -2.8510201318
 H    0.5304016153    1.8187578247   -1.9198225442
 H    1.5963443075   -0.9234584640   -1.1888929004