16

 O   -0.6906913392    0.9403693735    0.1184714656
 C   -0.3567067561   -0.4371835657   -0.0422367308
 C    0.5186124602   -0.6615743848   -1.1897967349
 C    1.2707061580   -0.8302102313   -2.1235755133
 C    2.1125203974   -1.0186896723   -3.1753524124
 C    2.8603226939   -1.1851090371   -4.1085314634
 C    0.2515201597   -1.0309990775    1.2334406712
 C    1.1506784097   -0.2228782559    2.0856463218
 N   -0.2198260954   -0.5465499078    2.5303381599
 H    0.0826929779    1.4631101304   -0.1191805891
 H   -1.3161819708   -0.9411736442   -0.2217023292
 H    3.5167243645   -1.3327897285   -4.9301144233
 H    0.4013250116   -2.1065886526    1.1738095785
 H    1.9466441285   -0.7048906900    2.6448991591
 H    1.3615852192    0.8002523958    1.7864385440
 H   -0.8056252092    0.2713057180    2.3653358964