25

 C    0.0782699738    1.5623710477    0.1935883510
 C   -0.0229790953    0.0359261145    0.2145521061
 C   -1.4193747787   -0.4835432295   -0.1580657349
 O   -1.8209785844   -0.0157084073   -1.4495104882
 C   -1.4979311174   -1.9932680555   -0.0624225471
 C   -1.9588176624   -2.6756318145    1.2067304990
 C   -2.8115466013   -2.7383019535   -0.0380854741
 C   -4.1585094239   -2.0459606529   -0.1114019603
 C   -5.2968428922   -2.9286908411    0.4130664137
 H    1.0981046648    1.8965059217    0.4071800530
 H   -0.2173595319    1.9522883373   -0.7837824743
 H   -0.5835617042    2.0108138508    0.9431170290
 H    0.7062807212   -0.3974356656   -0.4858645974
 H    0.2401795620   -0.3523837225    1.2062246273
 H   -2.1495418650   -0.0348081123    0.5257753413
 H   -1.2740873621   -0.4665359713   -2.1025149214
 H   -0.6896742667   -2.4941347456   -0.5953493106
 H   -1.4369225426   -3.5647327051    1.5433781137
 H   -2.3054406845   -2.0357156326    2.0137078669
 H   -2.7938319229   -3.6944218123   -0.5583077805
 H   -4.1320776993   -1.1124755817    0.4615834076
 H   -4.3603451547   -1.7536562460   -1.1488487938
 H   -6.2604230686   -2.4134882883    0.3489302300
 H   -5.3768222193   -3.8563011237   -0.1649233924
 H   -5.1310137844   -3.2062292006    1.4595407264