17

 C   -0.0358839194    1.5494069145    0.0411360181
 C    0.0355939360    0.0208332824    0.0405185622
 C    0.7101233428   -0.5180573822   -1.2256354888
 N    0.7712988952   -1.9722435874   -1.2636124007
 C    1.7247395361   -2.8154725284   -0.7730781479
 N    1.4442132465   -4.0631865391   -0.9424663553
 O    0.1863819707   -4.0570931466   -1.5984903388
 C   -0.2358744478   -2.7707007514   -1.7954335051
 O   -1.2607274778   -2.4347163503   -2.3214310931
 H    0.9631493324    1.9972712811   -0.0019281867
 H   -0.6044566190    1.9193810363   -0.8185934384
 H   -0.5257774114    1.9166331733    0.9468514089
 H    0.5855800174   -0.3329779980    0.9211574346
 H   -0.9714607057   -0.4056369075    0.1028555746
 H    0.1486534992   -0.2104816734   -2.1124904819
 H    1.7297198965   -0.1307173244   -1.3224465925
 H    2.6337159784   -2.4798328187   -0.2954838993