17

 O   -0.2407808570    1.4199990848    0.7842198535
 C    0.0477281230    0.1893018111    0.1603834251
 C    0.3503123828   -1.0235038931    1.0919429686
 N   -0.9123060527   -1.7155481006    0.6778106853
 C   -2.0827671604   -1.3209223131    1.5367948409
 C   -2.5302695097   -0.2421910686    0.4998067093
 C   -1.2354786565   -0.5672643386   -0.2644736331
 C   -3.0194328679   -2.4139359503    1.7866438062
 N   -3.7803855663   -3.2616695256    1.9820238082
 H    0.5877511261    1.8287258732    1.0541002155
 H    0.7721316426    0.3163811894   -0.6541175100
 H    1.2317808186   -1.6092247265    0.8150686546
 H    0.4048156191   -0.7772184907    2.1577884459
 H   -1.7830374895   -0.8987254736    2.5025466267
 H   -3.4370304398   -0.5102611916   -0.0422568564
 H   -2.6141702843    0.7711783856    0.8894446166
 H   -1.3243488280   -0.8024449517   -1.3270337872