21

 C   -0.8789275763    1.1535773537   -0.0484745104
 C    0.0800145811   -0.0209448168   -0.1604249927
 C    1.4635476761    0.1779736773   -0.8342989104
 C    2.0632052441   -0.8159661368    0.1868389929
 O    3.3587718751   -0.6312947133    0.6837427204
 C    0.8138594117   -0.5699744469    1.1276340197
 C    1.1043686987    0.4957553730    2.1950277840
 C    0.2262527534   -1.7527643806    1.7292728422
 C   -0.2640250104   -2.7420759287    2.2084157691
 H   -0.4040936592    2.0288398991    0.4061010243
 H   -1.2362305818    1.4515030422   -1.0403019237
 H   -1.7553929731    0.8939850524    0.5550127674
 H   -0.4338286545   -0.8640053711   -0.6316863349
 H    1.5619876818   -0.0622019111   -1.8950211972
 H    1.8459017853    1.1932097832   -0.6739655901
 H    2.0324674160   -1.8399228672   -0.1925608370
 H    3.4591254743    0.2923100686    0.9358763420
 H    1.5152198919    1.4117086765    1.7564734525
 H    0.1926957052    0.7671425377    2.7331960284
 H    1.8255236252    0.1093422051    2.9202096133
 H   -0.6916919542   -3.6159662263    2.6334405502