13

 N   -0.3819221929    1.2447667498   -0.6801922182
 C   -0.1059053749    0.1453310269   -0.1664076288
 O    1.0681343381   -0.3762017816    0.3395173035
 C    0.4373747126   -1.6373247021    0.7070468553
 C    0.4874768661   -1.8759671562    2.2070031179
 O    0.5815169673   -2.9740915684    2.6814989997
 C   -0.9190021539   -1.1199610034    0.1191078483
 C   -2.0534606150   -0.9909319148    1.0174074121
 N   -2.9445875964   -0.8959774316    1.7461803230
 H    0.4209566461    1.8731651934   -0.7251559406
 H    0.8729369554   -2.4824104299    0.1715621977
 H    0.4283378271   -0.9524914181    2.8203627192
 H   -1.2167610896   -1.6461434440   -0.7906917492