15

 C   -0.2681446211    1.4930969497   -0.0534118625
 C    0.0727167333    0.0220260206    0.0149837524
 O    1.2532751509   -0.3147071878   -0.7992221327
 C    1.9839182917   -0.6755633364    0.3116155659
 N    3.1935749612   -0.9846551881    0.4362760001
 C    0.8165165681   -0.5015471262    1.2797020411
 N    0.9145046990    0.3623589936    2.4344703049
 H    0.5907422860    2.1150367670    0.2150011335
 H   -0.5831864830    1.7649479106   -1.0648788420
 H   -1.0832632015    1.7179427182    0.6405283410
 H   -0.7713646217   -0.5969738034   -0.3030935858
 H    3.6807656460   -0.9587945827   -0.4615800706
 H    0.4215560176   -1.4694705588    1.5995825528
 H    1.2851042698   -0.1573314016    3.2226648386
 H    1.5703763536    1.1178833354    2.2624911532