23

 C   -0.0530817608    1.3772084427    0.2558381643
 C   -0.1809089556   -0.1165221445    0.4997137112
 O    1.0903353565   -0.6174891859    0.8850348782
 C    1.0820576123   -1.9844355332    1.1495183438
 C    2.2450779148   -2.5283934085    1.9219055608
 C    0.8804476676   -2.4763676300    2.5596461434
 C    0.4216466316   -1.6068792298    3.7356095528
 C   -0.7518978138   -2.6094575100    3.9521676996
 C   -0.0463560869   -3.6179827533    2.9956508620
 H    0.6852519383    1.5755271899   -0.5262644446
 H   -1.0138085569    1.7966793658   -0.0574776714
 H    0.2689991059    1.8893209263    1.1671225339
 H   -0.9264820910   -0.3227623217    1.2830769140
 H   -0.5227278261   -0.6303855349   -0.4140780975
 H    0.6732916120   -2.5955404506    0.3406795459
 H    2.6571936931   -3.4886931377    1.6274828481
 H    2.9768306682   -1.8032753613    2.2645934701
 H    1.1351496115   -1.6111592756    4.5660460682
 H    0.1644873053   -0.5689843029    3.5098099456
 H   -0.9286454746   -2.9458421027    4.9759510534
 H   -1.6954231480   -2.2401455211    3.5422472204
 H   -0.6618496690   -4.0825451578    2.2191854557
 H    0.4821227557   -4.4097996631    3.5370732820