23

 C    0.0493956458    1.4598269342   -0.3408682422
 C    0.2303070281   -0.0313142721   -0.1562886317
 C    1.5997883375   -0.6324740524    0.0495893595
 C    0.5940424090   -0.6341845993    1.1788466772
 C    0.8610758662    0.2287743909    2.4239264050
 C    0.7839671809   -0.7753302418    3.5474590310
 C    0.3367635611   -1.9594072089    3.1358204336
 C   -0.0055567637   -1.9755373627    1.6623395126
 C   -1.5225065769   -2.1215776656    1.4405602958
 H    0.7635436263    2.0295400089    0.2615817114
 H    0.2004041388    1.7455860023   -1.3878461222
 H   -0.9579041063    1.7812267270   -0.0517953889
 H   -0.4459682175   -0.6295591039   -0.7628678303
 H    1.8304710388   -1.5751235649   -0.4378798927
 H    2.4453619099    0.0459858666    0.1266045132
 H    1.8332130606    0.7350241632    2.3806098070
 H    0.1112802509    1.0228696860    2.5578552242
 H    1.0482498151   -0.5249320465    4.5692601929
 H    0.1741433012   -2.8239026943    3.7713850269
 H    0.4884801540   -2.8157097648    1.1548348908
 H   -2.0663237707   -1.2867667971    1.8944108310
 H   -1.7727561907   -2.1522654134    0.3753089492
 H   -1.8921674184   -3.0479834515    1.8935498667