15

 O   -0.0443289893    0.0045933850   -0.0115728157
 C   -0.0117975982    1.1979530093   -0.0096021383
 O   -1.1150599337    1.9987261311   -0.0173992489
 C   -0.6158690946    3.3514126746    0.1625075430
 O    0.6296394810    3.3516149302   -0.4947989370
 C    1.2038186740    2.1448981320    0.0100466431
 C    1.7014581865    2.3740411141    1.4490103056
 C    0.6697646029    3.1549247830    2.2307633382
 C   -0.4303962315    3.6203427470    1.6413073374
 H   -1.2974963209    4.0333551398   -0.3444886928
 H    1.9874299766    1.8034875074   -0.6655939817
 H    1.9055842348    1.4104561594    1.9304899152
 H    2.6526464487    2.9212219672    1.4258196510
 H    0.8576712471    3.3239629816    3.2869807148
 H   -1.2042880933    4.1582716485    2.1765005562