25

 C   -0.1358857262    1.6565665586   -0.0648681751
 C    0.0093146921    0.1394531383   -0.0154655035
 C    1.0950800677   -0.6183106135   -0.8398958945
 C    2.4125925376   -0.0435244512   -0.2752745838
 C    2.1098527899   -0.1523428702    1.2632746364
 C    2.3669777723    1.0952626653    2.1094778621
 C    0.6526682013   -0.6668880080    1.1636512569
 C    0.8528315336   -1.8260983027    0.1247788035
 C   -0.3051108284   -2.7737126017   -0.1661977114
 H    0.8166280635    2.1897900573   -0.0590849089
 H   -0.6636744108    1.9495568965   -0.9799803570
 H   -0.7273230760    2.0236478142    0.7817508919
 H   -0.9730392282   -0.2878059260   -0.2271434423
 H    1.0199017991   -0.7248315021   -1.9245265849
 H    3.2826640731   -0.6361176122   -0.5735347188
 H    2.5950192716    0.9879792104   -0.5928487368
 H    2.7230896051   -0.9546889631    1.6915101795
 H    1.7844832049    1.9607077839    1.7873321243
 H    2.1211210303    0.9063513708    3.1606808134
 H    3.4257960789    1.3753832243    2.0672373660
 H    0.1179565286   -0.8269631740    2.1032750736
 H    1.7496398415   -2.4291797988    0.3129224842
 H   -1.2487967475   -2.2639773442   -0.3770049772
 H   -0.0735184566   -3.4031407401   -1.0330044550
 H   -0.4768708574   -3.4418910019    0.6852617274