19

 C   -0.2242971873    1.6369231317    0.2974288493
 N   -0.2272834013    0.1923536643    0.4799184144
 C    0.8148389323   -0.5869249467   -0.1490591327
 C    0.7762854249   -0.4405421387    1.3528555275
 C    1.8732056487    0.3478850938    2.0421888231
 C    0.2478981067   -1.6010701614    2.1730272603
 C   -1.0762842939   -2.2195066533    1.7714860613
 O    0.8765522655   -2.0032627464    3.1285233467
 H    0.7739456751    2.0781097060    0.1637920137
 H   -0.8188093299    1.8717208253   -0.5910018956
 H   -0.7009166663    2.1130470306    1.1596171908
 H    0.5084781974   -1.5084578100   -0.6381930689
 H    1.6278956730   -0.0596764648   -0.6485996509
 H    2.3486333551    1.0659677362    1.3720154365
 H    1.4819484147    0.8876310154    2.9108312697
 H    2.6337090592   -0.3433468272    2.4099704507
 H   -1.0689598553   -2.5509000305    0.7287443036
 H   -1.2827980366   -3.0657570688    2.4273829380
 H   -1.8715301421   -1.4726797256    1.8476998125