19

 C    0.3590163276    1.4485758099   -0.0502734440
 N   -0.0544802565    0.0541325455    0.0121009247
 C    0.1089073761   -0.6758845887   -1.2461040860
 C    1.2348391945   -1.6871100464   -1.2150978072
 C    2.3599066177   -1.6864896981   -0.2470622555
 C    1.9971095830   -1.1055807963    1.1305222767
 C    0.8498057763   -2.1011684512    1.1438246394
 C    0.5566463217   -0.6306111658    1.1144642878
 N    1.2763761163   -2.7325998744   -0.1678635110
 H    1.4377881163    1.5833473074   -0.2488532745
 H   -0.2050627693    1.9653438951   -0.8325425961
 H    0.1322946212    1.9363305337    0.9038995405
 H   -0.8194282823   -1.2127860499   -1.4948108422
 H    0.2880563093    0.0361226097   -2.0588106667
 H    1.4643764474   -2.1191745884   -2.1875790542
 H    3.3724527704   -1.9617696648   -0.5254324477
 H    2.7211092065   -0.8699487570    1.8988239490
 H    0.4895253433   -2.7676495213    1.9177155310
 H    0.2282871007   -0.2513862093    2.0806522159