19

 C   -0.0556896539    1.5292546875   -0.0933050774
 C   -0.0034759213    0.0060210619    0.0349952412
 O    0.6656366674   -0.5169593961   -1.1228721939
 C    1.4915908851   -1.6293102529   -0.7700593245
 C    1.2492476592   -1.8982633450    0.7226902009
 C    0.8324705794   -0.5143643729    1.2351664066
 O    1.9443727213    0.3511624005    1.4006568010
 C   -1.3660222809   -0.5524759191    0.1189985979
 C   -2.4771984208   -1.0066223142    0.1867388424
 H    0.9586658845    1.9255543754   -0.1308830030
 H   -0.5875205425    1.7957789729   -1.0092627055
 H   -0.5840621617    1.9673669674    0.7576215650
 H    1.2329657466   -2.4882945086   -1.3987899452
 H    2.5378490312   -1.3618665586   -0.9628134070
 H    0.4285610642   -2.6064385953    0.8671264280
 H    2.1322222635   -2.2872006545    1.2377323351
 H    0.2246859296   -0.5588146026    2.1470702067
 H    2.5136534219   -0.0256808100    2.0782953173
 H   -3.4598593429   -1.4067328058    0.2357635144