25

 C   -0.3154710364    1.4257994571    0.0134266933
 C   -0.0005654304   -0.0652257469   -0.1478129196
 C    0.9521782812   -0.4375936401   -1.3176720292
 C    2.3594905751    0.1328383089   -1.0731222505
 C    0.9880265570   -1.9885989058   -1.4966074645
 C    0.0008948273   -2.3158059547   -2.6413085842
 C   -0.1447335075   -0.9945405465   -3.3691896063
 C   -0.8280951148   -0.9017177219   -4.6969981457
 C    0.3775558003    0.0025868996   -2.6528744998
 H    0.5838332520    2.0164533125    0.2140771110
 H   -0.7902567428    1.8336346928   -0.8846329168
 H   -1.0031295403    1.5852584415    0.8501158776
 H    0.4381650061   -0.4447969197    0.7850690472
 H   -0.9425582936   -0.6103254192   -0.2883889285
 H    2.7819547486   -0.2507721866   -0.1368006633
 H    3.0366348721   -0.1458220033   -1.8869451579
 H    2.3535143028    1.2258177454   -1.0108173085
 H    1.9976490758   -2.2935662750   -1.7910371360
 H    0.7530561282   -2.5160883688   -0.5671523941
 H    0.3684228873   -3.1159828025   -3.2957234862
 H   -0.9750348809   -2.6587259275   -2.2682131472
 H   -1.8594380568   -1.2736647749   -4.6381896626
 H   -0.8598560396    0.1269015798   -5.0668682833
 H   -0.3203314111   -1.5196158762   -5.4489644550
 H    0.3755253804    1.0433156019   -2.9629127801