20

 C   -0.1179070991    1.5810941518    0.0491740532
 C    0.0167519407    0.0710175375    0.1776513912
 C    0.8856025828   -0.6669595416   -0.8495520346
 N    2.2818280485   -0.1972505950   -0.6546933692
 C    1.7320864656   -1.2647931759    0.2097757119
 C    0.9202996902   -0.5452140703    1.3239394616
 C    1.7221757764    0.3807828844    2.2357206342
 C    0.1838521713   -1.5843361991    2.1476942702
 O   -0.9477059448   -1.9594267214    1.9747283036
 H    0.8557576907    2.0564015719   -0.0928364222
 H   -0.7460886073    1.8333355526   -0.8123655506
 H   -0.5907820290    2.0151456025    0.9364100729
 H   -0.9649575815   -0.4045086303    0.2463104434
 H    0.5731940403   -1.0843322134   -1.7992046556
 H    2.8592417190   -0.6519881623   -1.3614821500
 H    2.2050278661   -2.2382961850    0.2689145709
 H    2.4074950606    0.9858467015    1.6399169237
 H    1.0665785738    1.0494110766    2.8033682383
 H    2.3135470400   -0.1967923359    2.9562660849
 H    0.8047550955   -2.0216792485    2.9652104621