15

 O   -0.0702242488    1.4264814632    0.1549222234
 C    0.0034952961    0.0285115434    0.0571514871
 C    0.7797240960   -0.3667662659   -1.1977773122
 O    1.1848639407    0.4751922943   -1.9612274092
 C    0.6944816111   -0.5551583943    1.2599537899
 N    0.8497896068   -1.8323913146    1.5306721571
 C    1.5671833353   -1.8631722329    2.7060207586
 C    1.8419471975   -0.5915436930    3.1375358805
 N    1.2811567506    0.2385124007    2.1930719589
 H    0.3523930057    1.7574024493   -0.6562533596
 H   -1.0000841668   -0.4210262865   -0.0290191396
 H    0.9521810604   -1.4478722967   -1.3421476758
 H    1.8411712013   -2.7967678991    3.1729050168
 H    2.3591691299   -0.2081340968    4.0007971138
 H    1.2488518842    1.2446923289    2.1745203401