14

 N    0.0367500636    1.4534313751    0.1568165474
 C    0.0594410465    0.0533716697    0.0243064393
 C   -0.9995906605   -0.8196220263   -0.0183418165
 O   -0.6064990942   -2.1487915056   -0.0467191970
 C    0.7410985717   -2.0956700353   -0.0408275654
 C    1.2049574414   -0.8037140747    0.0084322022
 N    2.5772459276   -0.9456489560    0.0199292793
 C    2.8170550456   -2.3040026061   -0.0164492330
 N    1.7153530563   -3.0350109462   -0.0567922956
 H    0.6002753329    1.9146735418   -0.5491661679
 H   -0.9053898754    1.8211005347    0.0989269894
 H   -2.0637424769   -0.6530657018   -0.0153051112
 H    3.2757174394   -0.2271433123    0.0974571404
 H    3.8221400620   -2.6971459772   -0.0143590114