17

 C    0.1673749016    1.7130976424    0.2122802096
 C    0.0159902361    0.1960967679   -0.0312055877
 C    0.6796076681   -0.6023454000    1.1406185324
 O    0.1119282849   -0.3007544558    2.3914105811
 C   -1.4005213534   -0.1741391655   -0.0804142940
 N   -2.5101057890   -0.5020472622   -0.1103820407
 C    0.7775430800   -0.1975257003   -1.3268557289
 N    0.0765966361   -0.8658944854   -2.2735076895
 O    1.9563210926    0.0778652757   -1.4268555216
 H    1.2241217335    1.9682138062    0.1146250344
 H   -0.4056418619    2.2920873603   -0.5158053871
 H   -0.1777597393    1.9566251223    1.2182185553
 H    0.6351848779   -1.6770787208    0.9161056559
 H    1.7285523530   -0.3019399483    1.1755937546
 H   -0.7665600448   -0.6954282052    2.4323974439
 H   -0.9064911724   -1.0601033076   -2.1837746251
 H    0.5576812369   -1.1309127735   -3.1177472926