14

 C    0.0195237802    1.4512463853   -0.0356562473
 C    1.3558080641    0.7680880916    0.0049674204
 O    1.9585625340    0.4797004837    1.2491269641
 C    1.0816256353   -0.3626790005    1.8900232509
 N    0.0169760732   -0.7287723958    1.2935852434
 C    0.0238930875   -0.0480871530    0.0245925445
 C    0.4886090054   -0.7697162365   -1.2759236957
 O    0.7576107063    0.2366650632   -2.2565007476
 C    1.7576926249   -0.0302220923   -1.2723539997
 H   -0.2788430048    1.9575211551    0.8751911988
 H   -0.2714441644    1.9336125110   -0.9594396277
 H    1.3767338150   -0.6366950916    2.8967743242
 H    0.2080326912   -1.7591889090   -1.6165039347
 H    2.7603232221   -0.2694727313   -1.6063884837