16

 O    0.3105846650    0.5080335214    1.0071328163
 C    0.3330068835    1.6318418270    0.6091506738
 O    1.1116954249    2.0177910131   -0.4269813055
 C    1.1371897132    3.4110267801   -0.7503709620
 C    2.3242564336    4.0788314338   -0.1054792894
 C    2.2860912042    5.5238909846    0.3017961132
 N    2.1690378048    4.4713777973    1.2873701693
 C    3.1370608281    4.2553438532    2.2670061492
 O    3.7074182179    5.1293351538    2.8666201100
 H   -0.2724681124    2.4605439457    1.0222623083
 H    1.2007805428    3.4724060018   -1.8400781217
 H    0.2109512569    3.8990841927   -0.4237700949
 H    3.2930060743    3.6762373804   -0.3964933463
 H    3.2163975243    6.0844055757    0.2872132601
 H    1.3882979325    6.1088120559    0.1217857270
 H    3.2735131561    3.1777527635    2.4743614226