18

 C    0.1865643437    0.9308442915    0.4889473191
 O    0.0662126676   -0.3496786578   -0.0805740465
 C    0.5658042210   -0.4464055949   -1.4022178013
 C    2.1193221237   -0.5557535574   -1.4620675178
 C    2.4039265463   -2.0390383813   -1.5765461687
 O    1.7295799195   -2.8279966361   -0.5899846709
 C    1.1639014116   -2.7530225533   -1.9038466296
 C    0.0254927430   -1.7611633203   -2.0171492112
 H    1.2339173606    1.2425641331    0.6209874668
 H   -0.3216445339    1.6961413592   -0.1205231329
 H   -0.2869718451    0.8912352714    1.4730057302
 H    0.2195371505    0.4274555751   -1.9745107046
 H    2.5148059665   -0.0381038578   -2.3444884689
 H    2.5858075559   -0.1072649124   -0.5802621361
 H    3.3891707696   -2.3957640435   -1.8686154190
 H    1.1470409105   -3.6867865514   -2.4610321943
 H   -0.8737802320   -2.0770975646   -1.4826033204
 H   -0.2348475892   -1.6226027597   -3.0728789541