16

 C    0.0152702885    1.3940429456   -0.1063386181
 C    1.4962793568    1.8336424737    0.0273961536
 C    2.1178956865    0.6032548657    0.6436447409
 C    3.3710683672    0.3255104453    1.1589165407
 C    3.6040115842   -0.9754602751    1.6188066495
 N    2.6963210226   -1.9528012070    1.5823904109
 C    1.4841330954   -1.6846665518    1.0826211750
 C    1.1709820042   -0.4170648520    0.6106208470
 O   -0.0223307394   -0.0419126908    0.0798560898
 H   -0.6112722479    1.8512476955    0.6679091423
 H   -0.4194505333    1.6131137238   -1.0835107849
 H    1.9453102871    2.0554627939   -0.9475852207
 H    1.6026470787    2.7291501592    0.6455223505
 H    4.1521189750    1.0768577363    1.2103176444
 H    4.5722636559   -1.2376946253    2.0371484433
 H    0.7560989483   -2.4903480469    1.0605356959