12

 O   -0.0147632811   -0.0779215939   -0.0017192748
 C   -0.0064821676    1.1156528631    0.0069475247
 N    1.2034771196    1.8901754613   -0.0007678639
 N    2.3502742240    1.1882007067   -0.0186550778
 C    3.4439282540    1.8793789430   -0.0254057000
 C    3.4212923238    3.3168691166   -0.0140919844
 N    2.3311786716    4.0096089021    0.0031552897
 C    1.1137817218    3.3231826827    0.0108346046
 O    0.0402923386    3.8710900892    0.0282206091
 H   -0.8805640378    1.7765418725    0.0219844616
 H    4.3737460289    1.3220197677   -0.0398065193
 H    4.3654492542    3.8625482292   -0.0202440297