18

 O   -0.0772554641    1.4484379867    0.1028688653
 C    0.0313401626    0.0274966195    0.0006901589
 C   -1.4050121530   -0.5007982529   -0.0399748434
 O   -2.0980288481   -0.0356893251    1.1149165401
 C   -2.1309618651   -0.1333792435   -1.3305934617
 C   -2.6202024291   -1.2045640577   -1.9578859875
 C   -2.2552176286   -2.4553155387   -1.2304862847
 N   -0.7753973277   -2.6678970112   -1.1684431623
 C   -1.4816200438   -2.0273942818   -0.0399608855
 H    0.7927741277    1.8115505009    0.2883397351
 H    0.5724653013   -0.2781098008   -0.9013626288
 H    0.5401531589   -0.3890731474    0.8822482401
 H   -1.8222521545    0.8836664861    1.2267747251
 H   -2.1928866950    0.8936804455   -1.6696825907
 H   -3.1718256665   -1.1979622320   -2.8905754795
 H   -2.9018528717   -3.3257410335   -1.2290912178
 H   -0.5963911091   -3.6397795694   -0.9176396417
 H   -1.5476268843   -2.5260967848    0.9204570390