20

 C   -0.3664848989    1.4633355019   -0.0283975664
 C    0.2318424117    0.0519058801    0.0500629278
 C    0.8130608748   -0.4501199184   -1.2602373291
 C   -0.1165347940   -1.0386334513   -2.2903366085
 C    0.8499928226   -1.9365388346   -1.5340249690
 N    1.9531757881   -2.5126503683   -2.2415225298
 C    2.7577479491   -1.7204164734   -2.8112941456
 O    2.7418060641   -0.3633889242   -2.8178801312
 C    2.0489862874    0.2875900521   -1.7393355246
 H    0.3922479745    2.2142774453   -0.2717226575
 H   -1.1456136006    1.5173994597   -0.7958218500
 H   -0.8148807738    1.7496255252    0.9276877094
 H    1.0086728893    0.0237054547    0.8262091991
 H   -0.5455346959   -0.6512024216    0.3726197588
 H   -1.1711056095   -1.1050915832   -2.0435419546
 H    0.0924486603   -0.8755590763   -3.3422898363
 H    0.4232307568   -2.6038761011   -0.7919234263
 H    3.5812223705   -2.0935033092   -3.4163832955
 H    1.8184549439    1.2892585384   -2.1136546609
 H    2.7511266796    0.3917169541   -0.8997996996