12

 C    0.0079338695    1.5539107414    0.0071072807
 C    0.0029582214    0.0190498766    0.0504668085
 O    0.7237558842   -0.4953800487    1.1595387038
 C   -1.3668889317   -0.5095852894    0.0132926468
 C   -2.4988527021   -0.9329603573    0.0202563853
 C   -3.7773776781   -1.4123884382    0.0242018153
 N   -4.8660442847   -1.8175867283    0.0281454068
 H    1.0419218745    1.9063169089    0.0280133773
 H   -0.4787957003    1.9216190785   -0.9003635670
 H   -0.5246645181    1.9647618298    0.8706930893
 H    0.5362313516   -0.3631057178   -0.8284848153
 H    0.2776467738   -0.2090343256    1.9651713485