16

 C   -0.1105120718    1.3902873448   -0.1688269172
 O    0.0108628781   -0.0221453263   -0.0441545511
 C    0.6439777604   -0.6446912376   -1.0534374720
 N    1.1318256140   -0.0021276820   -2.1087428445
 N    1.6791298698   -0.9842115187   -2.8718074088
 C    2.3139834313   -0.6414811528   -4.1213485062
 C    1.5369639033   -2.2060608502   -2.3083330605
 C    0.8656016651   -2.0388196907   -1.1161940264
 H    0.8740237330    1.8671112072   -0.2241951210
 H   -0.6751636065    1.6595315816   -1.0679293412
 H   -0.6413641543    1.7263367487    0.7232341775
 H    2.6888339742   -1.5545690531   -4.5875467202
 H    1.5991161865   -0.1610714234   -4.7962707716
 H    3.1495645023    0.0445239139   -3.9522698471
 H    1.9188267783   -3.0925236860   -2.7910216611
 H    0.5769629364   -2.7893202055   -0.4005452986