18

 C   -0.2333696718    1.4861136135    0.0024400469
 C    0.0730059019   -0.0234261176    0.0224723281
 C    0.7803940338   -0.5250338344   -1.1957215768
 C    2.1050284286   -0.8063368793   -1.4262192585
 N    2.3117594942   -1.2261385740   -2.7186339913
 C    1.1227955271   -1.2020498274   -3.2714069775
 N    0.1515305684   -0.7855902740   -2.4042204926
 C   -1.2610201711   -0.6776848928   -2.7026786154
 H    0.6887684116    2.0639292507   -0.1079049070
 H   -0.8932380429    1.7555965916   -0.8284928345
 H   -0.7242138202    1.7949033608    0.9309090626
 H    0.7065301087   -0.2468990023    0.8871742721
 H   -0.8589827071   -0.5820472472    0.1817360339
 H    2.9198065014   -0.7316157042   -0.7205873066
 H    0.8877172074   -1.4757924732   -4.2902640342
 H   -1.8573347818   -1.2714245785   -2.0029313376
 H   -1.6038901649    0.3608955186   -2.6588747145
 H   -1.4365916336   -1.0574381004   -3.7110100971