16

 O   -0.8015128183    0.8099359539    0.0950178870
 C    0.0224000619    1.1906060819   -0.6917780504
 C    1.2269649255    2.0350854505   -0.2934935695
 C    1.5182657307    3.2121784141   -1.2539035957
 N    0.5832372660    4.3066627439   -1.1446761360
 C   -0.6342421580    4.2729600388   -1.7408294565
 O   -1.0827569518    3.3025888562   -2.3190660147
 C    2.9162837574    3.7394505811   -0.9854995586
 O    3.1539443024    4.8772691824   -0.6710356056
 H   -0.0091880022    0.9074881104   -1.7637034596
 H    1.0909008251    2.3899298796    0.7314750459
 H    2.0929793950    1.3553193777   -0.3077999213
 H    1.5044351944    2.8154144995   -2.2816597122
 H    0.9607798565    5.1732271473   -0.7855447177
 H   -1.1835473366    5.2269947280   -1.6389549870
 H    3.7194910821    2.9795264546   -1.0815262281