19

 C   -0.0212003978    1.5142704345    0.0005601721
 C    0.0340388814    0.0072949943   -0.0046960413
 C   -1.2645562225   -0.8115552965   -0.1751506931
 C   -0.6721244945   -2.0885285155    0.4519618147
 O   -0.4158216428   -1.6280075394    1.8130228501
 C    0.6381521957   -0.8744477659    1.2003681764
 C    0.8600253722   -1.9215662935    0.0851044902
 C    1.0193569284   -0.7836461222   -0.9277539021
 O    0.7789072773   -0.9408697604   -2.3032008637
 H    0.9656318824    1.9475924691    0.1977366489
 H   -0.3602910663    1.8963301272   -0.9691918000
 H   -0.7105883063    1.8863492760    0.7663657000
 H   -2.1006129895   -0.4467245404    0.4251713253
 H   -1.5854610899   -0.8956453224   -1.2179342105
 H   -1.2079206693   -3.0353972475    0.4018781669
 H    1.3840798652   -0.4578072791    1.8749293910
 H    1.5167928239   -2.7843546590    0.1758906447
 H    2.0271130896   -0.3614576605   -0.8510740424
 H   -0.0035847370   -1.4871331286   -2.4218353073