21

 C   -0.0954616730    1.4894136702    0.0667875812
 C    0.0464349346   -0.0387969206   -0.0510286375
 C   -1.3416930367   -0.6850172500   -0.2620312561
 C   -2.0536857292   -0.2167544254   -1.5113557878
 O   -3.1577695352    0.2650233929   -1.5356397510
 C    1.0660468624   -0.3810458368   -1.1872628379
 C    2.3672461033   -0.5921651080   -0.4528021057
 C    2.1852457058   -0.7053555251    0.8608266934
 C    0.7306651814   -0.5907240816    1.2408756242
 H    0.8796299935    1.9510792500    0.2512863921
 H   -0.5073675119    1.9276544648   -0.8486874734
 H   -0.7618073280    1.7599020093    0.8928593298
 H   -1.2139286789   -1.7738157594   -0.3510346698
 H   -1.9977724288   -0.4912409137    0.5926727932
 H   -1.4769547793   -0.3555544589   -2.4556135256
 H    0.7821874037   -1.2938496286   -1.7313453210
 H    1.1240025018    0.4151627021   -1.9390215623
 H    3.3196706109   -0.6693656975   -0.9654536979
 H    2.9664810505   -0.8887916316    1.5901468782
 H    0.5600451679    0.0683960533    2.1007007429
 H    0.3263076251   -1.5728727456    1.5248767708