15

 C    0.1804394509    1.4652044767    0.2605481934
 C   -0.1022572954   -0.0129451003   -0.0354748206
 O   -1.4830049128   -0.2355685345   -0.3003582868
 C    0.6438837424   -0.5028585671   -1.2390674179
 C    0.1337018382   -0.9611600363   -2.4123183991
 O    1.1187742912   -1.3067941593   -3.2556370220
 N    2.3423371453   -1.0793511260   -2.6389447916
 C    2.0481464666   -0.6073356292   -1.4526928045
 H    1.2461136495    1.6335497904    0.4444723434
 H   -0.1301653894    2.0841418658   -0.5856634365
 H   -0.3659266409    1.7881327140    1.1543750615
 H    0.2120887711   -0.6073544504    0.8393710020
 H   -1.9876055019    0.1212335399    0.4369295996
 H   -0.8742514376   -1.0963018386   -2.7672439183
 H    2.8553022828   -0.3551301553   -0.7785316826