19

 C    0.0151843397    1.5489291652   -0.0522688839
 C   -0.0635657512    0.0334111769   -0.0147095917
 O    0.7273685121   -0.4690848390   -1.0923529021
 C    0.7461827092   -1.8612612800   -1.2383078833
 C   -0.5440450713   -2.4992849476   -1.8586320058
 N    0.1120089464   -2.4932564752   -3.1839531828
 C    1.4379587723   -2.2411155151   -2.5777819816
 C    1.2651454087   -2.5328888123   -0.0363591238
 N    1.6678197561   -3.0652664776    0.9076174711
 H    1.0510351568    1.8813033615    0.0568243773
 H   -0.3723093651    1.9324409045   -1.0001042696
 H   -0.5747439599    1.9757503292    0.7640090928
 H    0.3169309866   -0.3562174991    0.9399569672
 H   -1.1047700517   -0.3046488672   -0.1209259877
 H   -0.7613556548   -3.4905840809   -1.4427800534
 H   -1.4431202555   -1.8778339604   -1.7976726338
 H    0.0377286233   -3.3631541255   -3.6969751333
 H    1.9941557188   -1.4124077249   -3.0251700592
 H    2.0896554494   -3.1172754825   -2.4827839665