18

 C    0.1067784027    1.6728167045    0.2469152229
 C   -0.0121866117    0.1435077460    0.0803136810
 C    0.6584999576   -0.4137338852   -1.1849899813
 C    2.0185595268   -0.9048251175   -0.6753264244
 O    1.8285004693   -1.2102183375    0.7198687721
 C    0.7407956887   -0.5612166264    1.2080721514
 N    0.3790617113   -0.5412275493    2.4185481504
 C   -1.4909155889   -0.2349837767    0.1910462684
 O   -2.1069807454   -0.8274590505   -0.6549347282
 H    1.1545475551    1.9857717629    0.2044051384
 H   -0.4379595912    2.1907715721   -0.5487179455
 H   -0.2958355096    1.9818535971    1.2149567502
 H    0.0577022998   -1.2384368573   -1.5757169807
 H    0.7594044771    0.3317318208   -1.9763094744
 H    2.3714176642   -1.8141259929   -1.1659024118
 H    2.7978646711   -0.1378905836   -0.7591147826
 H    1.0268599734   -1.0690762247    3.0050991245
 H   -1.9599786404    0.0912881380    1.1408897297