17

 O   -0.1689986489    0.0881153557    0.2918876004
 C    0.0086349505    1.2521203375    0.0226914633
 C    1.3224949723    1.9228673581   -0.0109643405
 C    1.3426699195    3.4318660021    0.1798084744
 C    1.6205936731    2.8937653172   -1.1818278340
 C    3.0670272762    2.6569162378   -1.5520395207
 O    4.0002927106    2.9827253281   -0.5157864113
 C    3.6386331445    1.6045370507   -0.6937282569
 C    2.5782842276    1.0982818270    0.2713651679
 H   -0.8462916822    1.9198305827   -0.2386246845
 H    0.3826256604    3.9117885482    0.3432454072
 H    2.1742667616    3.8446441101    0.7366026664
 H    0.9004838315    3.0337950668   -1.9796259981
 H    3.4005583827    2.8558982812   -2.5663857303
 H    4.4544533789    0.9553902726   -1.0029231866
 H    2.9108280630    1.1733628145    1.3115561866
 H    2.3539129688    0.0451821397    0.0747635867