17

 C    0.0511089133    1.4922091332   -0.1484328120
 O    1.5133274404    1.4447158845    0.0879842059
 C    1.3273597003    0.2009799244    0.8069158805
 C    1.1153912727    0.2602220613    2.3150905917
 O    0.1503227703   -0.7996455590    2.4670747001
 C   -0.0357435387   -1.2375040615    1.1482828801
 C    1.3695820525   -1.3138569286    0.3841982255
 C    0.6693846346   -0.9462842925   -0.9249557028
 C   -0.0179526080   -0.0299561836    0.1222607386
 H   -0.4386254219    2.1429448616    0.5830863209
 H   -0.1776922157    1.8192453499   -1.1659522355
 H    2.0107256131    0.0363196555    2.9050609391
 H    0.6899865220    1.2113018032    2.6539033003
 H   -0.7536260309   -2.0565341933    1.1033933034
 H    2.1374891294   -2.0715086748    0.5644656090
 H    1.2854601305   -0.4278006538   -1.6605646765
 H    0.0463340861   -1.7126597364   -1.3931815484