18

 C   -0.1244483124    0.9331567649    0.8223628262
 O   -0.2315590614    0.1537219751   -0.3503230874
 C   -1.3926570518   -0.6698460473   -0.4100894486
 C   -1.5588478866   -1.0915962665   -1.8645489480
 C   -1.2798059542   -1.8465009528    0.5279127319
 N   -0.7255258210   -2.9999745572    0.1802610656
 N   -0.8049868330   -3.7163128460    1.3238396767
 C   -1.3927082156   -2.9891555973    2.2938831020
 N   -1.7101921695   -1.7980971526    1.8280068728
 H    0.7763001814    1.5428488626    0.7143092003
 H   -0.9932351600    1.5987002590    0.9451082689
 H   -0.0373172529    0.3196992470    1.7285132199
 H   -2.2659215072   -0.0856694870   -0.0808049525
 H   -0.7024394050   -1.6890029884   -2.1846391317
 H   -2.4648264215   -1.6900181117   -1.9922698206
 H   -1.6256790410   -0.2021790394   -2.4955190913
 H   -0.4586125008   -4.6615179050    1.3491133475
 H   -1.5655250876   -3.3605533373    3.2928341084