21

 C   -0.0092844167    1.4887282376    0.0533799190
 C   -0.0010619243   -0.0269603675   -0.0003584808
 C    0.6268355935   -0.6753510331   -1.2564244367
 C    0.1518622692   -2.1631836927   -1.1640138871
 C   -0.7544520319   -2.1366789863    0.0753014162
 O    0.0576690350   -2.0358108807    1.2616452777
 C    0.6410405325   -0.7130922005    1.2260861794
 C   -1.3865391791   -0.7399709738    0.0234048199
 O   -2.2119173143   -0.4280251256    1.1207801839
 H    1.0022133729    1.8950993631    0.1665021719
 H   -0.4343657421    1.9126803330   -0.8627700796
 H   -0.6139317670    1.8352015876    0.8973877181
 H    0.2479772492   -0.1922282786   -2.1630074757
 H    1.7161901969   -0.5770414389   -1.2675465569
 H   -0.3995412887   -2.4754037905   -2.0559079541
 H    0.9745673547   -2.8662823930   -1.0157451252
 H   -1.4258553825   -2.9868515928    0.2013503053
 H    1.7321898028   -0.7866856310    1.1399201558
 H    0.4047501953   -0.1945170069    2.1634890730
 H   -1.9640207218   -0.5493233816   -0.8864476944
 H   -1.8673600937   -0.9247357878    1.8734186703