17

 N   -0.4213695015   -1.1086140704   -0.1295964420
 C   -0.2638754234    0.0368881271   -0.0725133716
 C   -0.0791129225    1.4524907131   -0.0203889210
 C    0.5072013786    2.1013514488    1.2647036276
 N    0.9411620988    1.2407280515    2.3171675840
 C    2.3881588870    1.0552245538    2.3602821055
 C    2.8197181176    0.4702766674    1.0222401171
 O    2.4999987566    1.3433923587   -0.0699313860
 C    1.3296021792    2.0719788795    0.0177363220
 H   -0.8230657554    2.0245223750   -0.5656181911
 H    0.0515081576    3.0481925878    1.5471364111
 H    0.5333873900    1.4781123660    3.2084687057
 H    2.9468867865    1.9875046126    2.5527573198
 H    2.6306173267    0.3431591407    3.1547301769
 H    3.9041127438    0.3401713646    0.9790854923
 H    2.3345379865   -0.5011068638    0.8749125071
 H    1.4212026740    2.9896408878   -0.5544331875