18

 C   -0.0661712361   -1.1542243209    0.4608834226
 C   -0.0308571636    0.0065985579    0.1511966220
 C    0.0358064414    1.4220101512   -0.2123835929
 C    1.4372822517    1.9751253214   -0.1664748076
 C    2.0790195262    2.6295668435   -1.1383654915
 C    3.4699765459    3.0688688609   -0.7275701250
 C    3.5536855777    2.6198261841    0.7284419723
 N    2.5661477895    3.2761802034    1.6130488147
 C    2.2880557421    1.9157718457    1.0633057860
 H   -0.1079894991   -2.1813052216    0.7265900935
 H   -0.3857506883    1.5663716876   -1.2140037944
 H   -0.6038640098    1.9925062298    0.4770258899
 H    1.6584298973    2.8633688885   -2.1107782720
 H    4.2443338767    2.5890171477   -1.3407241421
 H    3.6072898129    4.1523134813   -0.8272229934
 H    4.5068982356    2.3182028771    1.1486918216
 H    2.8893475743    3.1727852457    2.5742013756
 H    2.2297148956    1.0725776868    1.7426191206