22

 C   -0.0325473060    1.3661167196    0.0364627088
 O   -0.0188802806   -0.0603207409   -0.0322519540
 C    0.6582793249   -0.5659959526   -1.0981898613
 O    1.1871633335    0.1342204804   -1.9388044167
 N    0.6590509227   -1.9311502598   -1.0809032624
 C   -0.0350557819   -2.6851773197   -0.0463005377
 C    1.2632613574   -2.6398185037   -2.2200553359
 C    2.4915472743   -3.4536681669   -1.7926996564
 C    0.2315878345   -3.4987742586   -2.9626455424
 H    0.9818478031    1.7638902278    0.1252999262
 H   -0.4977835970    1.7954942127   -0.8543685405
 H   -0.6149408070    1.6120247559    0.9254425222
 H   -1.1088739046   -2.7870790919   -0.2492851063
 H    0.3960158213   -3.6865758237    0.0186686560
 H    0.0836316270   -2.1975177499    0.9207691145
 H    1.5971040281   -1.8437015029   -2.8873118111
 H    2.9689399573   -3.8995196157   -2.6709067022
 H    3.2238308240   -2.8141798836   -1.2923824647
 H    2.2290548862   -4.2724529229   -1.1137003168
 H   -0.6227368082   -2.8948254474   -3.2821392986
 H    0.6869250929   -3.9429191702   -3.8529585591
 H   -0.1415818819   -4.3191169061   -2.3400221916