15

 O   -0.0606680769    1.3336577501    0.0708656633
 C    0.0647016963   -0.0294070098    0.0687765600
 C    0.7988531314   -0.9566837074    1.0674146020
 C    0.1187387390   -1.9392741256    0.1005762489
 C    0.1075828551   -3.4192435654    0.0671834397
 O    0.7050918056   -4.1217923597    0.8462533272
 C   -1.1353977847   -1.0073034197   -0.1064713250
 O   -1.0820430401   -1.0481025856   -1.5579658852
 C    0.3124601925   -1.0063950709   -1.1520218471
 H    0.8132408966    1.7304869371    0.1568475851
 H    1.8915327565   -0.9394441792    1.0469391555
 H    0.4294724891   -0.9558529190    2.0953259250
 H   -0.5067701441   -3.8485478789   -0.7536942350
 H   -2.1024004389   -1.0413538090    0.3942398839
 H    1.0903903124   -1.0395936172   -1.9145501384