18

 C    0.0304919510    1.4059144715    0.0289640005
 O   -0.0424942116   -0.0182507705   -0.0172977879
 C    0.5799870583   -0.6669800342    0.9735597011
 N    0.5912114256   -1.9293838704    1.0025105928
 C    1.2594906050   -2.5448319745    2.1390949739
 C    0.2693177554   -3.4638129964    2.8870801804
 N   -0.8169106276   -2.6457212961    3.4181142709
 C    2.4184680140   -3.3247842762    1.6726906549
 N    3.3351582914   -3.9409716099    1.3343876317
 H    1.0649542199    1.7534547207   -0.0701789777
 H   -0.5525149268    1.7674007120   -0.8181061545
 H   -0.4005549508    1.7969298937    0.9576611315
 H    1.0552789659   -0.0200917670    1.7263990197
 H    1.6285040297   -1.7997530202    2.8633739828
 H   -0.0444009051   -4.2594435852    2.1951076745
 H    0.7992981096   -3.9349786890    3.7207957996
 H   -1.4170334269   -2.3528073403    2.6527904390
 H   -1.3929892472   -3.2024336080    4.0407921369