15

 O   -0.0085582674   -0.0072403991    0.0049130186
 C    0.0068357469    1.1866934481    0.0099228423
 O   -1.1379541109    1.9335571888    0.0288063841
 C   -0.8362504534    3.3473253978    0.0313991830
 C    0.0094328699    3.6411424961    1.2679395023
 O    1.2263121086    2.8895738728    1.1699323119
 C    1.2371409497    2.1046162088   -0.0020800835
 O    1.1952119012    2.9005834788   -1.1659319461
 C   -0.0237880423    3.6528333280   -1.2244370247
 H   -1.7908176547    3.8740497710    0.0465974382
 H    0.2517373903    4.7090127747    1.3238408851
 H   -0.5254494734    3.3488668895    2.1789028962
 H    2.1628017067    1.5336952494   -0.0170902584
 H   -0.5827788795    3.3690131610   -2.1235221365
 H    0.2170337084    4.7212191344   -1.2767730626