23

 C   -0.1023377958    1.5940043980   -0.2124904273
 C    0.0735633543    0.0939779244    0.0712601488
 C    0.7735122278   -0.1372327796    1.4173664129
 C   -1.2776107818   -0.5994383960    0.0211181422
 C   -1.9202809207   -1.1292973942   -1.2168335313
 O   -0.9605069045   -1.7238235330   -2.0993307400
 C   -0.7382880133   -2.8059850095   -1.1443932384
 C    0.7133322222   -3.1902336910   -0.9373764075
 C   -1.5843591121   -2.0895599923   -0.0889816753
 H    0.8640765976    2.1087107090   -0.2197231433
 H   -0.5806508449    1.7590733111   -1.1828674831
 H   -0.7253723260    2.0697936915    0.5548937863
 H    0.6933403419   -0.3199005446   -0.7296993222
 H    0.1796676693    0.2733832560    2.2429827240
 H    0.9191505756   -1.2037033753    1.6154067462
 H    1.7540762188    0.3502292031    1.4417790561
 H   -2.0172374190   -0.1334071844    0.6753151639
 H   -2.8621255104   -0.8072889469   -1.6476751784
 H   -1.2929347411   -3.6854839323   -1.5020255607
 H    1.3129314547   -2.3727161303   -0.5352878657
 H    0.7718046781   -4.0353615884   -0.2425859430
 H    1.1543003323   -3.5076466109   -1.8882175856
 H   -2.2399095131   -2.5915246443    0.6107746214