20

 C   -0.0274790467    1.5760311224    0.0623781025
 C    1.5157722099    1.5892940964   -0.1253575085
 C    1.4259891104    0.1021337550   -0.6038200801
 C    2.4200735045   -0.9125191237   -0.1394104448
 C    2.1031447512   -1.8874755907    0.7145155413
 C    0.7362007263   -2.0148427996    1.3436989458
 C    0.0189875922   -0.6560211949    1.3937509261
 C    0.0001666501    0.0211990134    0.0200760572
 H   -0.4274387239    2.0392125918    0.9688016095
 H   -0.5471138166    2.0016674939   -0.8006167818
 H    1.9311055216    2.3168933377   -0.8266712849
 H    2.0511289538    1.6776855119    0.8234532194
 H    1.3634930548    0.0841578890   -1.6989427807
 H    3.4287933066   -0.8482892634   -0.5436559004
 H    2.8506842305   -2.6265665378    0.9929639782
 H    0.1303729184   -2.7453624457    0.7866615075
 H    0.8315312763   -2.4251778825    2.3561928340
 H   -1.0021388767   -0.7677014282    1.7761019822
 H    0.5525072470   -0.0167920327    2.1086486182
 H   -0.7546699797   -0.4524861525   -0.6156386806