20

 C    0.0007835635    1.5003682653    0.0556145926
 C    0.0123282340    0.0115789955    0.0242124478
 C    0.9130927844   -1.0236969182   -0.5856388300
 C    0.5634137050   -1.0608326889    0.9192480010
 C   -0.7570765471   -1.8499254388    0.8563469644
 C   -1.6226699134   -1.9723445477    2.0787955677
 C   -0.5857714851   -2.9775783070   -0.1843233763
 C   -0.2898111602   -1.8033667449   -1.1283696966
 N   -1.1922508400   -0.8812259504   -0.2794210385
 H    0.9968156892    1.8864695464    0.2981344617
 H   -0.2961928415    1.9126565087   -0.9151329157
 H   -0.7008484665    1.8743831148    0.8094334317
 H    1.9288936673   -0.9380562563   -0.9508857195
 H    1.3123821580   -1.0037725715    1.6999072392
 H   -1.7431604101   -1.0005351635    2.5692158444
 H   -2.6166401722   -2.3469134397    1.8161374038
 H   -1.1744770313   -2.6621777782    2.8037330719
 H    0.1853338491   -3.7351277775   -0.0224400310
 H   -1.5454809636   -3.4483091857   -0.4175255692
 H   -0.4655793096   -1.8483950224   -2.2032778496