21

 C    0.0563360897    1.5918893567    0.0515303445
 C    0.0012748442    0.0789672604    0.0115598197
 C    1.2702789065   -0.6871108721   -0.2693566946
 C    0.6620925115   -0.7016884833    1.1206381940
 C    0.3502570064   -2.2179746531    1.3685641427
 C    1.5993935606   -2.8414669925    0.6801814226
 C    1.2524064431   -2.1963516283   -0.6932745611
 C   -0.1874008720   -2.6692709573   -0.8299004028
 C   -0.7235830285   -2.6821180958    0.3955262831
 H    1.0036666783    1.9488926032    0.4696699010
 H   -0.0429003774    2.0170740296   -0.9534902630
 H   -0.7522683648    2.0000460816    0.6681863464
 H   -0.9199589363   -0.3247408523   -0.3957584937
 H    2.1752070828   -0.1295976286   -0.4871498278
 H    1.1119905579   -0.1550810724    1.9428073923
 H    0.1830821520   -2.4619469692    2.4178745621
 H    2.5445877849   -2.4790238332    1.0975482012
 H    1.5879026701   -3.9355520047    0.6636793673
 H    1.9114557083   -2.4205206850   -1.5322767393
 H   -0.6908108913   -2.8573748922   -1.7701045135
 H   -1.7542763761   -2.8828562816    0.6604109288