21

 C   -0.0120963445    1.5746433023   -0.0203758651
 C    0.0347624488    0.0396749590    0.0179102309
 C    0.6575277766   -0.5207918189   -1.2716253032
 C    0.9623268305   -2.0166524510   -1.1661454788
 C    1.9762716799   -2.2732704631   -0.0447109972
 C    1.6403802168   -1.5062108807    1.2022268114
 C    0.7648020769   -0.4867596072    1.2544016151
 C    0.4627123940    0.1260987830    2.5060584175
 C    0.1795665002    0.6516733947    3.5535644304
 H    0.9987852109    1.9944118252   -0.0690951140
 H   -0.5615127381    1.9142546888   -0.9045354066
 H   -0.5019631989    1.9822263227    0.8668260735
 H   -1.0042259712   -0.3179906661    0.0831489678
 H   -0.0153700387   -0.3191181457   -2.1126400727
 H    1.5892925812    0.0230103494   -1.4809148932
 H    0.0356170626   -2.5632136327   -0.9492157209
 H    1.3417990051   -2.4031338331   -2.1178788081
 H    2.0307376964   -3.3435567951    0.1915964121
 H    2.9889838390   -1.9994711061   -0.3791793527
 H    2.1316588085   -1.8139481819    2.1214784356
 H   -0.0584675760    1.1084312865    4.4818325480