21

 C   -0.0697084522    1.5761650643    0.1246612297
 C   -0.0188453684    0.0434022163    0.0692353854
 C   -1.3878120140   -0.5705183069    0.0096167616
 O   -2.2392370480   -0.3180294344    1.1399025446
 C   -3.0599281745   -1.3904967169    0.5881724317
 C   -3.6652603374   -0.6891434808   -0.6431341948
 C   -2.2957220951   -0.5189804814   -1.3311798936
 C   -1.8923841093   -1.9958729676   -1.5797142116
 C   -1.7841926267   -2.0678199164   -0.0488406489
 H    0.9358770262    1.9976749525    0.2114524160
 H   -0.5318723315    1.9912551590   -0.7768843073
 H   -0.6565904127    1.9089570674    0.9850857680
 H    0.5554125381   -0.2869276925   -0.8050461590
 H    0.5001337239   -0.3428479683    0.9547833505
 H   -3.7015466427   -1.8751310977    1.3224773887
 H   -4.3597475801   -1.2991113168   -1.2281188781
 H   -4.1495694112    0.2438923174   -0.3486769669
 H   -2.1802644839    0.2486135733   -2.0945315094
 H   -2.6122945348   -2.6347469764   -2.0996087351
 H   -0.9085275884   -2.0998430691   -2.0458551015
 H   -1.2767569872   -2.8508789949    0.5129024099