21

 C   -0.1393882708    1.7599454141    0.0296478908
 C    0.1068787981    0.2480659993    0.0279654595
 C   -1.2321963808   -0.5359188028    0.0225243010
 C   -2.1959990856   -0.1456682902    1.1201074891
 O   -3.3508879126    0.1483063327    0.9420068381
 C    0.9791603235   -0.2145212207   -1.1721841355
 C    1.8387524617   -1.3702817400   -0.6024288620
 O    1.5160910408   -1.4780623421    0.7844182949
 C    1.0027885248   -0.2242069686    1.1936038424
 H    0.8068530423    2.3104949573    0.0108020750
 H   -0.7238280648    2.0648850159   -0.8446563107
 H   -0.6944867966    2.0804691364    0.9182686807
 H   -1.7527435911   -0.4113790094   -0.9318054107
 H   -1.0033763856   -1.6032881304    0.1505640325
 H   -1.7714459762   -0.1560100959    2.1509497336
 H    0.3710269261   -0.5260154401   -2.0250682506
 H    1.6151029913    0.6090834852   -1.5098687946
 H    1.6277513782   -2.3381703882   -1.0665590598
 H    2.9111393160   -1.1627463802   -0.7265373956
 H    1.8135222343    0.5056728537    1.3621083960
 H    0.4799056169   -0.3733356959    2.1421074460