18

 C   -0.1358244801    1.5459089538    0.6449748209
 C   -0.0347558639    0.1387554086    0.0601624532
 C    1.1444901149   -0.2227492907   -0.9106207381
 C    2.1659864917   -0.1317188480    0.2480836599
 C    0.9233154030   -0.9192385131    0.7251306814
 O    0.9838027444   -1.6627983569   -0.5623899963
 C   -1.4690307624   -0.3309679076   -0.2996184531
 N   -1.6021780607   -1.4347318996   -1.0823095621
 O   -2.4328224785    0.3057226162    0.0910700776
 H    0.8221775101    1.9488799501    0.9717839110
 H   -0.5599237763    2.2270626082   -0.0976279865
 H   -0.8253230612    1.5435308079    1.4904648258
 H    1.2633187804    0.0215166411   -1.9667679034
 H    3.0479850858   -0.7554235692    0.1022147353
 H    2.4027059560    0.8328013112    0.6910280411
 H    0.7738800657   -1.5064877449    1.6317608623
 H   -0.8057043323   -2.0424898614   -1.2010416256
 H   -2.5419105966   -1.7732087557   -1.2159588033