13

 O   -0.0414827662    0.0344587988    0.0661193495
 C    0.0056822493    1.2287474099    0.0338254998
 C    1.3431324689    2.0272365295   -0.0102109609
 C    1.3706325940    2.8093398217   -1.2462363699
 C    1.3346005021    3.4216653345   -2.2785455272
 C    1.4278927060    2.8547468774    1.1890208591
 C    1.4531240457    3.5100234621    2.2053606289
 C    1.4885176101    4.2521167967    3.3447076441
 C    1.5197149589    4.9096450422    4.3565825351
 H   -0.8929920484    1.8771719729    0.0309028699
 H    2.1453880309    1.2786552654   -0.0128847597
 H    1.3262077212    3.9718585999   -3.1873875267
 H    1.5475003276    5.4883072191    5.2466547181