14

 C   -0.0143586462    1.4533110731    0.0589767152
 C   -0.0048093312   -0.0259771611   -0.0600048932
 N   -0.1051830368   -0.7369933961   -1.1502307404
 C   -0.0374499871   -2.0251495795   -0.6677391285
 C    0.1013005159   -2.0413957011    0.6968227355
 O    0.1248598091   -0.7367455465    1.1142604635
 C    0.1608486615   -3.3865024250    1.0878809630
 N    0.0612904827   -4.1548495576   -0.0042194743
 N   -0.0593095765   -3.3155141302   -1.0699481054
 H    0.9140370821    1.8141871707    0.5135609877
 H   -0.1215045111    1.8892463423   -0.9341534222
 H   -0.8425819642    1.7885458171    0.6918038504
 H    0.2659930556   -3.8448061969    2.0579071512
 H   -0.1464356138   -3.7066886492   -1.9914444325