17

 C   -0.1411559566    1.6783624999    0.1120680773
 C    0.0459616006    0.1926397959    0.1279596259
 C   -1.1336266018   -0.8434043564   -0.0437733448
 N   -0.5481009657   -2.1070744325   -0.5127171689
 C   -0.4903453945   -1.7555333928    0.9240781792
 C    0.6889277690   -0.7404342671    1.1331195097
 N    1.3270110195   -0.4185908403   -0.1073945769
 C    1.7896990562   -1.2852245033   -1.1005410191
 O    2.5554523148   -2.1909058328   -0.8951780121
 H    0.7538081496    2.1792405237    0.4893386351
 H   -0.3320811952    2.0398273899   -0.9051453540
 H   -0.9939799707    1.9689020879    0.7348798262
 H   -2.1744375593   -0.5911811018   -0.1990368722
 H   -1.2912996055   -2.7903138719   -0.6477678508
 H   -0.9197611023   -2.3956345956    1.6818577507
 H    1.1670545935   -0.5336501889    2.0831084183
 H    1.4784214882   -0.9505043240   -2.1076319135