21

 C   -0.0644698199    1.4928893068    0.0649695357
 C    0.0476506459   -0.0201438314   -0.0262476394
 C    0.7077709194   -0.5520106329   -1.3230953428
 C    0.0811887557   -1.9642211117   -1.4511973380
 C   -1.0605436793   -1.9508425334   -0.3930100501
 C   -0.6656770023   -2.6486675224    0.9190226071
 C    0.3961094000   -1.8382685914    1.6218728990
 C    0.7398273359   -0.6283967800    1.1842697151
 O   -1.2770952329   -0.5654868930   -0.1210101179
 H    0.9296170913    1.9508997888    0.0731692891
 H   -0.6212136119    1.8816296458   -0.7921094275
 H   -0.5867027557    1.7866131491    0.9799754676
 H    0.4246062877    0.0859838552   -2.1662763410
 H    1.7987873729   -0.5735837564   -1.2640310500
 H   -0.3168193219   -2.1315308390   -2.4546183929
 H    0.8053970327   -2.7574353317   -1.2494954628
 H   -1.9979665544   -2.3563117327   -0.7822011606
 H   -1.5450671913   -2.7645437152    1.5675208417
 H   -0.3020768306   -3.6640036236    0.7123909632
 H    0.8706420666   -2.2698189721    2.4995676133
 H    1.5235008721   -0.0492904487    1.6655323612