19

 O   -0.0563444237    1.3919121396   -0.0215221555
 C    0.0237540603   -0.0331112271    0.0473867007
 C   -1.4246326561   -0.5552775819    0.0525666851
 C   -1.4624949941   -2.0733811456   -0.1623680728
 C   -0.6530302881   -2.4552748282   -1.4026145373
 O    0.6798750207   -1.9709142074   -1.3266898070
 C    0.7294387512   -0.5660916261   -1.2268581965
 C    0.7521327542   -0.4501008233    1.2504693438
 C    1.3791818181   -0.7466089624    2.2327405237
 H    0.7984405140    1.7484026985    0.2437808499
 H   -1.9140148892   -0.2657002749    0.9861641943
 H   -1.9451560124   -0.0408232140   -0.7643834935
 H   -1.0397344721   -2.5828920613    0.7105749629
 H   -2.4969886049   -2.4163407429   -0.2746342057
 H   -0.5740715421   -3.5406918956   -1.5088580408
 H   -1.1430061609   -2.0586746937   -2.3091262845
 H    0.2398834768   -0.0833842668   -2.0887721976
 H    1.7864348922   -0.2845684213   -1.2221590636
 H    1.9272172962   -1.0176438057    3.1013873145