18

 C    0.0751753349    1.4924636371    0.0441352248
 C   -0.0313206092   -0.0277893051    0.0822069063
 O    0.6367277126   -0.5841114447    1.2195687637
 C   -1.4731551126   -0.5487712627    0.0248619315
 C   -2.0057860443   -1.1639235599   -1.2708863431
 C   -1.6192195104   -2.0645076730   -0.1459086437
 O   -0.4542151428   -2.8058295638   -0.2707383885
 C   -2.4012720897    0.0970323589    0.9125449519
 N   -3.1209363849    0.6185865140    1.6550693712
 H    1.1256603139    1.7903626216    0.0856880493
 H   -0.3666119065    1.8881871475   -0.8754991087
 H   -0.4522072269    1.9471181325    0.8895880851
 H    0.4995076045   -0.4554995569   -0.7712137556
 H    0.2519994578   -0.1946613368    2.0141001468
 H   -3.0574398874   -1.0342029306   -1.4961616024
 H   -1.3362820302   -1.1217883612   -2.1227148353
 H   -2.4221771218   -2.5361914044    0.4186933296
 H    0.1062819930   -2.5816922926    0.4863611372