17

 C   -0.0191494175    1.5391500296    0.2170351336
 C    1.5559075872    1.3964331083   -0.1834293733
 O    2.4763271198    0.4896881759    0.5465789772
 C    2.1186488283   -0.7084496978   -0.2999236783
 C    0.9845253187   -1.6701183308    0.3526239010
 C    0.4587801159   -0.6869493838    1.3589576702
 C    0.0415076008   -0.0060090160    0.0193162152
 O   -0.2821637887   -1.4351566609   -0.4327861996
 C    1.1744804838    0.1994767407   -1.0092476996
 H   -0.3533640911    1.8938370923    1.1944525406
 H   -0.4596350279    2.1424212606   -0.5837678955
 H    2.0765458778    2.3075196556   -0.4789906893
 H    3.0224459463   -1.1655337621   -0.7022704812
 H    1.1744333207   -2.7316328690    0.5086238455
 H   -0.4599554319   -1.0449131602    1.8266844006
 H    1.1190589919   -0.1895297861    2.0614942305
 H    0.8397697357    0.1719043637   -2.0415028176