23

 C   -0.0084590301    1.5613155420   -0.0253794381
 C   -0.0201917342    0.0494283422   -0.0019043243
 C    0.3152982332   -0.7957556782   -1.3064168750
 C   -0.4056675582   -1.8989947567   -0.4980575020
 C   -0.8190361362   -3.3831691226   -0.4149857206
 C   -0.3589321174   -3.3224393204    1.0927259002
 C    0.5493895563   -2.1202807103    0.6795772346
 C    0.7458767245   -0.6617727639    1.1643419275
 C   -1.3375690357   -0.7753242095    0.0305372542
 H    1.0097908138    1.9490185785   -0.1467837514
 H   -0.6150277468    1.9549932285   -0.8479071174
 H   -0.4068013378    1.9720199100    0.9100647607
 H   -0.2307200950   -0.4006477153   -2.1680451002
 H    1.3647588092   -0.9670716172   -1.5666511657
 H   -1.8606584104   -3.6368909234   -0.6278651968
 H   -0.1663716642   -4.0413194361   -0.9968714574
 H   -1.1818095287   -3.0424724327    1.7544798924
 H    0.1365056920   -4.2059764848    1.5015276979
 H    1.4987604272   -2.5352978198    0.3222237783
 H    1.8011634462   -0.3769353309    1.2253336401
 H    0.2815128162   -0.4244702262    2.1277087730
 H   -1.8386826846   -0.9010985713    0.9951845601
 H   -2.0596023992   -0.4541568119   -0.7261938098