14

 N   -0.3037822927    1.2614114527    0.0646197242
 C   -0.1403975880    0.0176736776   -0.0237591462
 O   -1.2112169691   -0.7915733239    0.2593291879
 C   -1.0350813240   -2.1461816031    0.1029455239
 O   -0.0295938454   -2.6685284442   -0.3021351685
 N   -2.1622731825   -2.7976034307    0.5493427130
 C   -3.4994608943   -2.5929459929    0.0243752778
 C   -2.7704026619   -3.8895157800   -0.1775976181
 H    0.5670437003    1.7382647826   -0.1644126650
 H    0.7521209170   -0.5448557313   -0.2990286253
 H   -4.2873551123   -2.5194918085    0.7674987327
 H   -3.6063967399   -1.9316277289   -0.8304159378
 H   -2.3768962050   -4.1057970508   -1.1667831654
 H   -3.0348724524   -4.7581479785    0.4173142067