12

 O   -0.0231889298   -0.0719796359   -0.0027071043
 C   -0.0138572616    1.1212449204    0.0069764936
 N    1.1922167027    1.8967320565   -0.0001935550
 N    2.3570371604    1.2021261939   -0.0187161126
 C    3.4446336377    1.8990118430   -0.0252535570
 N    3.5517509584    3.2772815465   -0.0154878234
 C    2.4435690570    3.9344580297    0.0020837243
 C    1.1107332756    3.3079534031    0.0120187457
 O    0.0608899947    3.9155853677    0.0283845619
 H   -0.8899827413    1.7810415571    0.0221705757
 H    4.3726245682    1.3398031119   -0.0400335772
 H    2.4585964979    5.0228202561    0.0105616482