19

 O    0.1294492385    1.3295851910   -0.3687613096
 C   -0.0075936224    0.0825124487    0.3001891987
 C   -1.3582228157   -0.4734581581    0.2352330352
 C   -2.4696729389   -0.9317636147    0.1207016968
 C   -3.8247975945   -1.4086745788    0.0489684665
 C   -4.7823056730   -0.6791081635    0.9856151390
 O   -4.8714937348    0.7036140627    0.7094934598
 C   -4.3561887597   -1.8796957789   -1.2956688299
 C   -4.0734862517   -2.8854073667   -0.2189877152
 H   -0.2150039201    1.2159863597   -1.2608188871
 H    0.7073542016   -0.6614208089   -0.0869015534
 H    0.2737057603    0.2742799097    1.3417231243
 H   -5.7920916879   -1.0837258843    0.8598947765
 H   -4.4756198070   -0.8622811128    2.0273404513
 H   -3.9780330924    1.0622725340    0.7691931737
 H   -5.3882303300   -1.6352951360   -1.5217144566
 H   -3.6834005007   -1.8347733193   -2.1435468072
 H   -3.2065875272   -3.5263284877   -0.3249903204
 H   -4.9116904843   -3.3412688460    0.2976613475