15

 C    0.0441472183    1.4546535995    0.0680922588
 C    1.5310646139    1.8468968316   -0.1389976744
 N    2.1527183203    0.5539896402    0.0518429191
 N    3.4487545558    0.1668122293    0.1117478937
 C    3.3597950905   -1.1615593172    0.0601070432
 C    2.0264589220   -1.6356148848   -0.0741419462
 C    1.2851428175   -0.4711658707   -0.0918852537
 N   -0.0049549153    0.0190708727   -0.3109514958
 H   -0.2324924946    1.6007603612    1.1209841427
 H   -0.6319248149    2.0445190701   -0.5544495353
 H    1.7194930731    2.2283481810   -1.1502820899
 H    1.8805627656    2.5841944149    0.5865637294
 H    4.2612371018   -1.7546785694    0.1248852577
 H    1.6827911707   -2.6533639675   -0.1458945974
 H   -0.7469436848   -0.5010210110    0.1375551181