16

 C    0.2389825697    1.3593233933   -0.4041509339
 C   -0.0067867895   -0.0168866766    0.2113177207
 O    0.3461326196   -0.0585050112    1.5966057429
 C   -1.4214651354   -0.4969899337    0.0224446241
 C   -2.3955654456   -0.2717702261   -0.9336057947
 C   -3.4889600628   -1.0660159610   -0.5257065991
 N   -3.2295658581   -1.7326678028    0.5961621408
 N   -1.9694322212   -1.3737823549    0.9015659223
 H    1.2732992285    1.6639424517   -0.2261728763
 H    0.0616199529    1.3428540918   -1.4834902428
 H   -0.4314795864    2.1066155406    0.0346265060
 H    0.6813008392   -0.7364003599   -0.2512005529
 H   -0.1614681700    0.6293039438    2.0438080771
 H   -2.3267919824    0.3676915084   -1.7984034582
 H   -4.4533836151   -1.1733708197   -1.0004884553
 H   -1.5239837534   -1.7239112740    1.7336618893