25

 C   -0.1138586444    1.5702958331   -0.1141273561
 C   -0.1413523576    0.0409597713   -0.1978950631
 C    0.8449868360   -0.5598077431   -1.2193888963
 C    2.3144136817   -0.2897435451   -0.8626799476
 C    0.6001240466   -2.0548763191   -1.3883156203
 C   -0.5047041763   -2.5041863432   -2.3075790699
 C    0.9524561967   -2.6977806283   -2.7043041173
 O    0.8235629349   -2.6900015232   -0.1519737525
 C    0.9921377844   -4.0855260154   -0.1253322643
 H    0.8481655755    1.9457588764    0.2480855167
 H   -0.2993187732    2.0261450360   -1.0940091144
 H   -0.8851025350    1.9363524015    0.5711329874
 H    0.0637952221   -0.3922157364    0.7871855527
 H   -1.1540214972   -0.2838172229   -0.4675651026
 H    0.6376062726   -0.1001827133   -2.1959778090
 H    2.9829008235   -0.7274212980   -1.6112532847
 H    2.5262543372    0.7817948827   -0.8144444856
 H    2.5600300700   -0.7338605062    0.1060638368
 H   -1.0664049080   -3.3956407576   -2.0503751331
 H   -1.0910624145   -1.7449636539   -2.8144318881
 H    1.3720177015   -2.0662515125   -3.4806471885
 H    1.3248960525   -3.7150988143   -2.7199969136
 H    0.1359914653   -4.6275747917   -0.5532324854
 H    1.9049869501   -4.4050717402   -0.6472191946
 H    1.0789990857   -4.3650316965    0.9276750937