15

 C   -0.0409649568    1.3962675573   -0.1236912574
 O   -0.0048494930   -0.0202576123    0.0298080451
 C   -1.1932537217   -0.6420332768    0.0726439391
 C   -1.4090512783   -1.9758446499    0.2120882457
 O   -2.7750044107   -2.1578992089    0.2038594099
 C   -3.2964545109   -0.9237151137    0.0601568100
 C   -4.7756560998   -0.7901207545    0.0158583917
 N   -2.4029436977    0.0189252329   -0.0232849970
 H    1.0016405787    1.7172609607   -0.1370596157
 H   -0.5328288564    1.6823711978   -1.0587388114
 H   -0.5688425624    1.8729377824    0.7083123583
 H   -0.7908677146   -2.8471755014    0.3186471737
 H   -5.1979886677   -1.3594339757   -0.8187075994
 H   -5.2332279204   -1.1673526626    0.9363663742
 H   -5.0342308983    0.2620398648   -0.1044453269