19

 C   -0.1521115341    1.4963231364   -0.4255940559
 C   -0.3787318449   -0.0118192435   -0.4413273644
 C   -1.4853245885   -0.4776389364    0.4842032765
 O   -2.1413562290    0.2820260947    1.1595874509
 C   -1.7839675140   -1.9785572321    0.5050302077
 C   -3.1521403115   -2.2365836274   -0.1672199990
 O   -3.1446819714   -1.7991549717   -1.5261652609
 C   -3.5489569235   -3.6395009038   -0.0533134360
 C   -3.8354320461   -4.8056175991    0.0058415441
 H    0.6461561634    1.7764908487   -1.1184303168
 H   -1.0631098110    2.0275215556   -0.7120882846
 H    0.1221739076    1.8396825205    0.5754249590
 H   -0.6516477510   -0.3717675117   -1.4437515417
 H    0.5363079208   -0.5620302700   -0.1789271911
 H   -1.0106145369   -2.5601416647   -0.0065450772
 H   -1.8340461138   -2.3055072562    1.5481329455
 H   -3.8882355563   -1.6006616198    0.3373802164
 H   -2.7653838369   -2.5079857192   -2.0573530694
 H   -4.1115228328   -5.8295714602    0.0672419170