22

 C    0.0364084237    1.5472834305   -0.1053679903
 C   -0.0309165974    0.0338151526    0.1142278851
 C   -1.4530572827   -0.5447171741    0.0384391207
 C   -2.1683716082   -0.5391399679   -1.3597359705
 C   -2.6604934738   -1.9881121910   -1.0954883740
 C   -2.6384778926   -2.9893929370   -2.2384202382
 C   -1.5925515818   -2.1074389479    0.0256458469
 C   -2.3051521407    0.0459778572    1.0695051263
 N   -2.9747934891    0.5143968614    1.8884970474
 H    1.0711002626    1.8988015171   -0.0592718448
 H   -0.3669621088    1.8249242801   -1.0849510706
 H   -0.5366478369    2.0828972479    0.6573420490
 H    0.5704693977   -0.4820738705   -0.6437168768
 H    0.4034906536   -0.2236264183    1.0877638991
 H   -2.9158279751    0.2349775238   -1.5400342565
 H   -1.4179735357   -0.5042826093   -2.1562831738
 H   -3.6582353601   -1.9568592768   -0.6455341885
 H   -1.6468805288   -3.0355271413   -2.7034114085
 H   -2.8901610690   -3.9964491937   -1.8882482166
 H   -3.3599836363   -2.7187780989   -3.0171089795
 H   -0.6647730632   -2.5576296925   -0.3416388263
 H   -1.8769796474   -2.5910304113    0.9616886004