15

 O   -0.1766968975    0.2549979344    0.8213113273
 C   -0.1165120717    1.3190174189    0.2760483986
 O   -1.2243683962    2.0655077908   -0.0320870983
 C   -0.8596035659    3.3882013255   -0.4437593740
 C    0.6774204031    3.4142785188   -0.3754560149
 C    1.4421204450    3.8345854423    0.9107212137
 C    1.9987579651    2.3813357170    0.9479589958
 N    1.0349891655    1.9993411650   -0.1297393776
 H   -1.2289546742    3.5511471378   -1.4604319541
 H   -1.3348718180    4.1130932833    0.2255790088
 H    1.1212505687    3.8106571216   -1.2926384989
 H    2.1687215532    4.6418093055    0.8054288074
 H    0.7760366132    4.0565258622    1.7490885750
 H    3.0323056249    2.2877958964    0.6068282832
 H    1.8648940747    1.8046767707    1.8652534678