23

 C   -0.0156001669    1.5512392164   -0.2614811718
 C   -0.0775839065    0.0232540707   -0.2066756473
 C   -1.4209940366   -0.5004347412    0.3273614418
 C   -1.4804395266   -1.9953120891    0.3816347161
 C   -0.7730393792   -2.9515159027    1.3615466665
 C   -1.9197706647   -3.9890089495    1.1061778876
 C   -2.5606690147   -2.9778924797    0.1381444211
 C   -3.9988518676   -2.8447278647   -0.2446927070
 O   -1.5660978886   -2.7109072707   -0.8678972116
 H    0.9480638081    1.8970974448   -0.6480116087
 H   -0.7994577065    1.9562341779   -0.9113222878
 H   -0.1525724768    1.9907754634    0.7331198693
 H    0.0879047788   -0.3956313969   -1.2058494806
 H    0.7358502056   -0.3561701482    0.4247556380
 H   -1.5992052254   -0.0997410023    1.3345188962
 H   -2.2357705907   -0.1351793564   -0.3095621489
 H    0.2354471815   -3.2526339140    1.0680869567
 H   -0.7589806349   -2.5841532158    2.3911196407
 H   -1.6320879940   -4.9411390445    0.6532218996
 H   -2.5228468071   -4.1776616675    1.9983057524
 H   -4.6383270119   -2.8249286546    0.6439623482
 H   -4.1641543700   -1.9281494471   -0.8174583000
 H   -4.3136780753   -3.6916468082   -0.8655290903