15

 O   -0.1757752107    0.2678528886    1.0271478616
 C   -0.1079823169    1.2810170497    0.3583193880
 C   -1.2934346424    1.7728715253   -0.4671144612
 C   -1.2750560551    3.2431999364   -0.7972967122
 O   -0.9571732829    4.1344654076    0.2816567908
 C   -0.0081075525    3.9769245662   -0.7710199853
 C    1.2748240581    3.2567824216   -0.4301694644
 N    1.0419901540    2.0161764959    0.2844058883
 H   -1.3133108623    1.1962219641   -1.4013278183
 H   -2.1974225498    1.5011188263    0.0851893395
 H   -2.0758030269    3.5983254260   -1.4459273042
 H    0.1230329535    4.8506782318   -1.4090706782
 H    1.8248076833    3.0854898271   -1.3691536651
 H    1.9027983793    3.9090611100    0.1893284979
 H    1.7887666613    1.6515898934    0.8571235929