15

 C   -0.0094396356    1.5245338759   -0.0063852346
 N    1.2389684876    0.7719121821    0.1689304624
 C   -0.0258213359    0.0302820182    0.0133824127
 C   -0.4535466300   -0.7349920651    1.2011763459
 C   -1.5172661432   -1.5846407969    1.4456404339
 C   -1.3622881026   -1.9667656735    2.7953102358
 N   -0.2902070614   -1.4083068176    3.3527283150
 N    0.2384854931   -0.6636721003    2.3644419111
 H   -0.3410134181    2.0694648647    0.8723230835
 H   -0.1942804641    2.0224453548   -0.9545420345
 H    1.7758834071    0.7522746518   -0.6926952575
 H   -0.2204649058   -0.4563358923   -0.9390692638
 H   -2.2891445443   -1.8772236513    0.7522080606
 H   -1.9860958422   -2.6268065276    3.3803574121
 H    1.0999130354   -0.1580839829    2.4956347874