21

 C   -0.0756302416    1.5626561147    0.0435595624
 C    0.1069815540    0.0487248801   -0.0466866827
 C    1.0547482009   -0.4281134464   -1.1712970601
 C    1.4070465244   -1.8765872566   -0.7780830083
 C    1.4844642602   -1.8615377725    0.7584865451
 O    1.0791767438   -3.0556652772    1.3813453187
 C    2.7195840677   -1.1479935596    1.3589833022
 O    1.9557486384    0.0510652145    1.6043992211
 C    0.7167040416   -0.5893524211    1.2024858227
 H    0.8756179823    2.0439154468    0.2875345210
 H   -0.4370523513    1.9726982935   -0.9051171707
 H   -0.7986726550    1.8319145806    0.8206600743
 H   -0.8721917458   -0.4297009140   -0.1956428233
 H    0.6033548415   -0.3578887795   -2.1647781033
 H    1.9552743892    0.1965262297   -1.1773543779
 H    0.5924586066   -2.5530314977   -1.0632036237
 H    2.3269576990   -2.2417977630   -1.2478141961
 H    1.5268780048   -3.7906800598    0.9493086802
 H    3.0673197391   -1.6128441614    2.2899579199
 H    3.5723958550   -0.9645597793    0.6925753086
 H    0.0285581652   -0.7004400120    2.0471130199