20

 C   -0.3136277583    1.4455722145    0.3676642352
 N   -0.1045876921    0.0066756331    0.3711108046
 C    1.0925357410   -0.5158687332   -0.2894317578
 C    0.9557769776   -0.6011730846    1.1854962201
 C    1.7835188928    0.1929829551    2.1975585253
 C    1.3416977202   -0.4072607133    3.5155783079
 C    0.6277212728   -1.5188787271    3.3522579137
 C    0.4897305296   -1.8992549690    1.8921750227
 O   -0.7940272587   -2.3100943662    1.4895145647
 H    0.6168652701    2.0331941409    0.3507506261
 H   -0.8940345330    1.7113551172   -0.5212604191
 H   -0.8906591674    1.7358423757    1.2512413074
 H    0.9464367279   -1.3995424298   -0.9064243038
 H    1.7968172742    0.2124880090   -0.6908968523
 H    2.8597278356    0.0460260116    2.0316190914
 H    1.6117196188    1.2734720334    2.1425986428
 H    1.6188854727    0.0318536556    4.4677088388
 H    0.2151582684   -2.1373457196    4.1405961841
 H    1.1859527281   -2.7220736711    1.6613373453
 H   -1.1583338002   -1.5375551722    1.0218057628