10

 N   -0.0044639157    1.3323051235    0.1305914203
 C   -0.0505799984   -0.0112569746    0.0486839405
 N   -1.1083728980   -0.7807845115    0.0408880116
 C   -0.5241636847   -2.0192759620   -0.0017503343
 N    0.7877514785   -2.0470461517   -0.0239595848
 O    1.1133024623   -0.6791655734    0.0102707482
 C   -1.2780838591   -3.2327436655   -0.0250385523
 N   -1.8975704003   -4.2075295273   -0.0443521448
 H    0.8547136452    1.7965940864   -0.1125362920
 H   -0.8647147198    1.8254367861   -0.0419044023