16

 C   -0.0506281696    1.5353023598   -0.0213421138
 C   -0.0136342668    0.0342268148   -0.0091844417
 C   -0.0143286727   -0.7046479592   -1.1329786594
 O    0.0083891077   -2.0393130641   -1.1551130419
 C    0.0327602738   -2.7682287814    0.0797508027
 N    0.0478437878   -4.0333073403    0.0205171885
 N    0.0439859195   -2.0542400692    1.2408408946
 C    0.0161876559   -0.7515705929    1.2174876891
 N   -0.0167146220   -0.0994357637    2.4096477390
 H    0.8396361094    1.9741065326    0.4481791852
 H   -0.0920056226    1.9122718835   -1.0469303038
 H   -0.9277315728    1.9254062269    0.5091968595
 H   -0.0349783929   -0.2789206851   -2.1320971929
 H    0.0385725325   -4.3378354531   -0.9513229586
 H    0.1281885017   -0.6610631025    3.2336762139
 H    0.1908574911    0.8814415440    2.4635486997