16

 O   -0.0613155929    1.4092789507   -0.0474176959
 C   -0.0172158682    0.0306338825    0.0026134248
 C    0.3536120584   -0.8105160679    1.2801985821
 C   -0.3769008066   -1.9258183574    0.4487855949
 C   -1.3426635968   -0.7819646942   -0.0314967878
 C    0.5543621968   -2.0326717085   -0.7554187351
 C    0.8025756748   -0.7503952795   -1.0656127928
 C    1.6018194211   -0.1486698680   -2.0548229098
 N    2.2519072592    0.4159726532   -2.8323278411
 H    0.8213306774    1.7546802928   -0.2246032429
 H    1.4106708689   -0.9610164767    1.5102354008
 H   -0.2074932348   -0.4968068392    2.1642609546
 H   -0.7446182004   -2.8408898634    0.9046628307
 H   -2.0483632221   -0.4668545494    0.7413948598
 H   -1.8374395630   -0.9029714161   -0.9969628406
 H    0.9210244482   -2.9334266791   -1.2262931717