22

 C    0.0578723008    1.5470614122   -0.0479168586
 C    0.0056000091    0.0222487866    0.0520940757
 O    0.7011921384   -0.4422117431    1.2086801529
 C   -1.4212507414   -0.5256047568    0.0239708822
 C   -2.1152940095   -0.4807162526   -1.3759176535
 C   -2.1455929531   -2.0215755196   -1.3873093150
 C   -1.4786236137   -2.0680016785   -0.0297116223
 N   -2.8078489981   -2.5946449379   -0.2388276692
 C   -4.0007171134   -2.0221406077    0.3634473155
 H    1.0946257506    1.8924489413   -0.0130397766
 H   -0.3974753067    1.9055453849   -0.9763835865
 H   -0.4846135601    2.0072053317    0.7877363682
 H    0.5630834860   -0.4137252944   -0.7871244555
 H    0.2680756902   -0.0616618577    1.9811542175
 H   -1.9890379030   -0.0708454649    0.8475621612
 H   -3.0776492730    0.0345009316   -1.4492709370
 H   -1.4509079947   -0.0813883486   -2.1471434568
 H   -1.9965917771   -2.6476665772   -2.2609222980
 H   -0.7075383075   -2.7248475044    0.3568724437
 H   -4.0311323887   -0.9238185871    0.4019820308
 H   -4.8750452990   -2.3637044858   -0.1995537616
 H   -4.0911226361   -2.3985004821    1.3873348128