12

 O   -0.0810924679    1.4474028734   -0.1530965713
 C    0.0297452680    0.0719107147    0.0083261313
 C    0.2509171696   -0.5721026332    1.4295807340
 O    1.1318226279   -0.5196649539    2.2289642937
 C   -1.0590569541   -1.3503892346    1.2988705730
 O   -2.0427658311   -0.3140009474    1.1311889056
 C   -1.3024997736   -0.6920789242   -0.0240837093
 C   -1.9917187142   -1.2124623971   -1.1636205279
 N   -2.5159139352   -1.6213394809   -2.1090563749
 H    0.7681974925    1.8503747428    0.0589834690
 H    0.7548354404   -0.3932620106   -0.6807813566
 H   -1.3892800926   -2.3156174689    1.6630412336