16

 O    0.5402481582   -0.2204238789   -0.2828116088
 C    0.2595897414    0.9427084023   -0.3756438175
 C    1.2191613066    2.0731968066   -0.0095182089
 C    1.1697811457    3.1888694256   -1.0408218851
 O    0.1199343652    3.6903029997   -1.3783248871
 C    2.4925358893    3.6172592180   -1.6445519690
 N    2.2872337915    4.6774026445   -2.5933744731
 C    3.3221824343    5.3737152964   -3.1273002994
 O    4.4909752895    5.1446203620   -2.8962053888
 H   -0.7301097639    1.2918229201   -0.7342859620
 H    0.8567884486    2.4994202443    0.9362541549
 H    2.2216961236    1.6708009627    0.1485770312
 H    3.1775067193    3.9270417968   -0.8426074694
 H    2.9661949677    2.7351693804   -2.1029819448
 H    1.3270395452    4.9374615629   -2.7691617826
 H    2.9783451878    6.1786159265   -3.8052470595