17

 C   -0.1260828444    1.4787350501   -0.0188760145
 C   -0.0352793168    0.0275434117   -0.0157984935
 C    0.0431279453   -1.1773581029   -0.0130567674
 C    0.1336689324   -2.5839188989   -0.0095873326
 C    1.2343994013   -3.4378950889   -0.0095915138
 C    2.6787958798   -3.0488772498   -0.0118709044
 C    0.6641619207   -4.7286661129   -0.0058024001
 N   -0.6674595581   -4.6995454062   -0.0036243587
 N   -0.9685452578   -3.3947850993   -0.0057580097
 H    0.8711115900    1.9319965715   -0.0208949745
 H   -0.6583497855    1.8445682096   -0.9041955322
 H   -0.6564527749    1.8483604471    0.8660084956
 H    3.1975583834   -3.4123273400    0.8824534638
 H    3.2066670100   -3.4594946338   -0.8798369395
 H    2.7851410600   -1.9613334289   -0.0398078430
 H    1.1763289955   -5.6804391466   -0.0049303178
 H   -1.9312812909   -3.1026919518   -0.0055405475