19

 O    0.0901634994    1.1450023228    0.4806459019
 C   -0.1144197225   -0.2225872380    0.1925198239
 C   -1.6003864999   -0.5282853799   -0.1363454254
 C   -1.8748994840   -2.0550697526   -0.1272922351
 C   -2.2732527958   -2.3218144157    1.3328069659
 C   -3.0689869832   -1.0583539361    1.6981347798
 N   -2.5059468319    0.0261549076    0.8753738729
 C   -1.8823345897    0.0773338901   -1.4572160232
 N   -2.0412817410    0.5779482247   -2.4874523183
 H   -0.0420072814    1.6456813506   -0.3335905466
 H    0.5267535944   -0.5710173098   -0.6296401419
 H    0.1603604047   -0.7687587124    1.0998179272
 H   -2.7036336319   -2.2862580857   -0.8019251917
 H   -1.0042809493   -2.6246518846   -0.4625127910
 H   -2.8526700663   -3.2412801984    1.4459762838
 H   -1.3820264299   -2.4123096199    1.9627795152
 H   -4.1317847090   -1.1951466875    1.4573777483
 H   -3.0098943710   -0.8120589398    2.7624020765
 H   -2.0298600616    0.7464212545    1.4035900777