17

 C   -0.1399167028   -1.1867221979    0.0333946975
 C   -0.0390449463    0.0035361019    0.1663525903
 C    0.1116706881    1.4457859581    0.3065289785
 C    1.3418333920    1.9925285931   -0.4515425551
 C    1.4468438937    3.4894089467   -0.3135692317
 O    1.8077823293    3.9989858980    0.9705077306
 C    2.7312585350    4.1993583124   -0.1139188752
 C    3.9942920031    3.5142654120   -0.0517393594
 C    5.0671319874    2.9729873773   -0.0197375064
 H   -0.2406587460   -2.2380446741   -0.0748453015
 H   -0.7967172081    1.9457046406   -0.0550788205
 H    0.2066067302    1.7105560132    1.3663828706
 H    2.2495347553    1.5203475604   -0.0679908067
 H    1.2626127221    1.7353690915   -1.5139400381
 H    0.6536681672    4.0618571303   -0.8009000305
 H    2.7905286425    5.2335324089   -0.4527879830
 H    6.0124311272    2.4896956276    0.0154656707