19

 C    0.0494406893    1.5532513133   -0.0662295957
 C   -0.0069352529    0.0215109445   -0.0362242451
 C    0.8458201268   -0.5659798275   -1.1672652506
 C    1.6035882235   -1.5797654601   -0.7031814651
 C    3.0172416258   -1.2140963961   -0.2134642593
 C    2.2713057938   -1.0632791630    1.1623106008
 C    0.7102051221   -0.6491208288    1.1561557571
 C    1.1626359836   -1.9777275427    0.7316704190
 O    0.6913021603   -3.1876319010    1.1917399248
 H    1.0851962251    1.9080953797   -0.0926901294
 H   -0.4716425055    1.9546515841   -0.9414972590
 H   -0.4243319908    1.9692252094    0.8290239224
 H   -1.0629041992   -0.2868807548   -0.0230625671
 H    1.1828551461    0.0912146650   -1.9666824004
 H    3.7507822319   -2.0262236813   -0.1404939866
 H    3.4787952033   -0.3377145785   -0.6769819077
 H    2.7711316212   -1.0355351603    2.1277942521
 H    0.3371551888   -0.5091671302    2.1700026219
 H    1.3301090370   -3.8715919015    0.9606775976