23

 C   -0.0178616587    1.6497545226    0.2093893348
 C   -0.0102989611    0.1292134257    0.0306038397
 C   -1.4126285263   -0.4880369358    0.1078612341
 C   -1.4356250465   -2.0064104715   -0.0432042849
 C   -2.7901559175   -2.7107981331    0.1186516950
 O   -3.6260746192   -2.3098894480   -0.9769390543
 C   -2.6775626548   -3.3643940980   -1.1910530074
 C   -1.3184765024   -2.7043627078   -1.4752503912
 C   -1.2286478441   -1.8685870033   -2.7454460412
 H    0.9935678671    2.0648521948    0.1564116556
 H   -0.6188936128    2.1363236544   -0.5667819363
 H   -0.4433169691    1.9314892225    1.1791676588
 H    0.4538294254   -0.1228718627   -0.9306584010
 H    0.6261193360   -0.3271940944    0.8008675402
 H   -1.8557719647   -0.2333265103    1.0815219306
 H   -2.0660136786   -0.0341526049   -0.6453974212
 H   -0.6994075124   -2.4580162145    0.6321367575
 H   -3.2912040159   -3.0271392938    1.0272019916
 H   -3.0679399783   -4.3123669723   -1.5447029948
 H   -0.5159811383   -3.4485373724   -1.4501720483
 H   -2.0631177336   -1.1658232267   -2.8090131807
 H   -0.2938556294   -1.3019710327   -2.7945004113
 H   -1.2677323646   -2.5151802877   -3.6295535454