19

 C    0.0872455606    1.5914769355    0.0481122649
 C    0.0962325356    0.0700190176   -0.0090003466
 C    0.8088482214   -0.6722779686   -1.1493397289
 C    2.3045845995   -0.7469819420   -0.8066075871
 C    1.2766684044   -1.7582059770   -0.2440403337
 C    1.0331105665   -0.7356136091    0.9528079478
 C    0.6768992837   -1.0336670473    2.3820645778
 C    2.4436118768   -0.2209626483    0.5838453362
 O    3.3610570974    0.1845025542    1.2442485187
 H    1.0956022380    2.0050416220   -0.0543972993
 H   -0.5302754588    2.0075044828   -0.7551096430
 H   -0.3247389380    1.9469048414    0.9987790262
 H   -0.9224965913   -0.3255384875    0.0803829249
 H    0.5055815607   -0.7552539133   -2.1861539667
 H    3.0636723184   -0.9194682883   -1.5568491303
 H    1.3119280650   -2.8352653323   -0.2978646315
 H    1.4524756399   -1.6360823266    2.8653432768
 H    0.5860435035   -0.1027150028    2.9517979929
 H   -0.2749377633   -1.5694919706    2.4570594909