15

 N   -0.3933060174    1.2352299107   -0.9034741786
 C   -0.2443493614    0.0126560510   -0.1156201537
 C   -1.5470033794   -0.5230693862    0.2675080156
 C   -2.6150469073   -1.0010558906    0.5666793611
 C   -3.8252723368   -1.5358254985    0.9046817548
 N   -4.8539628610   -1.9937315685    1.1898366125
 C    0.5957425811   -1.1023179868   -0.7679067815
 C    0.6502920835   -1.3025681946   -2.2169863697
 O    1.7145659152   -0.6421653387   -1.5151533327
 H    0.5148301241    1.4617001110   -1.3022017532
 H   -1.0347851790    1.0834837155   -1.6756525707
 H    0.2839659326    0.2879248045    0.8100173772
 H    0.7978937894   -1.9518058993   -0.1147839749
 H    0.8943013480   -2.2856682809   -2.6133688216
 H    0.0682739483   -0.6627512889   -2.8765570147