17

 O    0.0188835396    0.0539073466    0.0694026475
 C   -0.0381331679    1.2529849856    0.0530101837
 C   -1.2326518652    2.1923328457   -0.0291235627
 C   -0.8157363344    3.2552222499    1.0466208467
 C    0.3331472208    3.5619197809    0.0384317344
 C   -0.7000058302    3.2278784045   -1.0819429406
 C    1.1163601903    2.2616889719    0.1020248893
 C    2.4199519518    1.9963504889    0.7117399073
 O    2.2609008404    2.0337226214   -0.7106455475
 H   -2.2214984217    1.7429148790   -0.0768280449
 H   -1.5419328139    4.0683123332    1.1084427833
 H   -0.5519656125    2.9045607708    2.0481496649
 H    0.8989492947    4.4916903957    0.0556799478
 H   -0.3224569495    2.8513621349   -2.0355616546
 H   -1.4162929908    4.0357353022   -1.2457489305
 H    2.9860459864    2.8218332314    1.1414773595
 H    2.6182781920    1.0102929274    1.1281734065