19

 O   -0.1643693977    1.3446747725   -0.0555800213
 C   -0.0418998456   -0.0662538748    0.0194486818
 C    0.6341079614   -0.6421826925   -1.2347219964
 C   -0.1130261902   -0.2650723885   -2.5235041235
 C    0.6835502229   -0.6010652124   -3.7605463075
 O    0.2988170255   -1.2871621466   -4.6716309881
 C    0.6957750468   -0.5132324800    1.3007402449
 C    0.0679098051   -0.0418546204    2.5275955133
 C   -0.4581881464    0.3410660778    3.5374647793
 H    0.7114962023    1.7308041743    0.0598068776
 H   -1.0744051472   -0.4306241466    0.0708521372
 H    1.6674821596   -0.2667283198   -1.2811156699
 H    0.7029123937   -1.7330601200   -1.1458842349
 H   -1.0866374792   -0.7597379685   -2.5852459529
 H   -0.2794065669    0.8206845385   -2.5096653598
 H    1.7059616013   -0.1510987005   -3.7774978944
 H    0.7559217828   -1.6089477510    1.3112545584
 H    1.7353234720   -0.1557513192    1.2522276951
 H   -0.9232238001    0.6822316378    4.4289066710