18

 C   -0.0734946356    1.6151918622   -0.0694673844
 C   -0.2171358612    0.1240391622   -0.2738121929
 C   -0.0562740103   -0.8111138639    0.8954355235
 C   -1.4212188992   -0.5833961698    0.2988437251
 N    1.3134070770    2.0588462682   -0.0218842450
 C    2.0702004701    2.6163482930   -0.9888668035
 N    3.3003080709    2.8279100280   -0.5562028237
 C    3.2402322282    2.3642685192    0.7213864494
 N    2.0629252730    1.8879744709    1.0951680965
 H   -0.5593575042    2.1697441160   -0.8788973094
 H   -0.5420908705    1.9172971685    0.8714820867
 H    0.1450168450   -0.2295511088   -1.2351692152
 H    0.4308944458   -1.7632125194    0.7196350950
 H    0.1653831081   -0.3690405475    1.8599380716
 H   -2.1333693780    0.0064247429    0.8670551670
 H   -1.8727628992   -1.3757254962   -0.2871260973
 H    1.6854744668    2.8509430508   -1.9703917391
 H    4.0823519134    2.3840834536    1.3971136956