14

 O   -0.0481164480    1.4291795819   -0.0561162056
 C    0.0305673697    0.0585802283   -0.0058958575
 C   -1.0024868728   -1.0338900625    0.0166955445
 O   -0.4062637149   -1.7793050647   -1.0411774268
 C    0.7696024731   -0.9119236965   -0.9779437109
 C    1.7915635960   -1.6100297899   -0.0969723129
 O    1.1209841133   -1.7614555882    1.1657944467
 C    0.0219956331   -0.8838484159    1.1563368818
 H    0.5895667954    1.7988638500    0.5651359729
 H   -2.0798179200   -1.0544266839    0.1306348236
 H    1.0952034788   -0.5637899040   -1.9584563878
 H    2.0585691818   -2.6032700354   -0.4683400673
 H    2.7055597900   -1.0045128956    0.0172025845
 H   -0.3254880854   -0.5839722135    2.1381960548