23

 C   -0.0513196570    1.6050989190    0.0044889021
 C   -0.0304208231    0.0737100125   -0.0339433333
 C    0.7495384441   -0.5107152223   -1.2158685720
 C    2.2593018618   -0.2055878401   -1.2310699239
 C    2.8293988783   -1.2581364038   -2.1903005837
 C    2.0633322276   -2.5557810020   -1.8220798084
 C    0.6800339319   -2.0605997188   -1.2937932461
 C    1.9207809216   -3.4754778109   -3.0089157968
 O    2.3798628168   -4.5841186429   -3.1016147189
 H    0.9570698897    2.0191163687    0.1053413981
 H   -0.4882568314    2.0173869882   -0.9120812916
 H   -0.6446935956    1.9705934378    0.8482162388
 H    0.4004680803   -0.3133453614    0.8999597608
 H   -1.0619068981   -0.3002477919   -0.0691061626
 H    0.3210570699   -0.1021443257   -2.1421773810
 H    2.4909455984    0.8172535724   -1.5410134763
 H    2.6794870394   -0.3476846945   -0.2260333963
 H    2.6015600412   -0.9719092119   -3.2261870980
 H    3.9126599922   -1.3849263254   -2.1206699892
 H    2.6023861427   -3.1032141073   -1.0446504029
 H    0.4873514592   -2.4936024130   -0.3073582164
 H   -0.1424994516   -2.3865828286   -1.9403950401
 H    1.3280288116   -3.0283169781   -3.8458253023