19

 O   -0.1279791432    1.4184423982    0.0137729484
 C   -0.0379665226   -0.0021075771    0.0054783088
 C   -1.4452820507   -0.5492775094    0.0100689282
 C   -2.3123936104   -0.1860834129   -1.2168424148
 O   -3.4104290090   -1.1214276356   -1.1453404068
 C   -3.1588505764   -1.8994918645    0.0120150149
 C   -1.6394857549   -2.0820359886    0.0028534587
 O   -3.3979150393   -1.1339709567    1.1803287973
 C   -2.2991307303   -0.1993707050    1.2500775320
 H    0.7632399448    1.7794863146    0.0112341657
 H    0.4968651883   -0.3616987944   -0.8880295921
 H    0.5064549576   -0.3714808925    0.8891465810
 H   -2.6921942262    0.8388607939   -1.1768074425
 H   -1.7704797648   -0.3262737956   -2.1616781965
 H   -3.8197180759   -2.7644778544    0.0109027863
 H   -1.2694735492   -2.5725398726   -0.9002619194
 H   -1.2597982944   -2.5822186412    0.8965955945
 H   -1.7470982348   -0.3496775337    2.1874699843
 H   -2.6792895986    0.8259178275    1.2251550821