17

 C   -0.0366062274    1.4838980198   -0.0225642100
 C    0.0414625398   -0.0121149540   -0.0983141879
 C    0.6107588414   -0.9449390908   -1.1916108102
 C    0.0929822292   -1.9415871352   -0.1358969902
 C    0.4664570647   -0.9974611049    1.0436624542
 O   -0.8470844625   -1.0394781691    1.6765426798
 C   -1.1294925985   -1.0330512093    0.2574398988
 C   -2.5181326520   -1.0636798028   -0.2595117757
 O   -3.5069639215   -1.0474284898    0.4272319592
 H    0.9649059818    1.9272454720   -0.0420236777
 H   -0.6024145120    1.8990758389   -0.8628841319
 H   -0.5285717014    1.7853693341    0.9076284415
 H    0.1037615107   -0.9394030927   -2.1602227205
 H    1.6948217476   -0.9131256959   -1.3352592423
 H    0.0988552083   -3.0309209556   -0.1298516976
 H    1.3503625185   -0.9897373195    1.6812340949
 H   -2.5723770266   -1.0974006751   -1.3720554744