18

 C    0.8905588846    0.9954249252   -0.3397587241
 C    0.2594749140   -0.3744464209   -0.0848097205
 C   -1.2622388919   -0.3030671423    0.0995827722
 O   -1.8062479013    0.2020118823   -1.1214344961
 C   -3.1868049667    0.4758329657   -1.0535928814
 C   -3.6216870167    1.0343301348   -2.3361216271
 N   -3.9956348614    1.4778814356   -3.3341852983
 C   -1.8374336692   -1.6069066077    0.4492217390
 C   -2.3105585752   -2.6756377113    0.7302914383
 H    1.9713108794    0.9001787529   -0.4767837757
 H    0.4705575714    1.4574957808   -1.2359716872
 H    0.7200543718    1.6738204876    0.5037674710
 H    0.4634749833   -1.0560537935   -0.9171462411
 H    0.6807583763   -0.8342086177    0.8152705818
 H   -1.4917877063    0.4092534742    0.9113418657
 H   -3.7688387263   -0.4337638654   -0.8447037352
 H   -3.4146663483    1.2032480204   -0.2574181146
 H   -2.7241325376   -3.6215222108    0.9817399633