25

 C    0.1127491157    1.6525565286    0.0028941568
 C    0.0161911824    0.1204883140   -0.0122619493
 C    0.5342860559   -0.4595165884   -1.3415045971
 C   -0.0337294255   -1.8404137158   -1.6923129239
 O    0.4390411591   -2.9206825893   -0.9172958175
 C    0.1169701198   -2.8986246533    0.4717301809
 C    0.2430103593   -4.3411756551    0.9538843842
 C    1.0647298063   -1.9578806927    1.2370767215
 C    0.7102108854   -0.4559662779    1.2420485664
 H    1.1511621688    1.9797092506   -0.1284279132
 H   -0.4817554646    2.0978930474   -0.8016730878
 H   -0.2453846008    2.0646951250    0.9525375338
 H   -1.0511599193   -0.1373472185    0.0469654422
 H    0.2432344185    0.2156970110   -2.1575425770
 H    1.6313601422   -0.4988566083   -1.3496477008
 H   -1.1366269524   -1.7923598044   -1.6432350712
 H    0.2345815945   -2.0947839182   -2.7234193458
 H   -0.9293958367   -2.5717084417    0.5972101618
 H    1.2788156532   -4.6835061885    0.8596771268
 H   -0.0558148980   -4.4282742553    2.0027443898
 H   -0.3890782747   -4.9989089279    0.3517764709
 H    1.1403419882   -2.2946917814    2.2776252780
 H    2.0555413847   -2.1128045844    0.7945444477
 H    1.6350748056    0.1082588897    1.4210249115
 H    0.0657259026   -0.2387252052    2.1031155410