19

 O    0.7124791870   -0.4382114425   -0.0194610436
 C    0.3610627091    0.7155240436   -0.0107108393
 C    1.2981327628    1.8949980002   -0.0247709003
 C    0.8795178642    3.0634833586   -0.9723520400
 C    0.8228697561    4.0506788273    0.2236028098
 C   -0.5813747488    4.4451183119    0.6925448630
 O   -1.0954358955    3.3023478504    1.3724884690
 C   -0.0046517042    2.7708451228    2.1171684358
 C    1.2133290621    2.8844018487    1.1959776560
 H   -0.7181502372    0.9872978983    0.0011168516
 H    2.3102886990    1.5229442818   -0.1914082172
 H    1.6243007221    3.2999762452   -1.7341655296
 H   -0.0841274161    2.9115753924   -1.4696000509
 H    1.5015908187    4.9022255148    0.1626002280
 H   -0.5306597226    5.3067504701    1.3780716891
 H   -1.2705871126    4.6874278248   -0.1213389421
 H    0.1652432317    3.3658547670    3.0295827628
 H   -0.2640929607    1.7518196420    2.4161597035
 H    2.1489530249    2.9738852826    1.7487280042