21

 C   -0.2163908427    1.5792366719    0.8115748416
 O   -0.1896498679    0.1930572597    1.0535471332
 C    0.6150024581   -0.5092462798    0.1338418338
 C    0.5556783386   -1.9961992327    0.4794375156
 C   -0.8600334104   -2.5591375283    0.3597482390
 O    1.4746163886   -2.6137431029   -0.4152353918
 C    1.8692530923   -3.9178311095   -0.0365068906
 C    2.9232684995   -4.3904191957   -0.9256831055
 C    3.7903727019   -4.8067986732   -1.6444236771
 H   -0.6235473224    1.8119105402   -0.1850798884
 H   -0.8587879114    2.0320808197    1.5706928750
 H    0.7880843808    2.0253081605    0.8829515647
 H    0.2615389433   -0.3566173891   -0.8998701751
 H    1.6613489275   -0.1696171623    0.1797494507
 H    0.9119486474   -2.1168872223    1.5159515768
 H   -1.1935647491   -2.5148557886   -0.6822634964
 H   -0.9187672455   -3.5975444986    0.6981764762
 H   -1.5403140003   -1.9620611651    0.9717279219
 H    2.2354590022   -3.9204548993    1.0046276055
 H    1.0223609133   -4.6209264350   -0.0748472947
 H    4.5578170263   -5.1689216197   -2.2827771443