21

 C   -0.2461798132    1.5109549595    0.1004425430
 C    0.1129212672    0.0265773491   -0.0492355223
 C    0.8322364253   -0.5271881730    1.1513766493
 C    2.3004581302   -0.2219066767    1.5113026225
 C    2.4668058918   -1.6965092152    2.0036742037
 C    0.9968108363   -1.9519969856    1.6491005866
 C    0.0550523639   -1.0001994696    2.3800092182
 C    0.2538827672   -0.5042413286    3.7595983826
 O   -0.6520352740   -0.3000758053    4.5348075586
 H    0.6498607873    2.1206491531    0.2579971676
 H   -0.7506134627    1.8856431213   -0.7951330450
 H   -0.9108435801    1.6688793142    0.9557226961
 H   -0.7972408553   -0.5590225147   -0.2279899676
 H    0.7464752518   -0.1104077340   -0.9362536851
 H    2.8979229779   -0.0213020576    0.6182161198
 H    2.4858163933    0.5794267015    2.2312703015
 H    3.1465002219   -2.2640921347    1.3648278307
 H    2.7648084099   -1.8546618533    3.0434841133
 H    0.5946713569   -2.8719769096    1.2396285572
 H   -0.9935171237   -1.1893589792    2.1654954527
 H    1.3050684681   -0.3170334816    4.0651199168