17

 N    0.1604010504    1.3898233344   -0.1293800532
 C   -0.0181726713   -0.0085809787   -0.0440939633
 C   -1.1388683321   -0.8182069715    0.0050210451
 C   -0.6621571722   -2.1590318412    0.0176979792
 C    0.6999496026   -2.1217330612   -0.0163466475
 C    1.2963276924   -3.4865748152    0.0312924303
 O    0.1437650744   -4.3373383104    0.0669204451
 C   -1.0910485969   -3.5894695675    0.0830031660
 N    1.1063038430   -0.8169087101   -0.0540431932
 H    0.2435167167    1.8254331767    0.7852365474
 H   -0.6238058267    1.8239018164   -0.6011061685
 H   -2.1592626311   -0.4676730820    0.0424822121
 H    1.9069762699   -3.7414944559   -0.8494755098
 H    1.9179912694   -3.6683545795    0.9232735800
 H   -1.6467769840   -3.8424160439    0.9984934742
 H   -1.7047787549   -3.9085698574   -0.7722058857
 H    2.0385812404   -0.4594805831   -0.1729217982