17

 N   -0.2325282029    0.3588055860   -2.3288554586
 C   -0.0448826333   -0.1108169805   -1.1729017856
 C   -1.1236151787   -0.9242537837   -0.4906517045
 N   -1.7063008045   -0.1975290950    0.6370108881
 C   -2.7694707505    0.7506789327    0.3017722347
 C   -3.0873383270   -0.5408057252    0.9695665252
 O    1.1770254145    0.0613781850   -0.5440935175
 C    1.3620052562   -0.1167309028    0.8076185452
 O    2.4597112252   -0.0880455316    1.2689559399
 H    0.5935695458    0.8713804408   -2.6459986825
 H   -1.8596136621   -1.1658362939   -1.2692706756
 H   -0.7023873555   -1.8640198039   -0.1125977806
 H   -2.7650404225    1.6757916338    0.8696708083
 H   -3.0359194637    0.8563266540   -0.7470683279
 H   -3.5761426009   -1.3062929529    0.3701372355
 H   -3.3192491135   -0.5728845658    2.0296050823
 H    0.4215039836   -0.2394978669    1.3614113336