13

 N    0.0754821947    1.4777519261    0.0073820685
 C    0.0811671460    0.2020332028    0.0008792329
 N   -1.0971418690   -0.5582233039    0.0077835668
 C   -2.4168091368   -0.1260437368    0.0244213697
 O   -2.8076683741    1.0078106186    0.0355241577
 C    1.2660255623   -0.6109867172   -0.0140537886
 C    2.2873359484   -1.2643739985   -0.0267436598
 C    3.4341276605   -1.9916490095   -0.0409470795
 C    4.4518689318   -2.6413997642   -0.0535647855
 H    1.0334184926    1.8254270460    0.0005858440
 H   -0.9648965865   -1.5581511437    0.0004552175
 H   -3.0915747872   -1.0067989806    0.0252213803
 H    5.3489923573   -3.2103518191   -0.0646724041