15

 C    0.0570547134   -1.1495943360    0.2679553608
 C    0.0054466218    0.0372266386    0.0875119077
 C   -0.0457597473    1.4857819688   -0.1502100716
 O   -0.7258887685    2.1783729818    0.9015496214
 C    0.1815310607    3.0081823342    1.6157702089
 C    1.4694772627    2.9722236918    0.8168214144
 C    1.3307206074    2.1085163300   -0.1925067530
 C    2.5980090754    3.7463471539    1.1649571719
 C    3.5296842649    4.4302263128    1.5046477273
 H    0.0971862130   -2.1982666230    0.4321238124
 H   -0.5997592467    1.6638641028   -1.0847061962
 H   -0.2350086315    4.0212149055    1.6872289986
 H    0.3365111941    2.6351273536    2.6393056776
 H    2.0755757838    1.8407007359   -0.9281792792
 H    4.3613927868    5.0253218393    1.7909841392