18

 C   -0.0095501204    1.4217594455    0.0022940771
 O    1.2585084442    1.9879707099    0.0014761953
 C    2.0851278136    1.6370555547    1.1327952698
 C    3.3578282381    0.9681200662    0.6715673687
 C    3.4930254576   -0.3140761853    0.3268229205
 C    2.3959366640   -1.3595879070    0.3248483247
 N    1.6791372133   -1.3077512532   -0.9619392892
 C    0.6368465926   -0.6073158610   -1.0246569630
 O    0.0315000712    0.0019534928    0.0487742003
 H   -0.6030511749    1.7015811806    0.8826181502
 H   -0.4965948225    1.7744345517   -0.9161810199
 H    2.3174997274    2.5664235595    1.6637445166
 H    1.5247760348    0.9877019858    1.8125438051
 H    4.2236934531    1.6186652962    0.5752789785
 H    4.4599015981   -0.6460638947   -0.0436906432
 H    2.8412439681   -2.3545444294    0.4094916338
 H    1.7231921697   -1.2158153235    1.1756941518
 H    0.1126431221   -0.4695519588   -1.9737601069