19

 C   -0.0982942620    1.5184804763    0.0113783959
 C   -0.0277519438    0.0014317397    0.0023579466
 O   -1.3463102318   -0.5118561089    0.0122626427
 C   -1.3992219407   -1.9165248061    0.0052265182
 C   -2.8641051744   -2.3370150517    0.0167543471
 C   -3.0101202979   -3.8701404878    0.0100618502
 C   -4.4060894405   -4.3011565412    0.0207947764
 N   -5.5137017682   -4.6301026052    0.0293960669
 H    0.9086850039    1.9459732769    0.0039513542
 H   -0.6372017669    1.8830107161   -0.8676251303
 H   -0.6200025135    1.8732779441    0.9046240874
 H    0.5109555479   -0.3571380099   -0.8912424453
 H    0.5280695570   -0.3668785118    0.8813971815
 H   -0.8912618184   -2.3217395451   -0.8885017332
 H   -0.8745837416   -2.3312404229    0.8848519022
 H   -3.3517306924   -1.9206591917    0.9032463963
 H   -3.3682469058   -1.9114098899   -0.8559996163
 H   -2.5247663066   -4.2969489472   -0.8758584421
 H   -2.5083650341   -4.3061862639    0.8822386415