17

 O    0.0712413630    0.0657193193   -0.0165856587
 C   -0.0088600831    1.2654756247    0.0505885064
 C   -1.2175192906    2.2056224437    0.0053989580
 C   -0.8172502764    3.2677535782    1.0710972754
 C    0.2857355655    3.5543672785    0.0167213700
 N   -0.7620780448    3.2209170801   -1.0148233375
 C    1.1207258878    2.2824182592    0.0812904710
 C    2.4162851095    2.0139186177    0.7431168993
 N    2.3288571411    2.0862184834   -0.7254265133
 H   -2.2114569451    1.7726529592   -0.0870378711
 H   -1.5550878950    4.0682859150    1.1231130469
 H   -0.5147168678    2.9265471645    2.0626596926
 H    0.8011549937    4.5097371004   -0.0695507559
 H   -0.3685988136    2.8039715359   -1.8612928482
 H    2.9579735754    2.8325863831    1.2091708349
 H    2.5491719542    1.0397305699    1.2069548009
 H    2.3128757063    1.1370357372   -1.0999437408