17

 O    0.0291900710    1.3306635089    0.0334869617
 N    0.0257143362   -0.0473853349    0.0038471772
 C   -1.1281101070   -0.6044747766    0.0466127598
 C   -1.1257392334   -2.1129440823   -0.0168992540
 C   -2.1653596791   -2.5812383469   -1.0408646851
 C   -3.5162349883   -1.9954025095   -0.6625073182
 O   -3.4910403224   -0.5662518156   -0.5467774632
 C   -2.4582429375    0.0748197847    0.0932924595
 N   -2.6380292807    1.2048230574    0.6357287763
 H    0.9690884436    1.5290154280   -0.0529500804
 H   -0.1168831180   -2.4538455606   -0.2570334015
 H   -1.3877494729   -2.5235093992    0.9690492714
 H   -1.8825038944   -2.2478718504   -2.0457630612
 H   -2.2367651897   -3.6738207579   -1.0596724427
 H   -4.2796193666   -2.2045046909   -1.4158794257
 H   -3.8579661105   -2.4195573422    0.2929956413
 H   -3.6245230604    1.4637044380    0.5500735447