20

 C    1.0534618361    0.8971115783    0.0666267301
 O    0.1333649925   -0.1310325432   -0.2188690600
 C    0.6964289268   -1.1690500584   -0.9594599443
 C   -0.3346345053   -2.2689576025   -1.1997268642
 O   -1.4487668536   -2.2180616243   -0.7452482192
 C    0.1328029758   -3.4464172551   -2.0626865602
 C    1.3379616202   -4.1736319091   -1.4983826607
 C    2.2367355517   -4.9568741308   -2.3790279947
 N    2.7117557163   -3.7045427793   -1.7590494794
 H    1.9098437418    0.5288166092    0.6531452258
 H    1.4427682321    1.3652975766   -0.8516459618
 H    0.5220788714    1.6520910762    0.6501670417
 H    1.0642372761   -0.8186060895   -1.9438432616
 H    1.5714943783   -1.6136251078   -0.4521496715
 H   -0.7207351800   -4.1257191319   -2.1478553653
 H    0.3708027065   -3.0795998665   -3.0712230250
 H    1.2045994310   -4.5282557797   -0.4777147553
 H    2.7116395152   -5.8607233321   -2.0090644278
 H    2.0259612869   -4.9608611490   -3.4456366147
 H    2.6967184804   -2.9616215409   -2.4547741021