19

 C    0.0390010675    1.6092593412    0.0763014161
 C   -0.0453119962    0.0842316171   -0.0276515426
 C    0.6988890874   -0.4869587867   -1.2579686340
 C    2.1063260915   -0.0712934061   -1.2319053764
 N    3.2118419584    0.2597618835   -1.1731843530
 C    0.6105257210   -2.0443601675   -1.3589923927
 C   -0.8376941212   -2.5728377331   -1.3772466584
 C    1.3139066862   -2.5111458541   -2.5596914449
 N    1.8341848440   -2.8858668423   -3.5207977689
 H    1.0740684554    1.9468507949    0.1765663282
 H   -0.3884970625    2.0904320346   -0.8098848692
 H   -0.5184553785    1.9612968547    0.9485465348
 H    0.3640506146   -0.3785420982    0.8782327421
 H   -1.0942343674   -0.2171699042   -0.0954785947
 H    0.2500081725   -0.0663130843   -2.1670459736
 H    1.1328768732   -2.4654482501   -0.4913807960
 H   -1.4159032352   -2.0995645745   -2.1762398246
 H   -0.8378313841   -3.6507633811   -1.5526974371
 H   -1.3336643066   -2.3844633237   -0.4236767651