21

 C   -0.0577837509    1.5046070794   -0.0053334643
 C    0.0028829715   -0.0197998178   -0.0052065188
 C    0.8414440966   -0.6047934215   -1.1664340641
 O    1.2388499769   -1.9091098136   -0.7396374034
 C    0.9027566577   -2.0741428671    0.6477332048
 C    0.7774701499   -0.6431230325    1.1766191815
 C   -0.4406918086   -2.8130651536    0.7651535463
 C   -1.5766175191   -1.9209333620    0.3286248880
 C   -1.3811719196   -0.6518068625   -0.0301839011
 H    0.9457751266    1.9404087971    0.0372134992
 H   -0.5501487634    1.8812218803   -0.9093625127
 H   -0.6234932843    1.8749382076    0.8559040755
 H    0.2731682840   -0.6891974466   -2.0993336918
 H    1.7314395590    0.0155245344   -1.3556966044
 H    1.7058970220   -2.6516812302    1.1152454320
 H    1.7631671638   -0.1794136337    1.2909860851
 H    0.2385884016   -0.5742406972    2.1245877040
 H   -0.3992938419   -3.7113588161    0.1364327591
 H   -0.5986892056   -3.1666354433    1.7950289394
 H   -2.5750694857   -2.3508834800    0.3067345472
 H   -2.2108213704   -0.0343058910   -0.3660564516