18

 O    0.1364535401    0.0889702573   -0.8132743911
 C    0.0577686623    1.1241923746   -0.2253390259
 C   -0.9652159496    1.7769833109    0.7125551060
 N   -0.1681846918    3.0298418278    0.6313859921
 C    0.2295759522    3.6933295718    1.8643443736
 C    1.1169886638    2.8135090698    2.7881236403
 O    1.7717123218    1.7687897333    2.0745539083
 C    2.1883753549    2.1602763286    0.7797196483
 C    0.9549799590    2.3715782644   -0.1032965212
 H   -1.9912182000    1.8669795428    0.3389794998
 H   -0.9806465939    1.2849379019    1.6949478391
 H    0.7717981944    4.6035329303    1.5837553206
 H   -0.6640894161    4.0212092568    2.4047702469
 H    1.8575623330    3.4455894502    3.3043619495
 H    0.5220057461    2.3098347769    3.5556624649
 H    2.8008140951    3.0757705549    0.8173584640
 H    2.8108399166    1.3536767275    0.3816154542
 H    1.2202059121    2.8527713701   -1.0538137295