19

 C   -0.0057499995    1.4899352577   -0.0014543542
 C   -0.0383560338   -0.0021341530    0.0060962708
 N   -1.0928779923   -0.7215463193   -0.0628847813
 C   -0.6637046187   -2.1322318835   -0.0238855704
 C   -1.2476866084   -2.8325236693    1.2110239422
 C   -1.0735394080   -2.8497869595   -1.3173487871
 C    0.8751233284   -2.0834641998    0.0820646556
 O    1.6705199257   -2.9895812839    0.1421484612
 N    1.1574585304   -0.7255629354    0.0939308711
 H    0.5800291081    1.8637101886   -0.8487976059
 H   -1.0245979062    1.8699057815   -0.0755475745
 H    0.4569031610    1.8757573811    0.9138135834
 H   -2.3379394374   -2.8645354271    1.1385243056
 H   -0.8585627192   -3.8521512385    1.2785780321
 H   -0.9814760787   -2.2978966333    2.1273363279
 H   -0.6845229331   -2.3270498235   -2.1958370857
 H   -0.6790500594   -3.8696081194   -1.3174637893
 H   -2.1634710601   -2.8826431146   -1.3941666991
 H    2.0882503511   -0.3447554188    0.1541429776