25

 C    0.0111057586    1.5583925488   -0.0349953580
 C    0.0637616157    0.0255029640    0.0532048020
 C    0.7601684669   -0.4109359612    1.3499877204
 C   -1.3368229439   -0.5937049737   -0.0772400825
 C   -2.0590240721   -0.2545885912   -1.4001283474
 O   -2.8831067562   -1.3659294607   -1.7394509933
 C   -2.7388757138   -2.4061014422   -0.7677114327
 C   -2.8678702703   -3.7514431280   -1.4640062522
 C   -1.3944285911   -2.1311343741   -0.0891401612
 H    1.0150721395    1.9884539504    0.0421245281
 H   -0.4240241965    1.9005732625   -0.9789464020
 H   -0.5906566636    1.9758766620    0.7813550582
 H    0.6616868426   -0.3427590395   -0.7941616821
 H    0.1883244764   -0.0881260193    2.2286086378
 H    0.8734579307   -1.4974342658    1.4063309276
 H    1.7585009860    0.0326025070    1.4258095490
 H   -1.9510579404   -0.2316639829    0.7596972213
 H   -2.6765091954    0.6484876772   -1.3193648871
 H   -1.3341639028   -0.0904550816   -2.2121693061
 H   -3.5453808188   -2.3108271284   -0.0194950297
 H   -2.0707898421   -3.8780105685   -2.2034404277
 H   -2.8066032084   -4.5687085383   -0.7379718676
 H   -3.8288083769   -3.8238321733   -1.9812396136
 H   -0.5780831915   -2.5383008513   -0.7004694285
 H   -1.3290712627   -2.5783960620    0.9056577574