16

 C    1.0928540228    0.8670131427   -0.1473936234
 N    0.0317001117    0.1894796487   -0.8941054217
 C   -0.2559389375    0.6684351105    0.4674128183
 C   -0.5019630033   -0.3552991576    1.5176966175
 C   -0.2074877823   -1.7122319155    1.3285156495
 N   -0.4030098904   -2.6219594482    2.2815879838
 C   -0.9052014621   -2.1715185820    3.4345442311
 C   -1.2156451185   -0.8287015770    3.6227367367
 N   -1.0183226290    0.0846052333    2.6707162770
 H    1.9156011212    0.2271025150    0.1593677787
 H    1.3773183639    1.8789089788   -0.4236718769
 H   -0.3829733586    0.8131990364   -1.5801862427
 H   -0.8611043868    1.5621164571    0.5944724286
 H    0.1802497215   -2.0556990309    0.3747508422
 H   -1.0699831919   -2.9007783110    4.2232871955
 H   -1.6377303707   -0.4787379604    4.5616361358