17

 O   -0.0782314629    1.4577967517   -0.0625363293
 C   -0.0051203294    0.0946294872    0.1107490799
 C   -0.1125382076   -0.9025176843   -1.0259141111
 C   -1.1643471528   -0.9244015625    0.0544083451
 C   -0.6443697478   -1.5224255973    1.3809201724
 O   -0.1913502237   -2.8459150881    1.5997847183
 C    1.0953658329   -2.6990405339    2.2343464712
 C    1.6317657638   -1.3420821730    1.7666484500
 C    0.5929931807   -0.6855024874    1.2667358213
 H    0.7089137652    1.7489095181   -0.5367236632
 H   -0.4546769114   -0.4656454426   -1.9599436016
 H    0.6034059700   -1.7123453248   -1.1264805050
 H   -2.2079580951   -0.7420382695   -0.1685061400
 H   -1.3136497233   -1.1944434961    2.1936247603
 H    0.9909979110   -2.7656723977    3.3304340729
 H    1.7361868829   -3.5279961191    1.9109003082
 H    2.6836550575   -1.0866599608    1.7791693005