12

 O   -0.6398633217    1.2331811565    0.8458599197
 C    0.0412219212    1.2925990588   -0.1373008422
 C    1.2658827485    2.2030835960   -0.2973554360
 O    1.9139936338    2.2042035799   -1.3123097328
 O    1.4956862172    2.9367694595    0.7949726866
 C    2.6307246850    3.8345105857    0.7236836063
 C    2.2804653038    5.1062668345    0.1111501258
 C    2.0011052010    6.1646637576   -0.3818219441
 H   -0.1321207419    0.6919845336   -1.0522782606
 H    2.9373832531    3.9713067160    1.7631201329
 H    3.4352463316    3.3460415654    0.1669387660
 H    1.7558238384    7.0982860865   -0.8254278516