20

 O    0.8024560943    1.2735698821   -0.0175865062
 C    0.3565123759   -0.0558980707   -0.0331516730
 C   -1.0642410011   -0.3832662915    0.4496675642
 C   -2.0923840224    0.2518123296   -0.4390270431
 C   -1.4019130234   -0.9918194925   -0.9216842250
 C   -0.0017002170   -0.6618865837   -1.4418946307
 N    0.0739397163    0.3252883220   -2.5083383914
 C    1.2255660043    0.2431103271   -3.4049549904
 C   -0.1293062079   -0.1555532295   -3.8723158354
 H    0.4640197492    1.6756912070   -0.8291709928
 H    1.1039931364   -0.6607984903    0.4883166358
 H   -1.3146809021   -0.7598930741    1.4340126889
 H   -3.1204012624    0.1116058447   -0.1213675044
 H   -1.9020453544    1.2061569140   -0.9192338257
 H   -1.9418057027   -1.9046069082   -1.1408138777
 H    0.5827752725   -1.5655564848   -1.6705721230
 H    1.6560738123    1.1919577787   -3.7104795654
 H    1.9496317794   -0.5494944308   -3.2259308843
 H   -0.3185076306   -1.2183261088   -4.0101044047
 H   -0.7035337966    0.4970557398   -4.5233237558