17

 C    0.0487990038    1.4482917491   -0.0506919510
 O    0.1406696174    0.0412681694    0.0303792004
 C    0.6437396381   -0.5786667376   -1.1379992432
 C    1.2014607649   -1.9294437433   -0.6961467012
 O    1.5753797349   -2.7565544345   -1.8029398020
 C    0.7057546142   -2.8984230837   -2.8414173156
 O    0.8950240136   -3.7573535602   -3.6615687071
 C   -0.4063239923   -1.9206892796   -2.9219589825
 C   -0.4261312423   -0.8174415401   -2.1730680822
 H    1.0310519418    1.9056031521   -0.2424072171
 H   -0.6455658350    1.7792316877   -0.8367672346
 H   -0.3255433232    1.7991124589    0.9133673350
 H    1.4508727475    0.0357564857   -1.5732315345
 H    2.1030721516   -1.8057232329   -0.0947604444
 H    0.4405358110   -2.4348482766   -0.0889839956
 H   -1.1484557066   -2.1358837265   -3.6814497285
 H   -1.2070729893   -0.0705735979   -2.2851579357