19

 O   -0.2450061356    1.5061583194   -0.2179252752
 C    0.0324859988    0.1284534662    0.0401852680
 C   -1.2308249589   -0.7716217666    0.1418072380
 C   -1.2855031188   -1.5894438565   -1.1709181853
 C    0.0963043434   -1.4036832107   -1.7663463111
 C    0.5416092458   -2.1936988422   -2.9666512507
 C    0.8481628531   -3.6308465098   -2.5616196060
 O    0.2271644172   -4.5939535863   -2.9250335451
 C    0.8140362153   -0.5061039219   -1.0843208710
 H   -0.5873673619    1.5661627949   -1.1168706927
 H    0.5854688557    0.1468764222    0.9847665160
 H   -1.1309798070   -1.4474670429    0.9961331044
 H   -2.1190062494   -0.1592628409    0.3136441291
 H   -1.5178221364   -2.6460367878   -0.9949372053
 H   -2.0531076911   -1.2306533172   -1.8702892852
 H   -0.2304463622   -2.2202641180   -3.7424275463
 H    1.4580465170   -1.7587212635   -3.3838502575
 H    1.7079077794   -3.7245621294   -1.8595955116
 H    1.8187080457   -0.1835534790   -1.3373656625