16

 O    0.3467374224    0.6789682710    1.0097019658
 C   -0.0669555218    0.1515046905   -0.2476513740
 C   -1.4268173212   -0.3540145500   -0.1566943325
 C   -2.5586903026   -0.7746936345   -0.1121318305
 C   -3.8706014698   -1.2771980158   -0.0497714082
 C   -5.0862470388   -0.7202252813   -0.4237973069
 C   -6.0999164723   -1.6653696680   -0.1430763175
 C   -5.4885257660   -2.7786835336    0.3969626682
 N   -4.1468986110   -2.5381350849    0.4479084637
 H    1.2435821040    1.0116755747    0.8982969032
 H   -0.0283776046    0.9227469435   -1.0344496438
 H    0.6002031201   -0.6644338779   -0.5720841430
 H   -5.2082131061    0.2625409683   -0.8510030192
 H   -7.1586749739   -1.5482774672   -0.3142753288
 H   -5.8997283564   -3.7124627110    0.7455269617
 H   -3.4464541819   -3.1654433840    0.8034971219