23

 O   -0.0832933998    1.4231253980    0.4769096268
 C   -0.0908293489    0.0713848357    0.0182868894
 C    0.6995662004   -0.8503110177    0.9583928007
 C   -0.2518968170   -1.1205716346    2.1574482394
 C   -1.6636564727   -0.6807202381    1.6813638070
 C   -1.5335229792   -0.4438308716    0.1585389254
 C   -2.5911218025    0.4501823214   -0.4428424661
 C   -2.9638065291    0.3282789242   -1.8995907274
 C   -3.9348856371   -0.1132204257   -0.8317375512
 H    0.8301553607    1.7233963560    0.4969676254
 H    0.2667091230    0.0201221338   -1.0203691868
 H    0.9373975519   -1.7820866750    0.4324247635
 H    1.6544437414   -0.4049764096    1.2583962996
 H   -0.2297991231   -2.1769630224    2.4396018014
 H    0.0540425763   -0.5548801726    3.0409934336
 H   -2.4381197111   -1.4158571592    1.9153718815
 H   -1.9516171909    0.2571704256    2.1648580482
 H   -1.5681051003   -1.4168342860   -0.3523855514
 H   -2.5913966708    1.4567518794   -0.0373564018
 H   -3.1824063726    1.2342077826   -2.4540358285
 H   -2.4754740293   -0.4424688872   -2.4878352719
 H   -4.0946653545   -1.1795561722   -0.7053484677
 H   -4.8198719152    0.4888449252   -0.6572022592