19

 C   -0.0920886274    1.5152130147    0.1039506771
 C   -0.0279334570    0.0065682986    0.0537401327
 O   -1.1628504548   -0.6268625808   -0.4770873498
 C    1.3211075673   -0.6834293251   -0.1638364846
 C    0.6202863611   -0.7485976473    1.1618135174
 O    1.1655771782   -0.1075035610    2.3284349832
 C    0.8328385610   -1.2694710570    3.1058816707
 C   -0.6446856473   -1.4969070400    3.1268238984
 C    0.1735622073   -1.9609507881    1.9348800261
 H    0.7558107665    1.9254052008    0.6574836844
 H   -0.0827372932    1.9423056304   -0.9064893434
 H   -1.0128435477    1.8349430815    0.6016448654
 H   -1.1920431152   -0.4343945861   -1.4214657291
 H    1.3306847950   -1.5867922491   -0.7657854596
 H    2.2083413684   -0.0622634441   -0.2329923341
 H    1.5479015642   -1.5951591777    3.8511890270
 H   -0.9835669805   -2.2975521899    3.7774831279
 H   -1.3220538928   -0.6531500563    3.0364178791
 H    0.2165479570   -2.9855884634    1.5945790011