13

 O   -0.0535682595   -0.0884164840   -0.0022465986
 C    0.0002544655    1.1182563198    0.0082781804
 C    1.2343676422    1.9100662834    0.0013261068
 C    1.2989839699    3.3026702545    0.0131687991
 N    2.6460232546    3.5876342900    0.0008933484
 C    3.3155040189    2.3962371382   -0.0181891931
 N    2.5003781669    1.3736918374   -0.0182378189
 C    0.3063609519    4.2980953352    0.0336743227
 C   -0.5352297425    5.1601213244    0.0510799790
 H   -0.9199978625    1.7425332373    0.0245322649
 H    3.0448498244    4.5129377877    0.0051515738
 H    4.3945537612    2.3483647557   -0.0309656723
 H   -1.2875419509    5.9100944004    0.0659507878