13

 O    0.1004463357    1.3656187434    0.2817892880
 C   -0.0103782361   -0.0122506078    0.0337269280
 C   -1.4606742398   -0.4768678715   -0.1346343073
 C   -1.4317964203   -1.4381667800   -1.3219338008
 O   -2.2962948334   -2.1770318874   -1.7088532243
 N   -0.1787290707   -1.2885372775   -1.9301771360
 C    0.6570608675   -0.3902442867   -1.2960136102
 O    1.7093768685    0.0397510727   -1.6999785391
 H    0.9747024497    1.6310547766   -0.0349551765
 H    0.4898067001   -0.6023590137    0.8201323137
 H   -1.8960221917   -0.9609053661    0.7400400741
 H   -2.0896038386    0.3797320500   -0.3985008753
 H    0.0514100291   -1.7391796422   -2.8054765843