15

 C    0.3367646937    1.4700236810   -0.3154110252
 C    0.0018627845    0.0157087715   -0.0512656208
 O    0.8350358394   -0.8977908910   -0.8709319887
 C    1.4289484034   -1.4366215087    0.2490662640
 O    2.3164550884   -2.2235432277    0.2951280191
 C    0.5635548388   -0.6256231060    1.2337611714
 O    1.2327008142    0.2645877396    2.0813413312
 C   -1.4557951379   -0.2964588583   -0.3540524857
 O   -2.2837680882   -0.5208185232    0.4876659585
 H    1.4017583923    1.6445725509   -0.1523723446
 H    0.0837054985    1.7390708242   -1.3452248973
 H   -0.2267221597    2.1120468144    0.3675827196
 H   -0.1832238025   -1.2364740053    1.7552238648
 H    1.6698557620   -0.2453860109    2.7717189115
 H   -1.6960891567   -0.2981344506   -1.4393604479