10

 C   -0.0129915237    1.3892749950    0.0105068548
 O   -0.0065056092   -0.0240469828   -0.0110732932
 C    0.6582792528   -0.5650527854    1.1006431817
 C    0.6321890894   -2.0286528262    1.0167756074
 N    0.6296511700   -3.1824155254    0.9810707043
 H    1.0080233631    1.7998090069   -0.0084463474
 H   -0.5461937383    1.7166253621   -0.8834965058
 H   -0.5295131941    1.7789539893    0.9008612849
 H    1.7099621206   -0.2356772548    1.1466671827
 H    0.1828316593   -0.2600387288    2.0480461806