16

 C    0.0502731448    1.3285098213   -0.2756086887
 O    0.0049848122   -0.0381225661    0.0988017799
 C   -1.2841297709   -0.6217100287    0.0627719198
 C   -1.8275733322   -0.7192907042   -1.2949062924
 C   -2.2797880881   -0.7879528438   -2.4056719644
 C   -1.0854532769   -2.0268392832    0.6897322790
 O   -0.0711557279   -2.7385232868    0.0344272885
 C   -0.8090835228   -1.8822073616    2.1391423196
 N   -0.6017813880   -1.7779659817    3.2706330431
 H    1.0920982380    1.6416274814   -0.1887930032
 H   -0.2905283932    1.4720444882   -1.3083117392
 H   -0.5674108067    1.9417717517    0.3951878318
 H   -1.9814791286   -0.0477449633    0.6936461791
 H   -2.6798677321   -0.8557368022   -3.3877696355
 H   -2.0104356768   -2.5998333038    0.5749079834
 H    0.6734318791   -2.1278946972   -0.0561458909