16

 C   -0.0168634018    1.4974864018    0.0574758415
 C   -0.0011142427    0.0086604128   -0.0445570880
 C   -0.0384167091   -0.7952474696   -1.1692846023
 C    0.0018621485   -2.1332086413   -0.6858694620
 C    0.0622283946   -2.1060064599    0.7083873424
 N    0.0597681830   -0.7813237452    1.0921394867
 C    0.0998055709   -3.4501076671    1.1275781943
 N    0.0652002429   -4.2594857281    0.0675287909
 N    0.0061182981   -3.4518339207   -1.0236210316
 H    0.8885590465    1.8861694645    0.5403602912
 H   -0.0769755579    1.9402819832   -0.9390063112
 H   -0.8759154139    1.8606293763    0.6354764814
 H   -0.0879640080   -0.4410839561   -2.1868405507
 H    0.0958833519   -0.4282659040    2.0315634014
 H    0.1490993845   -3.8735842987    2.1190341875
 H   -0.0279586076   -3.8769235880   -1.9324724315