23

 C   -0.0010469013    1.5352616814   -0.0287308653
 C    0.0228236126   -0.0000736522    0.0025520978
 C    0.8488748784   -0.4885677139    1.2011132749
 C   -1.4101070058   -0.5794683041    0.0099411285
 C   -2.2847466820   -0.1576913362   -1.2022508420
 C   -3.1667568131   -1.3820488228   -1.5597299135
 O   -3.3800895176   -1.5630359971   -2.9544455363
 C   -2.4435060606   -2.5218528376   -0.8830648715
 C   -1.5002810615   -2.0922202227   -0.0472187295
 H    1.0154282399    1.9416664316   -0.0497485891
 H   -0.5315841286    1.9200345793   -0.9044185003
 H   -0.4983694997    1.9340224950    0.8640350207
 H    0.5127717736   -0.3533378709   -0.9168887518
 H    0.9609784093   -1.5763742774    1.2131386578
 H    1.8544487529   -0.0556413613    1.1812105451
 H    0.3802327337   -0.1894715396    2.1466030647
 H   -1.8884889200   -0.2355013164    0.9418618875
 H   -2.8710322898    0.7459574165   -1.0222036758
 H   -1.6375425907    0.0445115877   -2.0653892776
 H   -4.1804824304   -1.2721911550   -1.1528526830
 H   -2.5223802407   -1.7540008694   -3.3507108317
 H   -2.7180506891   -3.5559635321   -1.0617054985
 H   -0.8831240598   -2.7352508630    0.5705690992