20

 C   -0.0158356897    1.5670426027   -0.1354655054
 C    0.0455793673    0.0602567888    0.1127918928
 O    0.6660755968   -0.2432554420    1.3589296110
 C   -1.3364178520   -0.5933211574    0.0509240029
 N   -2.0015876067   -0.5571955578   -1.2579424928
 C   -2.1729333263   -1.9206706779   -1.3696096888
 O   -2.7046709330   -2.6071682557   -2.2000048815
 C   -1.4336063436   -2.1584468547   -0.0290581759
 C   -0.1694243378   -3.0073773511   -0.0803411598
 H    0.9824488000    2.0044197983   -0.0512999155
 H   -0.4056119922    1.7889414620   -1.1339876457
 H   -0.6688167000    2.0576998705    0.5981324529
 H    0.6891803967   -0.3998771666   -0.6439200571
 H    0.1855517276    0.2252854207    2.0509084892
 H   -1.9581354899   -0.1753847323    0.8575568203
 H   -2.4362404512    0.1990623736   -1.7668615551
 H   -2.1233120892   -2.5515971584    0.7240127562
 H    0.4975454750   -2.6970735102   -0.8899823611
 H    0.3836983704   -2.9397735865    0.8594499345
 H   -0.4371565123   -4.0524344360   -0.2601424611