16

 C    0.0529873916    1.4856408770    0.0344902118
 N   -0.1409544570    0.0513555742   -0.0788092024
 C    0.5269859870   -0.6527672482   -1.0543732921
 C    0.6677622250   -2.0452225962   -1.1753169431
 N    1.3725422898   -2.2392142240   -2.3368294689
 N    1.6882368169   -1.1152151027   -2.9571412067
 C    1.1868619196   -0.1362669734   -2.1958130883
 C    0.2360360056   -3.1599313613   -0.3728599446
 O    0.4616963570   -4.3247877265   -0.6517258567
 H    1.1020721104    1.7718711900    0.2044513256
 H   -0.2926477716    1.9834900556   -0.8773957409
 H   -0.5495256232    1.8594162245    0.8647773814
 H   -0.2528951476   -0.4295496503    0.7993941705
 H    1.6412559859   -3.1366353893   -2.7070318886
 H    1.3161146667    0.8927871318   -2.4912130172
 H   -0.3345166862   -2.8897579312    0.5426161104