15

 O    0.2657019813    1.4713487578    0.0759863307
 C    0.0794851919    0.0895680388   -0.0111061120
 C    0.0569347597   -0.6302186363    1.3871388421
 C   -1.4120097620   -0.2112933741    1.6319897454
 N   -2.0547559052   -1.6093710190    1.7605787821
 C   -3.1072410711   -1.4530335626    0.6987387022
 N   -2.7447291759   -0.7860947192   -0.3316449218
 C   -1.3595429716   -0.4957104797    0.1187933151
 C   -0.8332090708   -1.7580987638    0.8332456015
 H    0.1754441697    1.8520520224   -0.8034826857
 H    0.7174023615   -0.3761247851   -0.7746837262
 H    0.8699681025   -0.6984023721    2.1054104748
 H   -1.8103565158    0.6618257033    2.1457071587
 H   -4.0883679946   -1.8910240579    0.8431967535
 H   -0.5502743196   -2.7139340323    0.3915470796