21

 C    0.0048173280    1.4798063518    0.0038170760
 C   -0.0236296748   -0.0352443196    0.0116290812
 C   -0.8594005666   -0.7119817542    1.0739368666
 C    0.6511698916   -0.7745366335    1.1514325192
 C    1.4321672613   -1.9952911152    0.6950622443
 C    0.6399076068   -2.9399569312   -0.2314899835
 C    1.0872360937   -1.9184382913   -1.2917245767
 C    0.1647488889   -0.6907043914   -1.3669605972
 O    2.2397853599   -1.5913030153   -0.4625332975
 H    0.9508235299    1.8525868620   -0.4050146644
 H   -0.8082232122    1.8893993534   -0.6081630327
 H   -0.1061292624    1.8850280655    1.0148636280
 H   -1.3631595683   -0.0679510179    1.7880510654
 H   -1.4189273691   -1.6077352574    0.8318721455
 H    1.1352358045   -0.1795549409    1.9203323124
 H    2.0463306754   -2.4327205933    1.4854402614
 H    1.1613282795   -3.8907645034   -0.3521287711
 H   -0.4223883916   -3.1185405286   -0.0627162011
 H    1.3794409189   -2.2766445169   -2.2826951949
 H   -0.7941643168   -0.9647270069   -1.8263073240
 H    0.6374502735    0.0384411245   -2.0342388069