13

 O   -0.1632962627    1.3569985539   -0.0406417025
 C   -0.0047497613    0.0046896169   -0.0327084885
 C    0.9154097000   -0.9848515211   -0.8182631518
 C   -0.1670803587   -2.0079660794   -0.8283231141
 N    0.8296644035   -1.9893847984    0.2998452793
 C   -0.0752491358   -1.0396360763    1.0774242962
 C   -1.1109053379   -1.0407684577   -0.0430188804
 O   -2.4519929816   -0.8061080442   -0.0619852150
 H    0.5495895215    1.7573174516    0.4712428159
 H    1.8017118205   -0.8707326057   -1.4334959568
 H   -0.3248775727   -2.8806770748   -1.4532563431
 H   -0.1404146733   -0.9813366422    2.1570777792
 H   -2.8968567515   -1.4999986527    0.4391129916