15

 O    0.3116969912   -0.1405578298    0.5804254224
 C    0.1629534799    0.9839289499    0.1683392302
 C    1.2893843363    1.9403686700    0.0154329450
 C    1.4320195565    2.9039715302   -1.1779317762
 C    0.2206917171    3.2233499334   -2.0268386732
 C   -0.7750265864    3.8611617461   -1.0511838179
 O   -1.8901321370    4.2266100538   -1.2574439938
 O   -0.1957548590    3.9489732639    0.1942507359
 C    1.1197294994    3.4412167424    0.1780326647
 H   -0.8437360414    1.3558106339   -0.1127863237
 H    2.2302108588    1.5414245276    0.3803603307
 H    2.4211006932    2.9929386814   -1.6079440173
 H    0.4635868568    3.9536599276   -2.8048012737
 H   -0.2532288131    2.3726784562   -2.5223531163
 H    1.7954532077    4.0091569435    0.8043384734