20

 C   -0.6118859235    1.4255094026    0.3414878267
 N   -0.1210109461    0.0766962067    0.1167560965
 C    0.3499558326   -0.3104362047   -1.2081232304
 C    1.6729265901    0.3115713754   -1.5723083705
 C    1.6389169401   -0.8777455660   -0.6332437858
 C    2.3527878871   -2.1727326915   -0.8848942867
 C    1.1246236961   -0.4319102580    0.7592788415
 C    2.0362713612    0.5077006433    1.5129030746
 O    2.6191149976    0.1939635324    2.5216395479
 H    0.0469194452    2.2302466535   -0.0252055305
 H   -1.5780838178    1.5351139741   -0.1627967386
 H   -0.7769176253    1.5794297445    1.4129791225
 H   -0.3361123339   -0.7245322756   -1.9402138154
 H    2.0352703489    0.0701585599   -2.5675175455
 H    1.9353753413    1.3122195337   -1.2434531509
 H    2.3890818325   -2.3963405391   -1.9559242241
 H    3.3857685252   -2.1351544203   -0.5201705152
 H    1.8515139251   -3.0072562667   -0.3828814744
 H    0.9128540177   -1.2828148938    1.4169266560
 H    2.1769243956    1.5160147797    1.0668747125