14

 N   -0.0445919253    1.3653589774    0.0097094160
 C   -0.0457865547    0.0233753113    0.0026976177
 N   -1.1490296331   -0.6472881038    0.0071371694
 C   -1.0582929665   -2.0269225407   -0.0004870634
 C   -2.2543123319   -2.7773338638    0.0032033866
 N   -2.2643427187   -4.0974581130   -0.0033182258
 N   -1.0940448517   -4.7505506437   -0.0137525470
 C    0.0119398834   -4.0120510076   -0.0166838598
 N    0.1056558655   -2.6809041598   -0.0107794196
 H    0.8121096676    1.8882011848    0.0060163245
 H   -0.9219379227    1.8610789039    0.0186085302
 H    0.9402072557   -0.4475548899   -0.0068800804
 H   -3.2150807571   -2.2726503917    0.0116798783
 H    0.9449395595   -4.5708178434   -0.0255774067