13

 C    0.0931235040   -1.1301792709    0.0525353540
 C    0.0021887878    0.0675056356    0.0263661286
 C   -0.0914361546    1.4846250316   -0.0054926500
 N   -1.1723140252    2.1704538669   -0.0122164100
 C   -0.7709981987    3.5522648157    0.0063979284
 C    0.0238747839    3.9983859038    1.2207568312
 C    0.7522467091    3.5333515368   -0.0027073206
 O    1.1009859057    2.1602501419   -0.0410539604
 H    0.1648442996   -2.1899667975    0.0744515227
 H   -1.3995106207    4.2528749580   -0.5287802096
 H    0.0523822961    5.0652364779    1.4123902379
 H    0.0143222373    3.3653230954    2.1016355717
 H    1.4228725857    4.1573677648   -0.5781941639