21

 C    0.0584726411    1.5133420836    0.2541828252
 C   -0.0037774713    0.0181408130   -0.0877937429
 C   -1.4086978466   -0.5171043995   -0.1187496714
 C   -2.1444191611   -1.0045258533    1.0957123380
 C   -1.9051912739   -1.9751414505   -0.0382891235
 C   -2.8734103754   -1.6870135597   -1.1541346934
 C   -3.3148545017   -2.5600589929   -2.2387167506
 O   -4.2177657014   -2.1445856871   -1.2025786620
 C   -2.4360347682   -0.2112055797   -1.2304252171
 H    1.0915500635    1.8742905146    0.2587441281
 H   -0.4997430771    2.1093772933   -0.4757678871
 H   -0.3733694250    1.7090010575    1.2410351780
 H    0.4734054182   -0.1528351850   -1.0622831120
 H    0.5821828560   -0.5510016580    0.6448971836
 H   -1.5297967311   -1.1781810483    1.9740661683
 H   -3.1525729666   -0.6633858715    1.3178757620
 H   -1.3397236306   -2.8898729242    0.0973156497
 H   -3.5096248443   -2.1425320491   -3.2266056496
 H   -3.0504370874   -3.6175311618   -2.2290716566
 H   -3.2042168462    0.5306332189   -0.9912529465
 H   -1.9774820206    0.0432460996   -2.1905930704