16

 O    0.0345401084   -0.0417493804    0.0170540182
 C   -0.0405911739    1.1554731413    0.0207573493
 C   -1.1648721150    2.2166346378    0.1015404230
 C   -0.0261862839    3.2665828236    0.0117022974
 C    0.0640780124    4.3990552779   -1.0734016927
 C    0.2301197669    5.4092487902    0.0702448225
 O   -0.9167104746    5.2689389100    0.9169600430
 C    0.1670093739    4.3491428989    1.0898741696
 N    0.9119815818    2.1510418229   -0.0569447962
 H   -1.8552592479    2.2032090358   -0.7433411636
 H   -1.7280049556    2.2179729348    1.0362008793
 H    0.9620327713    4.2862534671   -1.6870877021
 H   -0.8066650336    4.5500892163   -1.7153977111
 H    0.7395133835    6.3652290732    0.0759641390
 H    0.6093150519    4.2609646046    2.0763662253
 H    1.9171115946    2.1133870761   -0.1483708509