17

 O    0.1049351694    1.3754481844   -0.3011978147
 C    0.0984249403    0.0067114767    0.0711129086
 C   -1.2926828096   -0.5091446378    0.2546011648
 C   -2.3155661588   -0.2001853222    1.3577533198
 C   -2.9536945640   -1.6251086285    1.0960593668
 C   -4.3564103252   -1.7158757634    0.7464042647
 C   -5.5214394031   -1.7903337084    0.4594200877
 C   -1.9133672283   -1.8134904293   -0.0353677878
 O   -2.0612896039   -0.7297721326   -0.9479515983
 H   -0.3971169221    1.4456597552   -1.1210216140
 H    0.6170233792   -0.6221322795   -0.6680738519
 H    0.6507714553   -0.0537844843    1.0146960896
 H   -1.8838567376   -0.1185462056    2.3572035080
 H   -2.9624886602    0.6542304645    1.1577222668
 H   -2.7233075658   -2.2930276724    1.9324585777
 H   -6.5486539547   -1.8540821097    0.1984609065
 H   -1.5061248009   -2.7422453569   -0.4196094042