12

 C   -0.0645099563    1.4498506229   -0.0559252981
 N    0.0924849086    0.0065481974   -0.0027716468
 C    0.6086665812   -0.7103845739   -1.0199563319
 N    0.6124358066   -2.0166564465   -1.1497809724
 C    1.2969123786   -2.1567141191   -2.3244341821
 N    1.6958432206   -1.0608317297   -2.9080511183
 O    1.2199481786   -0.0557949405   -2.0135204039
 H    0.8698733265    1.9097520175   -0.3843723656
 H   -0.8635895835    1.7649795070   -0.7392534925
 H   -0.2943338904    1.8129247533    0.9473279269
 H   -0.4851642305   -0.5243519034    0.6280950061
 H    1.5088017398   -3.1193442750   -2.7691144713