18

 O   -0.1405117709    0.2519938959    0.8406980006
 C   -0.0969364885    1.3598907839    0.3488078861
 N   -1.1700498682    2.1545684358    0.0647451754
 C   -0.8683955725    3.4461201155   -0.5187368146
 C    0.6663234462    3.5740137187   -0.3170298793
 C    1.0851932646    4.2925736120    0.9466853013
 C    1.8929394884    3.5573151373    1.7092211084
 C    2.1818879091    2.2035344351    1.1074895940
 C    1.1697564956    2.1287019198   -0.0586885285
 H   -2.1060881067    1.8217001717    0.2318034723
 H   -1.1361693796    3.4809146109   -1.5835754582
 H   -1.4138401977    4.2510488960   -0.0124402514
 H    1.1147192405    4.0434008770   -1.1996023725
 H    0.7631820097    5.3056277634    1.1647150358
 H    2.3309951404    3.8829613323    2.6464364821
 H    3.2194053363    2.1434113917    0.7540439541
 H    2.0367321380    1.3708865279    1.8042323432
 H    1.5873392550    1.6401490752   -0.9431462687