21

 C   -0.1033513576    1.5027310365    0.0037878130
 C    0.0838381575    0.0126211203    0.0356495905
 C    1.0573407709   -0.7822151733   -0.8808635882
 C    0.7152627896   -1.9133552798    0.1392887594
 C    1.5354898105   -3.1681952964    0.2650870409
 O    0.9922324008   -3.9452356413    1.3255156440
 C    0.6856675471   -0.7878376432    1.2232389242
 C   -0.7930551690   -2.0498865519   -0.1238639462
 O   -1.1746191388   -0.6596459311   -0.1895050702
 H    0.8479623660    2.0151575339    0.1721316328
 H   -0.5029930073    1.8178319134   -0.9652325049
 H   -0.8092689977    1.8151368786    0.7796185612
 H    0.7618417429   -0.9172731280   -1.9250682082
 H    2.0933601987   -0.4440014032   -0.8068468372
 H    1.5096208405   -3.7222865096   -0.6887555516
 H    2.5871381176   -2.9046613706    0.4611577142
 H    1.5116440684   -4.7503066101    1.4065957886
 H    1.6862019441   -0.4550456837    1.5086619109
 H    0.0528796817   -0.9313637537    2.1017819403
 H   -1.0207703100   -2.5521268377   -1.0728994100
 H   -1.3242399860   -2.5574833489    0.6869850265