16

 C    0.0250374867    1.5188258771   -0.0570013860
 C    1.5358240676    1.9210642681    0.0309285036
 C    2.1093752038    0.6868542127    0.6516865520
 C    1.2617748152   -0.3941386869    0.6536059395
 C   -0.0544387045   -0.0438654879    0.0176180151
 C    2.0133235988   -1.4391962964    1.2283879503
 N    3.2384520986   -1.0266341449    1.5624151597
 N    3.2780208614    0.2785004006    1.1912587029
 H   -0.4989742895    1.9416305585    0.8053398773
 H   -0.4546032296    1.9196817434   -0.9534508847
 H    1.9639706064    2.1084593987   -0.9628092421
 H    1.6833306037    2.8341879083    0.6171823328
 H   -0.9303588285   -0.3708525240    0.5871508633
 H   -0.1503881162   -0.4843416624   -0.9834833878
 H    1.7348104213   -2.4643347747    1.4256463617
 H    4.1189249348    0.8018267298    1.3642442624