19

 O    0.1564333174    1.4130373967   -0.0778306142
 C    0.0523208292    0.0169029130   -0.0736717234
 C    0.3963462832   -0.7724043665    1.2209157049
 C   -0.8648832534   -1.6510628940    0.9713271635
 C   -1.7451986973   -2.0407659980    2.1606927089
 C   -1.0507031738   -3.0535148076    3.0416713923
 O   -0.7909112612   -2.8972414325    4.2066792983
 C   -1.3949627246   -0.5731831508   -0.0109562379
 O   -2.2681683174    0.3185454248    0.6680681514
 H   -0.4384317206    1.7229376068    0.6171393588
 H    0.6081462596   -0.3481193285   -0.9416072742
 H    1.3677045104   -1.2683197474    1.2725808470
 H    0.2767300543   -0.1422288234    2.1074856732
 H   -0.5974125014   -2.5464781828    0.3987361787
 H   -2.0151455931   -1.1671195772    2.7568200682
 H   -2.6712545763   -2.5017185733    1.7874441639
 H   -0.7704412180   -3.9987866753    2.5167756806
 H   -1.8485492536   -0.9281827220   -0.9443567976
 H   -2.5841014834    0.9604124779    0.0237382075