22

 C   -0.2220809957    1.4358380482   -1.3189793969
 C   -0.0490289896    0.0366338835   -0.7621014851
 C    1.3039184890   -0.5811900705   -0.4757907319
 C    2.6067588639    0.1532607618   -0.7195668846
 C    0.3643088601   -0.2478600843    0.6698649466
 C    0.6846002305    0.8401784917    1.6743263375
 N   -0.5028086602    1.4775824556    2.2346311816
 C   -0.7921916965    2.7921282791    2.0587892003
 O   -0.1055007892    3.5913480378    1.4542661394
 H    0.3927077674    2.1842691704   -0.8156456119
 H    0.0199597612    1.4606576257   -2.3876168471
 H   -1.2617011093    1.7625613966   -1.2102813780
 H   -0.7833167941   -0.6629887441   -1.1553342604
 H    1.3763471736   -1.6436627154   -0.6966725041
 H    2.5241370746    1.2307820781   -0.5616194337
 H    3.4002663594   -0.2188513771   -0.0617763678
 H    2.9399495158    0.0040872470   -1.7525356382
 H   -0.1223567960   -1.1077926721    1.1276707028
 H    1.2815865652    0.4153738760    2.4919234297
 H    1.2697113881    1.6495139911    1.2384876639
 H   -1.1734228256    0.9085630143    2.7266439479
 H   -1.7483380826    3.0702603567    2.5453791601