16

 C   -0.0448357787    1.5734108971   -0.0548995303
 C    1.5216881178    1.3850607475    0.0239864080
 C    1.1820255154    0.1685829105    0.9729414759
 C   -0.0470672135   -0.0026189159   -0.0001423157
 C    0.7027303149   -0.2930060279   -1.2919821496
 C    1.7286763716    0.6195773533   -1.2693627400
 N    2.4041416631    0.3823817640   -2.3998464426
 N    1.8151997912   -0.6436417127   -3.0990436380
 N    0.7728098949   -1.0468382980   -2.4058111098
 H   -0.4513107313    2.0326094514    0.8512269920
 H   -0.4519243565    2.0494488013   -0.9492823799
 H    2.1961045304    2.1870861769    0.3151640053
 H    1.9043482250   -0.6486191494    1.0247560236
 H    0.8904797645    0.4961719217    1.9753572253
 H   -0.9299222940   -0.5754778297    0.2706958627
 H    3.2258051950    0.8155070699   -2.7887245468