13

 C   -0.0282007278    1.5296690104   -0.0863971605
 C   -0.0213175290    0.0296109194    0.0789095445
 O   -0.0333695462   -0.5577396395    1.1250762581
 N    0.0018923129   -0.6922350775   -1.1481152006
 N    0.0162211086   -0.0441258222   -2.3778667645
 C    0.0349879310   -1.0030080972   -3.2249286948
 O    0.0349660359   -2.2457821829   -2.6999284633
 C    0.0130609965   -2.0830384909   -1.3039045259
 O    0.0070566001   -2.9800164371   -0.5275970287
 H    0.8551835356    1.8626993067   -0.6375997162
 H   -0.9003194064    1.8516926670   -0.6616172074
 H   -0.0447260946    1.9735714707    0.9081456064
 H    0.0504129135   -0.9003556670   -4.2985008472