14

 C   -0.0290758896    1.4870147492    0.0027554892
 C    0.0157158452   -0.0114277019   -0.0055391339
 N   -0.0264040529   -0.6358782631   -1.1855835143
 C    0.0171126844   -1.9748926366   -1.1256991385
 N    0.0971198990   -2.6970795919    0.0007796663
 C    0.1322540676   -1.9615134060    1.1106119031
 N    0.0958519275   -0.6343499660    1.1815210789
 C   -0.0254405602   -2.6884683377   -2.3661343698
 C   -0.0611369392   -3.2880996525   -3.4072942189
 H    0.8646346266    1.8827018933    0.4952927039
 H   -0.0934205066    1.8735580290   -1.0139335121
 H   -0.8892940395    1.8297839814    0.5862003173
 H    0.1972488874   -2.5037638772    2.0518052086
 H   -0.0927013098   -3.8180557099   -4.3277573596