16

 N    0.0736334324    1.2052852501   -0.4798118871
 C    0.0174287392    0.0188220443   -0.0823078655
 O    0.9886343020   -0.8251634996    0.4213904615
 C    0.0356028092   -1.9325051076    0.5514868296
 C   -0.6104766352   -1.9778388891    1.9489056722
 C   -1.7436930375   -1.0234733538    1.4571779739
 C   -1.0888467874   -1.0096774627    0.0223255854
 C   -1.9716826414   -1.2645598576   -1.1580854549
 O   -2.1100357246   -2.3484805821   -1.6670197013
 H    1.0168851313    1.5884590892   -0.4001579416
 H    0.3955141347   -2.8333695183    0.0593606556
 H   -0.9749709433   -2.9708708479    2.2198868607
 H    0.0315448479   -1.6017105913    2.7469498242
 H   -2.7297467693   -1.4915140829    1.4561531913
 H   -1.8141042459   -0.0445246447    1.9325617214
 H   -2.5159392319   -0.3696571960   -1.5290804057