17

 C    0.0087916422    1.4762410096   -0.2039193678
 O    1.4259800710    1.5775332675    0.1864713072
 C    1.2982310990    0.3287573635    0.8547819986
 C    2.0431858694   -1.0048868575    1.0116347800
 C    0.8206399527   -1.3014926758    1.9494998305
 C   -0.5851763588   -0.7724166330    1.3334092492
 O   -0.6577148135    0.2515194082    2.3595638561
 C    0.7724779793    0.1823745418    2.3506133084
 C    0.0109055749   -0.0377096139    0.1320219286
 H   -0.6209019505    2.0940645838    0.4413002807
 H   -0.1280607355    1.7421413107   -1.2548432447
 H    2.2108069957   -1.5982940868    0.1104197143
 H    2.9507523395   -0.9741332898    1.6227029785
 H    0.8046779386   -2.1192359010    2.6653023776
 H   -1.4824290306   -1.3858455816    1.2630831556
 H    1.2886904707    0.6618166691    3.1803586110
 H    0.1620023158   -0.6695967648   -0.7444740541