15

 C   -0.0077714802    1.4221846044    0.0554147987
 C    1.4411650221    1.9474038283   -0.0012392507
 O    2.2221966653    1.4807647370    1.1226836501
 C    1.9625043275    0.1785382939    1.3321481121
 C    0.9324841879   -0.5819986396    0.8328876760
 N   -0.1094461561   -0.0401796074    0.0633687183
 N    1.0750026653   -1.8539381978    1.2848669624
 N    2.1407446561   -1.9231690676    2.0373386574
 N    2.6879784546   -0.6758354914    2.0818360641
 H   -0.4769560471    1.8097390339    0.9681261377
 H   -0.5642277399    1.8215713868   -0.7964014608
 H    1.9324176182    1.6187825472   -0.9259463840
 H    1.4693816400    3.0372632474    0.0537756318
 H   -0.1693334897   -0.4417028875   -0.8648103723
 H    3.5142558060   -0.5048320876    2.6307990692