18

 C   -0.0563951921    1.5173711757    0.0812910188
 C    1.4867503685    1.4468180982   -0.0351375257
 O    2.0374238008    1.1278018893    1.2507763356
 C    1.7326227803   -0.2198095345    1.5796293733
 C    2.6107790422   -1.1577594478    0.7506298031
 N    2.2540246916   -0.9707384092   -0.6682620151
 C    1.3007120999    0.0990733590   -0.8198428824
 C    0.0019003164   -0.0307996858    0.0316129814
 O    0.3673340303   -0.5144893230    1.3323306619
 H   -0.4584572713    1.9588928836    0.9936250792
 H   -0.5271461689    1.9512152700   -0.8053456019
 H    2.0625442020    2.2776742227   -0.4470529597
 H    1.9011158620   -0.3370718431    2.6518762855
 H    3.6624798732   -0.9204312924    0.9504541941
 H    2.4291283228   -2.1944035455    1.0630817680
 H    3.0733240498   -0.8184388271   -1.2417141010
 H    1.0727733125    0.2739068146   -1.8727779454
 H   -0.8444173699   -0.6236973548   -0.3178588999