20

 C    0.0691936821    1.5215772406    0.0812689954
 C   -0.0396796916   -0.0063953298    0.0187740246
 O    0.5037923582   -0.4861969618    1.2436618243
 C   -1.4667500317   -0.4061086063   -0.0732242931
 N   -2.5664631118   -0.7539171874   -0.1507878860
 C    0.7038736190   -0.5686019105   -1.2083093845
 C    2.2504653972   -0.4244039113   -1.2527056741
 C    2.3183887671   -1.8425898626   -1.8812188125
 C    0.8764864158   -2.1051064590   -1.3678321632
 H    1.1235938488    1.7979045283    0.1578222824
 H   -0.3567198286    1.9775200748   -0.8153439520
 H   -0.4572678515    1.9003360692    0.9594122615
 H    0.3489178532   -1.4357901913    1.2978699387
 H    0.2449834800   -0.1476865343   -2.1085896256
 H    2.6659552768    0.4095490873   -1.8221071701
 H    2.6636719388   -0.4094929345   -0.2408283414
 H    2.3558927046   -1.8023215129   -2.9731470389
 H    3.1070058967   -2.5114893104   -1.5308398165
 H    0.8905960575   -2.6218668644   -0.4020128100
 H    0.1769056396   -2.6254791735   -2.0242205891