17

 C    0.3419784746    1.5047680518   -0.0913145172
 C    0.0482405441    0.0422705694    0.1128163983
 O    1.1532690428   -0.8934106338    0.1151025583
 C    0.4353961148   -0.7350839769    1.3217623837
 C    1.1489592341   -0.1729081682    2.5154467901
 C    2.5776248401   -0.4513022528    2.7329431792
 O    2.1239272736    0.8424268785    2.3289881623
 C   -1.1340233801   -0.5180841318   -0.6284132160
 O   -1.9705649962    0.1531110643   -1.1737659062
 H    1.2554149675    1.7898912484    0.4263452299
 H    0.4423271134    1.7141798141   -1.1601853815
 H   -0.4934905417    2.1047141938    0.2804043790
 H   -0.1923403647   -1.5909996523    1.5898138663
 H    0.5051289015   -0.0352753164    3.3855306123
 H    2.9679555360   -0.5142027534    3.7467220406
 H    3.1214403200   -1.0042783729    1.9705494012
 H   -1.1641427899   -1.6310129320   -0.6335500702