17

 C   -0.0114883994    1.3996893521   -0.1631888140
 O   -0.0288020730   -0.0239499033   -0.0588197444
 C   -1.2316267179   -0.6173425286    0.0155134654
 C   -1.2515888124   -2.0228516893    0.1186275950
 N   -2.3947653541   -2.6789894902    0.1960063434
 C   -3.5213191767   -1.9497059173    0.1718227191
 C   -3.5056239777   -0.5637436494    0.0702461276
 C   -4.7651253084    0.2558582458    0.0429000991
 N   -2.3381990348    0.1029089837   -0.0085286242
 H    1.0426084152    1.6752793924   -0.2104777398
 H   -0.5331746567    1.7344478413   -1.0644014354
 H   -0.4875542444    1.8636425340    0.7054379066
 H   -0.3223083336   -2.5844788782    0.1356600599
 H   -4.4593290922   -2.4930337833    0.2356767078
 H   -5.6541202011   -0.3752716616    0.1118490281
 H   -4.7763937064    0.9686107216    0.8739448658
 H   -4.8215933464    0.8405651503   -0.8810643399