23

 C   -0.1323629407    1.5927754929    0.0531700451
 C    0.0211340646    0.0652943956    0.0675454855
 C    0.8659175199   -0.3770191649    1.2705827518
 C   -1.3632141020   -0.6091754021    0.0163253061
 C   -1.3693791098   -2.1256744404   -0.1670843355
 C   -1.1334282876   -3.0542863376    1.0725493929
 C   -2.3772302579   -3.8502533926    0.6506695913
 O   -2.8226286069   -4.9182096739    0.9555451340
 C   -2.7679002241   -2.7899789531   -0.3887310264
 H    0.8437251256    2.0884399870    0.0345513541
 H   -0.6982031006    1.9310373139   -0.8212797800
 H   -0.6627492503    1.9411126205    0.9477619561
 H    0.5599372169   -0.2254663537   -0.8464429022
 H    1.0696949045   -1.4510389780    1.2602428888
 H    1.8304252795    0.1414150933    1.2780276256
 H    0.3583605350   -0.1412946623    2.2139472831
 H   -1.9279311623   -0.3529718136    0.9256608906
 H   -1.9239439466   -0.1670453056   -0.8184719413
 H   -0.6903717410   -2.4034254564   -0.9802820739
 H   -0.2008120030   -3.6206081964    1.1348497194
 H   -1.2918485668   -2.5431830176    2.0290422198
 H   -3.5945389657   -2.1660814357   -0.0275353770
 H   -3.0213269403   -3.1548868894   -1.3874491680