19

 C   -0.2385956903    1.5015914788   -0.1399011414
 C    0.0964056171    0.0186317541   -0.1728385728
 C    1.4761916316   -0.3896416605   -0.7321340178
 O    1.8264931709   -1.0556039549    0.4993629093
 C    0.5912357172   -0.6767030750    1.1244640531
 C    0.6921900503    0.0674396269    2.4886379935
 C   -0.3328311248   -0.9300109434    3.0484063878
 O   -1.0048005567   -0.9635591157    4.0376940538
 C   -0.2323650887   -1.8118417225    1.7953301569
 H    0.5751912360    2.0862240510    0.3018900610
 H   -0.4065095000    1.8801198036   -1.1538279735
 H   -1.1479214738    1.6961961529    0.4387413819
 H   -0.7221297083   -0.5406611894   -0.6353840068
 H    1.4756164569   -1.0782939094   -1.5846357980
 H    2.1530416730    0.4471812247   -0.9485431170
 H    1.6833783311   -0.0720147079    2.9342740963
 H    0.4274578482    1.1263168947    2.5374035557
 H   -1.1714251759   -2.1205611087    1.3274512209
 H    0.3877237161   -2.6983755294    1.9695936568