19

 C   -0.2589441254    1.5899497861    0.2656009179
 C   -0.0472580375    0.1167425960    0.0960026787
 C    0.0976617604   -0.5818921385   -1.0679811769
 C    0.1171751523   -0.2020213084   -2.5071466147
 C    1.4952385953   -0.3681299381   -3.1548503974
 O    1.3721128314    0.0154128246   -4.5152119105
 O    0.2719294051   -1.9143878831   -0.7962535774
 C    0.2341690226   -2.0583545869    0.5538158415
 C    0.0414982576   -0.8580323474    1.1521246671
 H    0.5569379658    2.0499904132    0.8352374183
 H   -0.3172979950    2.1029522208   -0.6978990106
 H   -1.1868828968    1.8006250945    0.8096239146
 H   -0.6004562850   -0.8087674071   -3.0725779016
 H   -0.1957391125    0.8407569521   -2.6117886013
 H    2.2279732135    0.2581027716   -2.6220085771
 H    1.8201728540   -1.4143903338   -3.0563396714
 H    2.2235694775   -0.1138862568   -4.9425979828
 H    0.3552069255   -3.0640009863    0.9217482442
 H   -0.0334061288   -0.6722846024    2.2128765297