20

 C    0.1805613453    1.5180108670    0.1779276241
 C   -0.0775881394    0.0280628314   -0.0791235588
 C    0.6147468720   -0.5010692183   -1.3100143916
 C    0.7922162686   -2.0131257368   -1.6061136310
 C    2.0252337984   -1.4222219156   -2.3165596214
 C    1.4262565956   -0.6454779405   -3.5069646951
 C    0.3008251932    0.0875899760   -2.7110631640
 O    2.0852295516   -0.3952762008   -1.2802024703
 H    1.2547413694    1.7169259462    0.2279991833
 H   -0.2416546670    2.1452733311   -0.6131058670
 H   -0.2695460869    1.8306965010    1.1246114020
 H    0.2629850675   -0.5562781621    0.7833816422
 H   -1.1544088878   -0.1601914851   -0.1809731079
 H    1.0620262059   -2.5697199676   -0.7074417092
 H    0.0335440249   -2.5385034277   -2.1932341858
 H    2.9581198430   -1.9685473197   -2.4553851495
 H    2.1541025313    0.0437021025   -3.9400950840
 H    1.0499102106   -1.2996599874   -4.2983791884
 H   -0.7084865005   -0.1585408748   -3.0530523496
 H    0.4177061841    1.1725585011   -2.7255284980