23

 C    0.0396984347    1.5751245688   -0.1513489478
 C    0.0256509714    0.0439872778    0.0365456919
 C    0.5457168311   -0.5697917771   -1.2517351394
 O   -0.1087559531   -1.2401610835   -2.0085219524
 C    0.8023012620   -0.4907879833    1.2867415296
 C    0.8553986243   -2.0315693111    1.2249606299
 C    2.2337339394    0.0710421580    1.3871710320
 C    0.0084531858   -0.0856467463    2.5450004262
 O    0.6749235484   -0.5955046148    3.6916348494
 H    1.0398327340    1.9428925771   -0.4010263598
 H   -0.6315300364    1.8596356828   -0.9673414601
 H   -0.2929313762    2.0989739102    0.7479305028
 H   -1.0138615016   -0.2941486842    0.1217293733
 H    1.6076084996   -0.3233470251   -1.4880159973
 H    1.4924756736   -2.3791688797    0.4055320606
 H    1.2534759296   -2.4309242126    2.1597827536
 H   -0.1430057873   -2.4545142783    1.0685793554
 H    2.2394590006    1.1624319543    1.4687492817
 H    2.7205420399   -0.3271710360    2.2799002639
 H    2.8401504349   -0.2063569443    0.5196808337
 H   -0.0723867043    1.0094538415    2.6061823446
 H   -1.0131559967   -0.4922510334    2.4712710311
 H    0.1826518363   -0.3248913309    4.4713965271