18

 C    0.4249083594    0.8714703567   -0.5952888569
 N   -0.3750577374    0.1012154209    0.3653851868
 C    0.3445499834   -0.5736449949    1.3634662822
 C    0.7960890028   -0.2435623761    2.6106556631
 N    1.4215870311   -1.3236364293    3.2149455645
 C    1.3494307010   -2.2755387821    2.3245430669
 O    1.8351661768   -3.5268457885    2.4461898423
 N    0.7122076192   -1.9181139141    1.1826901723
 C    0.4286412426   -2.7532502186    0.0351251107
 H    1.0841036246    0.1938344322   -1.1459606849
 H   -0.2441181688    1.3492466358   -1.3172311632
 H    1.0516468695    1.6434944848   -0.1247468852
 H   -1.0918607125    0.6836791521    0.7786733806
 H    0.6976431990    0.7035150660    3.1194201120
 H    2.2299764729   -3.5714856480    3.3261972440
 H    0.1370948135   -3.7521124934    0.3666689417
 H   -0.3917411055   -2.2929887679   -0.5182786192
 H    1.2990023585   -2.8457370557   -0.6240883878