16

 C    0.0018713910    1.5371059095    0.0087968324
 C    1.3150972348    0.8071395642   -0.0046396046
 C    0.0183905964    0.0205271691    0.0351486885
 C   -0.3907860796   -0.7392615938    1.2292999745
 C   -1.0513777821   -1.9495205537    1.3411930463
 C   -1.1675954798   -2.1777421218    2.7287334793
 N   -0.6276487009   -1.1961265281    3.4421083825
 N   -0.1626322463   -0.3355598263    2.5089551314
 H   -0.2957696329    2.0514271499    0.9166531578
 H   -0.3309356672    2.0229550822   -0.9014364762
 H    1.8892881165    0.7890299999   -0.9240399568
 H    1.9223282550    0.8173692135    0.8944652492
 H   -0.2647577877   -0.4718285113   -0.8883414568
 H   -1.3952998932   -2.5702806362    0.5295141464
 H   -1.6229222733   -3.0167314082    3.2345998378
 H    0.2970442292    0.5032361413    2.8190561785