18

 C    0.0971957772    1.4896476953    0.1193129129
 C    0.1149553125   -0.0381439675    0.0305628341
 C    0.5773141313   -0.5561276453   -1.3265008950
 O    1.9187633282   -0.0752875962   -1.6020352621
 C    2.7261615380   -1.0654286583   -2.0896056457
 N    3.8624293544   -0.9005237594   -2.6128006370
 C    2.0345262575   -2.3755272325   -1.9158346704
 O    1.6605417238   -2.6016786820   -0.5415824364
 C    0.6856552859   -2.0671819795   -1.4330304430
 H    1.0945898171    1.8997059354   -0.0578762163
 H   -0.5821729220    1.9237459696   -0.6227820004
 H   -0.2357747891    1.8168422604    1.1083280851
 H    0.7740702558   -0.4637135156    0.7938719668
 H   -0.8901835054   -0.4389093296    0.2144329132
 H   -0.0773561610   -0.1802467410   -2.1256185206
 H    4.1016454026    0.0922336725   -2.6505720222
 H    2.3264016196   -3.2419960601   -2.4960145044
 H   -0.1885325864   -2.6799999662   -1.6314828086