13

 N   -0.0802665632    1.3795217920    0.1529245399
 C    0.0560703418   -0.0002799407    0.0469116268
 N   -1.0264955935   -0.7897618840    0.0196617850
 N   -0.5375917762   -2.0386519564   -0.0045372061
 C    0.8170054426   -2.0796647440   -0.0076290334
 C    1.5329575794   -3.3470437248   -0.0392898366
 O    0.9783914646   -4.4267140935   -0.0645208924
 C    1.2462930297   -0.7584935304    0.0284901447
 H    0.6106935584    1.8999295308   -0.3689935257
 H   -1.0159505882    1.6865425234   -0.0783777903
 H   -1.1529744050   -2.8352193727   -0.0256476579
 H    2.6385661707   -3.2576257795   -0.0392272078
 H    2.2647639289   -0.4053246203    0.0495815338