23

 C    0.1458142561    1.5741149947   -0.0487183274
 C   -0.0125954374    0.0912143306    0.2767038183
 C    1.2513778867   -0.5363260485    0.8552144304
 O    2.2648481350    0.1242394956    0.9827459674
 C    1.1866397097   -1.9785331431    1.2777159031
 C    0.0490079241   -2.8323433923    0.7436396978
 C    2.5270595868   -2.6539061995    1.5237839194
 C    1.6787390629   -2.3069425168    2.7039109992
 C    2.0971214580   -1.2630722070    3.7145608844
 H    0.9510847096    1.7304534041   -0.7706114354
 H   -0.7806459027    1.9780380240   -0.4668513664
 H    0.4011789476    2.1458581151    0.8470320784
 H   -0.8323092376   -0.0731493676    0.9895926817
 H   -0.3005445712   -0.4775066698   -0.6175736231
 H    0.0589236086   -2.8856735110   -0.3509871725
 H    0.1392207280   -3.8563487835    1.1180223550
 H   -0.9329417859   -2.4584288877    1.0517009656
 H    2.6197715554   -3.6916957787    1.2212534487
 H    3.3977355802   -2.0333713999    1.3432502137
 H    1.1233653900   -3.1364302617    3.1371091560
 H    2.6213564915   -0.4333093647    3.2384431475
 H    1.2317979058   -0.8615651029    4.2538945318
 H    2.7683500990   -1.7115258596    4.4555281064