17

 C   -0.0063909502   -1.2032336395   -0.0701579730
 C    0.0053665643   -0.0036393098    0.0182029432
 C    0.0332664722    1.4451368982    0.0868315351
 C   -0.3583932068    2.0865956813    1.4482384695
 C    0.6680445828    1.4545947926    2.4222938394
 C    1.6969780752    2.2841877209    1.6373454831
 C    0.6267429760    3.3533389314    1.3416600919
 O    1.0471631831    3.5218561430   -0.0160312545
 C    1.4377997155    2.1240372383    0.0860729270
 H   -0.0230974050   -2.2620091686   -0.1488242907
 H   -0.5417793918    1.8710603274   -0.7405224242
 H   -1.4169133068    2.1681986772    1.6854629375
 H    0.5637346697    1.8418255030    3.4398315586
 H    0.7453022004    0.3664310322    2.4416400580
 H    2.7099642932    2.5103891516    1.9638271718
 H    0.4196641625    4.2658552532    1.8979252518
 H    2.1843603856    1.8079763675   -0.6397016944