17

 C   -0.3263802730    1.6527794910   -0.0818543563
 C    0.0837003116    0.1748628719   -0.0155066994
 O    0.9387985830   -0.0833035962    1.0984538824
 C   -1.0911561868   -0.7045572837    0.0213476638
 C   -2.0478151437   -1.4302277041    0.0802021418
 C    0.8960631703   -0.2147054798   -1.2777510645
 O    0.6535685371    0.2705430110   -2.3581033351
 C    1.9942803322   -1.2509932250   -1.1296517802
 O    2.5536042693   -1.5703785077   -2.3702291535
 H    0.5707276523    2.2758635131   -0.0445870032
 H   -0.8627925168    1.8535582417   -1.0104564593
 H   -0.9691440386    1.9003925855    0.7667993499
 H    0.3867505898   -0.1635633426    1.8833369750
 H   -2.8947107055   -2.0706651086    0.1236915514
 H    2.7460940766   -0.8513893451   -0.4329764868
 H    1.5672326516   -2.1374467765   -0.6360846527
 H    2.1039862204   -1.0010576449   -3.0134618533