19

 O   -0.0090066230    1.4357981882   -0.0808142167
 C    0.0180382738    0.0215880048    0.0292272605
 C   -1.4215575891   -0.4818954518    0.0206130411
 C   -2.1463486931   -0.1215533869   -1.2806747002
 O   -3.4945606965   -0.5576352166   -1.2512405842
 C   -3.6192763255   -1.9643902385   -1.1933814462
 C   -2.8598110623   -2.5906874090   -0.0227398425
 O   -3.3112985815   -3.5177047503    0.6056590860
 C   -1.4798070893   -2.0047348740    0.2406041659
 H    0.8962574020    1.7595800405   -0.0845109945
 H    0.5717625163   -0.4345510172   -0.8095456678
 H    0.5125706501   -0.3002148417    0.9595295613
 H   -1.9564310240    0.0173617002    0.8380385221
 H   -2.1717742881    0.9603920064   -1.4170269897
 H   -1.6169395295   -0.5651844263   -2.1440241292
 H   -4.6803513719   -2.2021580567   -1.0968400234
 H   -3.2434660100   -2.4313860014   -2.1241046534
 H   -0.8004400176   -2.4951846072   -0.4752607344
 H   -1.1583474407   -2.3022616224    1.2425278153