14

 O    0.1700916495    1.3916983968    0.2317503191
 C    0.0432068352    0.0040096841    0.1057630968
 C   -1.3699571306   -0.4738405987   -0.0963412480
 N   -2.2771391936    0.4271076893   -0.1945140476
 O   -3.5944390554   -0.0047291548   -0.3976399215
 C   -3.8857097256   -1.3464377719   -0.4751768907
 N   -5.0626222259   -1.7832831447   -0.6468414548
 C   -2.7435324878   -2.2538960834   -0.3505325888
 N   -1.5377384898   -1.8607232178   -0.1720772060
 H   -0.6781812196    1.7855340055   -0.0084160137
 H    0.6368626566   -0.3842859655   -0.7394001996
 H    0.4354217621   -0.4942229257    1.0047921539
 H   -5.7390367460   -1.0202896355   -0.7144893730
 H   -2.9662733290   -3.3165465078   -0.4194380160