19

 O    0.2255531149    1.5679079130   -0.0611586526
 C    0.0427487544    0.1816517478    0.0543894838
 C    0.4920257191   -0.5094445087   -1.2221287646
 O    0.9396943481    0.1085737550   -2.1579726362
 C    0.7819628185   -0.3887928831    1.2403447358
 C    0.3338594144   -1.6299834620    1.9663925329
 C    0.4148081476   -0.3356698524    2.7271332968
 C    1.8698728252   -0.0223171756    3.0923844988
 C    2.2484641217   -0.0765893393    1.5753696699
 H    0.5671907011    1.7102916789   -0.9585538472
 H   -1.0302176934   -0.0623372337    0.1748402547
 H    0.3924417330   -1.6130646850   -1.2406445998
 H   -0.6730017404   -1.9695057981    1.7403889115
 H    1.0389448807   -2.4347109327    2.1637227372
 H   -0.4625771722    0.1040881918    3.1862336867
 H    2.0020833492    0.9758168919    3.5139062269
 H    2.3600507943   -0.7483083197    3.7491209883
 H    2.9867632643   -0.8255442051    1.2704639781
 H    2.5494924296    0.9001978170    1.1939718388