21

 C    0.1450358799    1.3894504297    0.0407093926
 C    0.0624900224   -0.0641388955    0.0108999996
 C    0.0071115969   -1.2673362873   -0.0047275922
 C   -0.1099764259   -2.7245429758   -0.0512508175
 C   -1.6037240610   -3.1326147862   -0.0801015445
 O   -1.7925501136   -4.5302899591    0.0144723316
 C    0.6507572685   -3.3059459420   -1.2393579601
 C    2.1308671238   -3.5522097095   -1.1507660249
 C    1.1825912144   -4.7241960707   -1.1940522663
 H    0.7420767098    1.7721004711   -0.7946017805
 H   -0.8483602720    1.8468394445   -0.0266664760
 H    0.6091259185    1.7433513033    0.9680366664
 H    0.3178235066   -3.1513678046    0.8671608440
 H   -2.1146158436   -2.6928272280    0.7808237970
 H   -2.0690464373   -2.7164446082   -0.9875487741
 H   -1.3550911273   -4.9312826662   -0.7433017607
 H    0.2833453548   -2.9569657179   -2.2014337363
 H    2.7389591357   -3.3488904572   -2.0248198488
 H    2.6216496072   -3.3334189753   -0.2081515436
 H    1.0383430203   -5.2902843569   -0.2800751644
 H    1.1441953518   -5.3210046584   -2.0992554614