14

 N    0.0494445707   -1.1893854018   -0.1849784758
 C    0.0360748022   -0.0394468042   -0.0732499162
 C    0.0043162235    1.4097378300    0.0547928294
 C   -0.2637985284    2.0327964080    1.4810641712
 C    1.0718672634    2.7816211486    1.3519267641
 N    2.1111874572    1.7290970559    1.1986153215
 C    1.3546931742    2.1523628607    0.0186689677
 C    1.3835520186    4.0913807540    1.8161136128
 N    1.6265217703    5.1562726174    2.1990048733
 H   -0.6907117295    1.8241420945   -0.6788213376
 H   -1.1365669636    2.6849746012    1.4823625864
 H   -0.3060185579    1.3290468275    2.3119090809
 H    3.0248391790    2.1814665269    1.1685001503
 H    1.8386620705    2.5710479613   -0.8539648278