12

 O   -0.0639363838    0.0063480690    0.0003180300
 C   -0.0076110223    1.2150162454    0.0084021291
 C    1.2480609102    1.9706128856   -0.0000157388
 C    2.5212835990    1.4795457636   -0.0181721525
 O    3.4052823972    2.4716307662   -0.0206032705
 N    2.7387738341    3.6961224790   -0.0036817132
 C    1.4547691633    3.3926386709    0.0085088029
 C    0.4620716768    4.4032261873    0.0274500945
 C   -0.4111807818    5.2293443061    0.0437039947
 H   -0.9225567878    1.8416362833    0.0240347403
 H    2.9134994553    0.4744817841   -0.0302970970
 H   -1.1721480101    5.9710522495    0.0582609204