16

 C    0.0266677221    1.3444453540    0.0184645822
 N    0.0087314506   -0.1081262571   -0.0119285718
 C   -1.1271747778   -0.7062488711   -0.0090976103
 N   -2.3590238825   -0.0300730806    0.0203725570
 N   -3.4743883024   -0.6535854189    0.0486584042
 N   -3.4701149806   -1.9842941136    0.0519189622
 C   -2.3449126795   -2.7834059714    0.0146790546
 C   -1.1327127816   -2.1729117875   -0.0294945652
 N    0.0843173116   -2.7743269045   -0.1209152912
 H    1.0647529982    1.6864697887    0.0478386846
 H   -0.4567881393    1.7791768838   -0.8663742764
 H   -0.5003983541    1.7488117473    0.8926390426
 H   -4.3937876436   -2.3848154762    0.0766373925
 H   -2.5096182514   -3.8526670608    0.0150004908
 H    0.1951614830   -3.7310952643    0.1699084102
 H    0.8480325673   -2.1305604876    0.0490341040