21

 C   -0.0197855119    1.2962376527   -0.3935825744
 C   -0.0251739282   -0.1263203975   -0.0819489108
 C   -0.0197143877   -1.3023881669    0.1767893991
 C   -0.0447196288   -2.7296682646    0.4878573104
 C   -1.4020104341   -3.3693017743    0.2111306074
 C   -1.8887411677   -3.8324589280   -1.1326351356
 C   -0.7656365862   -4.4695796784   -1.9614688923
 C   -0.5143348546   -5.4960701000   -0.8095769253
 C   -1.6385825653   -4.8405015990    0.0044904625
 H    0.7591938198    1.5428143523   -1.1238776457
 H   -0.9792422019    1.6161415120   -0.8155322577
 H    0.1643336140    1.9014520489    0.5012801192
 H    0.7427344912   -3.2394293498   -0.0784682240
 H    0.2084194261   -2.8795637480    1.5463734167
 H   -2.1985059385   -2.9045249595    0.7884285544
 H   -2.8314053432   -3.4830790509   -1.5372970106
 H   -1.1365914299   -4.9561667728   -2.8659253853
 H    0.0646047303   -3.8135775647   -2.2430275006
 H   -0.7609848697   -6.5157912350   -1.1128883051
 H    0.4811231724   -5.5089163772   -0.3530984002
 H   -2.3591845761   -5.3820618692    0.6067539583