21

 C   -0.2724606852    1.5539491710    0.0190911657
 C    0.0453472969    0.0612089322   -0.0186115638
 C    0.7866045412   -0.4831572191   -1.2715154435
 C    2.0994235928    0.2737541638   -1.5943088810
 C    2.7762947355   -0.5176992504   -0.4505306371
 C    2.4023513942    0.0553234764    0.9376785900
 C    0.9664987926   -0.4929491522    1.0993162577
 O    1.1232339203   -1.8614462220    0.6932526246
 C    1.6529449117   -1.6093054090   -0.5919318874
 H    0.6236680402    2.1791796385   -0.0205897750
 H   -0.9087122053    1.8389173438   -0.8254108887
 H   -0.8110760531    1.8119077711    0.9376354454
 H   -0.8962517167   -0.4935884898    0.0677736475
 H    0.1157663145   -0.7295610796   -2.0959078491
 H    2.4901702150   -0.0173582606   -2.5740510550
 H    2.1035653482    1.3651042542   -1.5314059649
 H    3.8262847228   -0.7944177335   -0.5496707555
 H    3.0389138320   -0.3641087189    1.7215401083
 H    2.4717764043    1.1453558609    0.9863180746
 H    0.5537582434   -0.4547309230    2.1083715802
 H    1.8586550846   -2.5348005238   -1.1256499230