21

 C   -0.1909351324    1.5347879573   -0.0326182563
 C    0.0306521791    0.0317698465    0.0239288715
 O    0.8398756831   -0.4003561718   -1.0881325259
 C    1.9157097627   -1.2018370226   -0.5176343453
 C    1.2128802929   -1.8997757786    0.6536038553
 C    0.8058236017   -0.5314152417    1.2638154615
 C    2.1574189318    0.1602053950    1.2956526446
 C    2.8460851380   -0.2364611184    0.2158036178
 C    4.1615340055    0.2290809210   -0.3104915147
 H    0.7551961769    2.0751465277    0.0514148637
 H   -0.6563533493    1.8084853412   -0.9841004638
 H   -0.8563216684    1.8566333354    0.7763028807
 H   -0.9415074186   -0.4795626302   -0.0395108810
 H    2.3440034922   -1.8056181802   -1.3176729362
 H    0.3692158388   -2.5194751365    0.3353485366
 H    1.8863820926   -2.4690336593    1.2959275016
 H    0.2254858687   -0.5360119133    2.1864427100
 H    2.4475559791    0.9239451013    2.0072513999
 H    4.6306474285    0.9540375167    0.3609353408
 H    4.8586368736   -0.6069279183   -0.4502948190
 H    4.0412956336    0.7035286589   -1.2927256218