15

 O   -0.0291997461   -0.0153830991    0.0454681168
 C   -0.0023521966    1.1805898621    0.0114841474
 O   -1.1399809440    1.9288577978    0.0334427162
 C   -0.8562695696    3.3489875627    0.0240181346
 O   -0.1350442460    3.6679463709    1.1949991883
 C    1.1241236885    2.9902391796    1.2269525565
 C    1.2397672517    2.0732602034   -0.0257166340
 C    1.1029500966    2.9847889673   -1.2279335242
 C   -0.0319828722    3.6791072995   -1.2010278898
 H   -1.8200305606    3.8486022658    0.0901140837
 H    1.9354801241    3.7270961416    1.2313821322
 H    1.1707852019    2.3982718258    2.1467344206
 H    2.1405459744    1.4637882200   -0.0067349872
 H    1.8742246274    3.0533537883   -1.9847933133
 H   -0.3552176294    4.4199527543   -1.9201866377