10

 O   -0.1336363912    0.0236800734   -0.0009660191
 C    0.0230400063    1.2180579797    0.0063324118
 C    1.3379029990    1.8802597255   -0.0028087013
 N    2.5367497592    1.3738716385   -0.0201540724
 C    3.3749029077    2.4650746578   -0.0203118959
 C    2.6258638537    3.6025437375   -0.0033242618
 O    1.3211117209    3.2457733179    0.0076834320
 H   -0.8223489841    1.9367760477    0.0217312846
 H    4.4484336507    2.3625877379   -0.0326397394
 H    2.8430101778    4.6571905942    0.0026585714