19

 C    0.0349048764    1.5571975668    0.2045645166
 O    1.4775825085    1.5495357987    0.1315177882
 C    1.5105317592    0.1201388266   -0.0172299129
 C   -0.0407389166    0.0364676254   -0.0558292436
 C   -0.3115461703   -0.5603055532   -1.4626303723
 C    0.1209894624    0.4158089742   -2.5640399401
 O    1.5524005173    0.4905029910   -2.4275546099
 C    1.9163596055   -0.4369850113   -1.4062232927
 C    0.8739175892   -1.5615421081   -1.5539411840
 H   -0.3113533656    1.8492087783    1.2040379781
 H   -0.4147414850    2.2316116663   -0.5321876962
 H    2.0521128540   -0.3683697658    0.8019799927
 H   -0.5367397857   -0.5426573786    0.7245105299
 H   -1.3120416911   -0.9701830305   -1.6061431291
 H   -0.1354400012    0.0303460514   -3.5605785795
 H   -0.3068947560    1.4183436191   -2.4702787927
 H    2.9691190047   -0.6917432623   -1.5307217977
 H    0.8893285770   -2.2877091651   -0.7362729577
 H    0.9447568872   -2.0835909228   -2.5112045469