21

 C   -0.7531615882    1.3496228317   -0.0032458515
 C    0.0093096000    0.0247413798   -0.0278470247
 C    1.0503084474   -0.0825570743   -1.1735236072
 O    2.1473112362   -0.8729195094   -0.7153197789
 C    2.1457890099   -0.9493343002    0.6993433514
 C    2.9767365631    0.0645152920    1.5113584903
 C    2.6541873108    1.4766122512    1.1264951282
 C    1.6758075745    0.7325463987    1.9930656465
 C    0.8354117046   -0.3107922363    1.2272437309
 H   -0.0803837755    2.1927126960    0.1804208737
 H   -1.2662085197    1.5286572854   -0.9544549819
 H   -1.5126559599    1.3517357305    0.7852881146
 H   -0.7148493051   -0.7881298838   -0.1605871083
 H    0.6357330094   -0.5708672482   -2.0630008865
 H    1.3966018081    0.9144231009   -1.4825857010
 H    2.3367049561   -1.9859116424    0.9904889120
 H    3.8646941699   -0.1835586973    2.0800306456
 H    3.2328455701    2.2273382510    1.6565421519
 H    2.4402141780    1.7473784056    0.0996362816
 H    1.4368089825    1.0840391270    2.9894591382
 H    0.2864755478   -0.9514810881    1.9199833551