22

 C    0.5559245837    0.6366412560   -0.6990876938
 C   -0.2761271908    0.4862477601    0.5841083663
 C   -1.6109404490   -0.1667446552    0.3390603671
 N   -2.7028929622    0.4528199898    0.5215068758
 C   -3.9737747787   -0.2005697367    0.2000825125
 C   -4.9460741791    0.8495051206   -0.3398734865
 C   -3.7828036163   -1.3756901050   -0.7666866438
 C   -2.6274858942   -2.2325388427   -0.2731345603
 O   -1.4409713860   -1.4494451211   -0.0964640840
 H    1.5201627251    1.1036689657   -0.4786411864
 H    0.7437246766   -0.3368925178   -1.1588952164
 H    0.0354667272    1.2642999031   -1.4293863881
 H    0.2801966266   -0.1214570321    1.3080433202
 H   -0.4716362372    1.4599706523    1.0368654897
 H   -4.3894067872   -0.5898122067    1.1421896917
 H   -4.5698890454    1.2735092576   -1.2769278800
 H   -5.9321121737    0.4121509375   -0.5295106880
 H   -5.0549313449    1.6664973467    0.3779463333
 H   -4.6912938658   -1.9821626428   -0.8451000866
 H   -3.5528026937   -0.9945023984   -1.7692850033
 H   -2.8776894137   -2.7050211559    0.6864680145
 H   -2.3603694011   -3.0217957448   -0.9806205238