21

 C   -0.3410154572    1.5670591648    0.0848242953
 O   -0.1376558608    0.2099190008    0.4096960621
 C   -1.1930754799   -0.6498556736    0.0149349214
 C   -1.1962246519   -0.8527383112   -1.5271546077
 O   -1.6424350898   -2.1397042488   -1.9430608307
 C   -1.3645170720   -3.1767955003   -1.0112179284
 C   -2.1641731781   -2.9321027580    0.2947270098
 C   -0.9840881038   -2.0035645451    0.6976360258
 C   -0.0746625696   -2.9032564282   -0.1889832977
 H    0.4801105276    2.1324516478    0.5325088994
 H   -0.3359331011    1.7487967753   -1.0000466324
 H   -1.2931742477    1.9419125429    0.4925611129
 H   -2.1523907739   -0.2212539024    0.3508723875
 H   -1.8387255973   -0.1291235619   -2.0365349637
 H   -0.1637356672   -0.6807848190   -1.8650888597
 H   -1.4816541497   -4.1165045432   -1.5539563761
 H   -3.1601153848   -2.4943338054    0.1835532218
 H   -2.2150481470   -3.8236564581    0.9248833275
 H   -0.7392079121   -1.8648121512    1.7520418115
 H    0.2421648585   -3.8024900329    0.3443444878
 H    0.7861515478   -2.4576327022   -0.6912648465