16

 O   -0.1305457745    1.4532458703    0.0018151137
 C    0.0422239456    0.0449605798    0.0080907040
 C   -1.3582111353   -0.5600849697    0.0078873598
 C   -1.3528352485   -2.0509092957    0.0139771014
 N   -0.2904104270   -2.7982556020    0.0182974943
 N   -0.7766058414   -4.0880443740    0.0228933781
 C   -2.1520283606   -4.1739525045    0.0216745396
 O   -2.8768727820   -5.1440534921    0.0247426984
 N   -2.4981656893   -2.8148036699    0.0158212758
 H    0.7399010175    1.8613063465    0.0024823495
 H    0.5965041039   -0.3040380760   -0.8740990410
 H    0.5930295685   -0.2965925451    0.8953554630
 H   -1.9060489081   -0.1864502603    0.8824486236
 H   -1.9026600057   -0.1935628097   -0.8717929066
 H   -0.1433904968   -4.8674958412    0.0270796299
 H   -3.4506079663   -2.4933642366    0.0128566566