15

 C    0.0878750172    1.4484554273   -0.0008195559
 C    0.0419582553   -0.0464907783   -0.0074326689
 N   -0.0027665811   -0.6887479480   -1.1257401358
 C   -0.0442316871   -2.0640380371   -1.0967780194
 O   -0.0889462701   -2.6161153026   -2.3377662942
 C   -0.0393783944   -2.7514548737    0.0591924163
 O    0.0075027508   -2.1005684982    1.2621412496
 C    0.0504018955   -0.7291532220    1.3037769284
 N    0.0946765145   -0.0868786890    2.4001522094
 H    0.9846596961    1.7978234312    0.5209327195
 H    0.0765339728    1.8215759265   -1.0250293866
 H   -0.7618601690    1.8512836829    0.5597115645
 H   -0.1165790178   -3.5760191413   -2.2611456867
 H   -0.0697357487   -3.8266298720    0.1737047656
 H    0.0929677261   -0.7256036856    3.1964947442