15

 O    0.3373040274    1.0889720648   -0.5079872038
 C    0.1279880319   -0.1315362569    0.1092403640
 C   -0.0834477088   -0.2204882334    1.6347095615
 O   -1.2348159775   -1.0775976928    1.4642657238
 C   -1.3093269916   -0.8122611310    0.0362699540
 C   -2.3467932354    0.1672462873   -0.2826113172
 C   -3.1319563942    1.0452343656   -0.5268388968
 C   -1.4290935615   -2.0212598400   -0.7608665165
 C   -1.4847467321   -3.0194401597   -1.4269548077
 H   -0.4495101471    1.6345168353   -0.3721780465
 H    0.8898676665   -0.8210096506   -0.2562874411
 H    0.6993479085   -0.7026039787    2.2273253317
 H   -0.3504038748    0.7433994107    2.0882801406
 H   -3.8634766222    1.7838528285   -0.7479911919
 H   -1.5467885490   -3.9031338490   -2.0133026739