20

 C   -0.0415957494    1.4689883583    0.0811651840
 C    0.0274415559   -0.0229284346   -0.0654735891
 N   -0.0021566340   -0.5866964001   -1.2016695784
 C    0.0044752505   -2.0427567251   -1.2740368979
 C   -0.3703676986   -2.7325324912    0.0435065374
 C   -0.0695941116   -4.2249103114    0.0220259290
 O   -0.5135359432   -4.7844884521    1.2500173034
 C    0.3763709908   -2.0243880420    1.1690295743
 O    0.1158415156   -0.6165065875    1.1584545339
 H    0.8622710429    1.8457813776    0.5707666703
 H   -0.1485159569    1.9284061330   -0.9004992502
 H   -0.8902365393    1.7464233994    0.7147167437
 H   -0.6876104046   -2.3416871427   -2.0704700718
 H    1.0014103114   -2.3723721829   -1.6035682503
 H   -1.4459994177   -2.6055980095    0.2194453434
 H   -0.5792438087   -4.6888439353   -0.8374223568
 H    1.0136598028   -4.3807098111   -0.1171780752
 H   -0.3093584940   -5.7240660333    1.2481044787
 H    0.0687084676   -2.3845272191    2.1511055685
 H    1.4597104105   -2.1831378603    1.0640897331