15

 N   -0.0715920813    1.2682471133    0.3562237666
 C   -0.0117124629    0.0979445451   -0.0957211009
 O    1.0244800076   -0.4559318001   -0.8127886284
 C    0.8801978735   -1.8883993527   -0.8882308368
 C   -0.6230756440   -2.1195556375   -0.6804332143
 C   -1.1379357449   -2.9594073753    0.5180326918
 C   -1.3751579378   -1.6036532619    1.2210962988
 O   -1.6941852780   -1.2311683876    2.3037782980
 N   -1.0075113378   -0.8890020744    0.0380209873
 H    0.8058760884    1.7586741008    0.1886567323
 H    1.2482150875   -2.2112637461   -1.8631139724
 H    1.4864169103   -2.3530929500   -0.1003178608
 H   -1.1600942485   -2.2571942847   -1.6217413215
 H   -2.0397357173   -3.5472369916    0.3386586232
 H   -0.3918443747   -3.5810518273    1.0177651171