23

 C    0.0177715320    1.4784013115   -0.2323802873
 C    0.1069944776   -0.0277146931   -0.0493423609
 O    1.1685097242   -0.5880423179    0.1029642058
 C   -1.2150966212   -0.7857211843   -0.0711680931
 C   -1.0813361625   -2.2679664047    0.2885969523
 C   -2.3598550143   -3.0694375362    0.0946026689
 C   -3.5263675715   -2.6810172673    0.9854505506
 C   -2.6732346552   -3.5549717566   -1.3027846001
 C   -2.2081268536   -4.5320296351   -0.2472132426
 H    1.0181702327    1.9007280897   -0.3343369290
 H   -0.5881398309    1.7323653644   -1.1087642751
 H   -0.4772407482    1.9282180733    0.6363989036
 H   -1.9190409301   -0.2660318454    0.5917758276
 H   -1.6403365368   -0.6724057365   -1.0795933251
 H   -0.2789055363   -2.6972920860   -0.3193788804
 H   -0.7430324807   -2.3554296481    1.3289302651
 H   -3.8586530572   -1.6528657425    0.8013867184
 H   -4.3868134518   -3.3357077244    0.8155961562
 H   -3.2554740584   -2.7576195772    2.0455255597
 H   -3.7117810256   -3.5949237988   -1.6146656151
 H   -1.9817822647   -3.3052535426   -2.1014029146
 H   -1.2055061146   -4.9371349610   -0.3352642052
 H   -2.9337653028   -5.2306426712    0.1563400102