17

 C   -0.0516567937    1.6268479654   -0.0911616457
 C   -0.0318130158    0.0891080131   -0.0943219362
 C    0.6696767044   -0.4634028528    1.1681057698
 C   -1.4539670494   -0.4807533942   -0.1155317069
 O   -2.4486902958    0.1798851468    0.0187669255
 C    0.6742663184   -0.4091664293   -1.3609287255
 O    0.0768679486   -0.9628623517   -2.2597215596
 C    2.1040703717   -0.1601345550   -1.4521655456
 C    3.2863688130    0.0514055739   -1.5368569237
 H    0.9657035447    2.0258238524   -0.0680805615
 H   -0.5638196273    2.0146044349   -0.9752130811
 H   -0.5923440755    1.9842168195    0.7882973432
 H    0.1802727329   -0.0739822651    2.0655355432
 H    0.6328579478   -1.5572261690    1.2039478369
 H    1.7189865666   -0.1584776857    1.1869064180
 H   -1.4993218060   -1.5851658730   -0.2205879345
 H    4.3308055754    0.2300209498   -1.6271391863