21

 O    0.0601837832    1.3874771186   -0.1002013480
 C    0.0009561412   -0.0348895627   -0.0106426862
 C    0.7251195653   -0.5418813176    1.2460946702
 C   -0.1009630274   -0.3050880659    2.4874173169
 C   -1.4172556195   -0.0889226475    2.4594457622
 C   -2.2313966230   -0.0618502064    1.1899294848
 C   -1.4349635638   -0.5391470838   -0.0162156492
 C   -2.1387444439   -0.7137822991   -1.3314448206
 C   -1.6767997966   -1.9274018638   -0.5586521971
 H   -0.1896609190    1.7382540306    0.7621063098
 H    0.5179781241   -0.3952196154   -0.9069083824
 H    0.9478473641   -1.6128412272    1.1418497866
 H    1.6931887126   -0.0334334903    1.3265835312
 H    0.4219223063   -0.3133722937    3.4407550265
 H   -1.9544580289    0.0932195885    3.3874624589
 H   -3.1356535532   -0.6717175629    1.3124387052
 H   -2.5970536361    0.9619958296    1.0147414975
 H   -3.2042877093   -0.5104691516   -1.3704169222
 H   -1.6035482005   -0.4452994908   -2.2363546223
 H   -0.8287216186   -2.4853311823   -0.9442372908
 H   -2.4250767369   -2.5447206964   -0.0724246712