20

 C   -0.8575867485    1.4916237396    0.0770280288
 O   -0.2924735017    0.2757238232    0.5119234700
 C   -0.9719028984   -0.8524708428    0.0321015064
 C   -0.7503912713   -1.2881381728   -1.4484702827
 C   -0.5928845227   -2.7420452853   -0.9489923225
 C   -0.3603356565   -2.1912916879    0.4907823691
 O   -1.8212217757   -3.4197639080   -1.1106220529
 C   -1.7924844097   -4.7471005677   -0.6395064485
 H   -0.2722905802    2.3009998447    0.5201885315
 H   -0.8271368552    1.5928104135   -1.0184937700
 H   -1.9056483516    1.5915465085    0.4012423919
 H   -2.0443145750   -0.7860084239    0.2675606078
 H   -1.5507638791   -1.1241701914   -2.1722246742
 H    0.1923808478   -0.8872602853   -1.8304686311
 H    0.2243822242   -3.3360276516   -1.3816123685
 H    0.7035328211   -2.0623730015    0.7078265754
 H   -0.8395918787   -2.7176020599    1.3188544569
 H   -2.7774015325   -5.1807530389   -0.8294577215
 H   -1.0322649010   -5.3464514244   -1.1653552535
 H   -1.5850943155   -4.8041792381    0.4396385176