23

 C   -0.0100290414    1.5548881867   -0.2386245092
 C    0.0331410253    0.0506833215   -0.0730601194
 C    1.3334004933   -0.7102004585   -0.1696564088
 C    0.6045430580   -0.6313087000    1.1540728352
 C    1.1882602664    0.1305148289    2.3163039365
 C    0.2475855676    0.6140462754    3.4813419034
 C    1.1478174456   -0.1113408977    4.4886679665
 C    1.1883806677   -1.5777792812    4.1688592552
 C    2.0313548566   -0.6345458066    3.3540387974
 H    0.8884669466    2.0375787444    0.1564537260
 H   -0.0840570964    1.8255717198   -1.2979150698
 H   -0.8740230134    1.9905408427    0.2760157465
 H   -0.8285177568   -0.4537137949   -0.5042686361
 H    1.3572540144   -1.6547011352   -0.7025331237
 H    2.2435574564   -0.1250986255   -0.2691610642
 H    0.0825913491   -1.5392163802    1.4469718655
 H    1.7626144685    0.9852345914    1.9484242548
 H    0.2418842751    1.7010511947    3.5883371825
 H   -0.7899871720    0.2642955178    3.4407908257
 H    1.4428722715    0.2722362220    5.4576894541
 H    1.7431817944   -2.1951521262    4.8684219451
 H    0.3183541345   -2.0722242434    3.7422182122
 H    3.1100507991   -0.7360263858    3.3205385147