14

 N   -0.0695071118    1.1536557861   -0.6558782418
 C   -0.0060073880    0.0074655149   -0.0873724989
 C   -1.2443164162   -0.7308815798    0.1001401050
 C   -1.4547144848   -1.9378364127    0.6605436203
 C   -0.4909081340   -2.8383847421    1.2347126514
 C    0.8348249336   -2.6825520958    1.3432875886
 O    1.6409912578   -1.6612652089    0.9571834590
 C    1.3884222999   -0.4658309015    0.3381835029
 O    2.3434419325    0.2285153924    0.1322086780
 H    0.8741551103    1.5476291807   -0.7162328228
 H   -2.0978041443   -0.1833897086   -0.2862831237
 H   -2.4828011632   -2.2875220947    0.6880527682
 H   -0.8684335562   -3.7720139534    1.6378063075
 H    1.4511904142   -3.4467497167    1.8019975264