17

 C   -0.1246896672    1.4318729728    0.0117261774
 C   -0.0836475385   -0.0225652768    0.0028741357
 C   -0.0507866625   -1.2251407400   -0.0044074206
 C    0.0315232260   -2.6740117678   -0.0137228653
 O   -1.3074725005   -3.2220048528   -0.0034563298
 C   -1.3648812497   -4.5706799263   -0.0098294550
 O   -0.4072036668   -5.2938272772   -0.0229687301
 C   -2.8221049116   -5.0044556655    0.0022348950
 O   -2.8750981654   -6.4071452564   -0.0052079872
 H    0.8871675772    1.8515531776    0.0062446838
 H   -0.6500453347    1.8209308081   -0.8670887505
 H   -0.6361114707    1.8105073961    0.9032218652
 H    0.5572924943   -3.0430375371   -0.9011452780
 H    0.5750401852   -3.0533818256    0.8585082004
 H   -3.2918173178   -4.5589624118    0.8932696208
 H   -3.3094580288   -4.5489765577   -0.8741945040
 H   -3.8006440282   -6.6672200396    0.0067238121