20

 C   -0.0446402892    1.5329567073    0.1390264899
 C   -0.0424877994    0.0051972790    0.0190966266
 C   -1.4679290362   -0.5736475768    0.0442219601
 O   -2.1639349419   -0.2833155526    1.2476457493
 C    0.6690587997   -0.4711808127   -1.2696008643
 O    0.0311578776    0.0324216028   -2.4150227300
 C    2.1448119842   -0.0403424711   -1.3181447599
 N    2.9654430155   -0.5519648686   -0.3705116452
 O    2.5248544472    0.7293546292   -2.1867500711
 H    0.9706530184    1.9371898367    0.1949638507
 H   -0.5363447230    1.9814496080   -0.7292717582
 H   -0.5702594778    1.8456200306    1.0458666585
 H    0.4880390036   -0.4191256510    0.8831181964
 H   -2.0184837505   -0.2228597156   -0.8387168119
 H   -1.4172171427   -1.6671804399   -0.0155954528
 H   -2.4910755342    0.6186490023    1.1913425560
 H    0.6414061216   -1.5743342894   -1.2915431387
 H    0.7123562803    0.5706333425   -2.8560959006
 H    2.6438830143   -1.2122229507    0.3151123222
 H    3.9402528225   -0.3006758698   -0.3852448170