17

 O   -0.0590904981    1.3366045224    0.1260007047
 C    0.0565107746   -0.0394612332    0.0432199914
 C   -0.4071712682   -0.8788934401   -1.1305786414
 C    0.5011165099   -2.0924460621   -1.2565974403
 C    0.8220939326   -2.2524797276    0.2197588731
 C   -0.4610983760   -2.0314059900    1.0845449513
 O    0.3297819742   -1.2784122263    2.0515034996
 C    1.0773392261   -0.8591762638    0.8746955306
 C   -1.1334288668   -0.9542705791    0.2083245114
 H    0.5730536950    1.7307584868   -0.4846511588
 H   -0.8875520189   -0.4088875419   -1.9811809384
 H   -0.0115898717   -2.9666384589   -1.6738244748
 H    1.3920209212   -1.8943486044   -1.8639016751
 H    1.4793661843   -3.0544294475    0.5480668347
 H   -1.0618013801   -2.8249090919    1.5263612347
 H    2.0553766567   -0.4306823001    1.0926468658
 H   -2.1366093649   -0.5828733923    0.3608006413