14

 O    0.0549135719    1.4320652166    0.0920988626
 C   -0.0134746129    0.0634125102    0.0941140348
 C    0.3411962524   -0.8609414065    1.3173569286
 C   -0.3552571781   -1.8897131543    0.4013808887
 C   -1.3359942273   -0.7799378255   -0.0331631783
 O    0.5663313177   -1.9667188972   -0.7482338687
 C    0.8086782917   -0.6487506490   -0.9697699512
 O    1.5127637233   -0.1755456001   -1.8150158212
 H    0.6485144654    1.6812991349   -0.6322243542
 H    1.3928796224   -1.0288015278    1.5583996775
 H   -0.2386766111   -0.6108080223    2.2071928745
 H   -0.6415382588   -2.8935530512    0.6965208366
 H   -2.0668723189   -0.5227366334    0.7351548041
 H   -1.8038019976   -0.8743047943   -1.0153047439