14

 O   -0.2072333802    0.0264789091    0.1850116040
 C   -0.0499903338    1.2124151555    0.1146498627
 N    1.1775496039    1.8713519869    0.0115765005
 C    1.2215931299    3.3411443577   -0.1049620909
 C    2.7007557884    3.7164770942    0.0827496162
 C    3.4627016458    2.4153403737   -0.1080135139
 O    4.6394422675    2.2615206494   -0.2657890193
 C    2.4370009346    1.2570906885   -0.0481484733
 O    2.6901451807    0.0860792023   -0.0472793215
 H   -0.8839927383    1.9436280764    0.1311909813
 H    0.8574422307    3.6501844594   -1.0906472715
 H    0.5740599365    3.7953057453    0.6491833412
 H    3.0481065266    4.4876653272   -0.6064961031
 H    2.8948038677    4.0727585942    1.1006885976