23

 C    0.0758646038    1.5754581720    0.0303821299
 C   -0.0014091851    0.0444306216    0.0070065308
 C   -1.4271087803   -0.5282264732   -0.0303694868
 O   -2.1514864944   -0.1572548785    1.1527644963
 C   -2.2411842190   -0.1441008660   -1.2954703602
 C   -3.2928251900   -1.2647184155   -1.4563306298
 C   -2.6176025195   -2.5054294666   -0.8893421661
 C   -1.1969058977   -2.7800554016   -1.3176943077
 C   -1.4659212276   -2.0503542584   -0.0247536433
 H    1.1165845347    1.9113319552    0.0622787109
 H   -0.3871648403    2.0219493697   -0.8559594527
 H   -0.4181248011    1.9913047448    0.9162263513
 H    0.5499663025   -0.3371872299   -0.8603924764
 H    0.4965913897   -0.3564267160    0.8977516699
 H   -2.2310422954    0.8020126940    1.1603035047
 H   -2.6961625271    0.8454900310   -1.1935522417
 H   -1.5829370503   -0.0982512208   -2.1696362151
 H   -4.1791077242   -1.0348740446   -0.8556759063
 H   -3.6195218409   -1.3808159826   -2.4954687087
 H   -3.2369747963   -3.3457193768   -0.5963858021
 H   -0.8436673184   -3.8019432324   -1.2324540983
 H   -0.7772497652   -2.2450923980   -2.1640128958
 H   -1.2271669779   -2.5331920073    0.9159417372