21

 C    0.0966020506    1.5005173190    0.0252644004
 C    0.0295416375   -0.0130963764   -0.0072207932
 C   -0.0952041144   -0.6458080527   -1.1914273343
 C   -0.0631942318   -2.1429447087   -1.3434125515
 C   -1.2989388826   -2.7025447056   -0.6858548162
 C   -1.4783005455   -2.5928926792    0.6417178711
 C   -0.6114766319   -1.8616281674    1.5378714586
 C    0.0856226062   -0.7197374407    1.2775716781
 C    0.8401588424   -0.0548866583    2.4083255014
 H    1.0642345920    1.8569279492    0.3972376578
 H   -0.0443209639    1.9145176405   -0.9760854286
 H   -0.6712925226    1.9292421050    0.6802888538
 H   -0.2302211155   -0.0495441548   -2.0910253381
 H   -0.0132834315   -2.4248750547   -2.3977668891
 H    0.8289736524   -2.5502394089   -0.8464297701
 H   -2.0426411305   -3.2034828471   -1.2992598122
 H   -2.3297834625   -3.0913501195    1.1009044597
 H   -0.5984637325   -2.2130886225    2.5686787758
 H    0.8376542038   -0.6825185466    3.3027670764
 H    1.8843671632    0.1396852295    2.1351267414
 H    0.4022844573    0.9135053299    2.6780785790