21

 C    0.0602995561    1.5249054920    0.0191582865
 C   -0.1054374554    0.0188805064   -0.1027762304
 O    0.7833511307   -0.4454720248   -1.0988381800
 C    0.8059137611   -1.8594171435   -1.2577576902
 C   -0.3826116201   -2.4144911372   -2.0364692834
 C    0.0046185493   -3.0985616307   -3.1136150240
 C    1.4900276230   -3.0874619496   -3.2723605770
 C    2.0892674499   -1.7135115284   -3.5055467895
 C    2.0058660168   -2.2708967742   -2.1071495059
 H    1.0895228150    1.7760053151    0.2908097619
 H   -0.1703871452    2.0133034229   -0.9318890295
 H   -0.6108671295    1.9230403828    0.7862259091
 H    0.1139079762   -0.4735455992    0.8603871636
 H   -1.1490878207   -0.2276682880   -0.3573226012
 H    0.8657640416   -2.3196136726   -0.2559969975
 H   -1.4090059204   -2.2264635605   -1.7444517536
 H   -0.6578983707   -3.5755321550   -3.8280861821
 H    2.0119884387   -3.9642891516   -3.6378946633
 H    3.0776155560   -1.6646100354   -3.9507520381
 H    1.4208147375   -0.9055887659   -3.7794563716
 H    2.9280251099   -2.5302823228   -1.6026630938