17

 C    0.0590234928    1.3493666070    0.0082457225
 O   -0.0129708330   -0.0824895228    0.0020493883
 C   -1.2629247753   -0.5865858244    0.0109880578
 O   -2.2660161433    0.0850963266    0.0231660579
 C   -1.2398452946   -2.0282256957    0.0036385612
 C   -1.2910933389   -3.2322987777   -0.0026094695
 C   -1.3757952938   -4.6831487100   -0.0095723316
 C   -2.8215637992   -5.1949556029    0.0009070944
 O   -2.7478199620   -6.6087078702   -0.0071022979
 H    1.1220280774    1.5895500718    0.0011413062
 H   -0.4344575747    1.7644980020   -0.8742542357
 H   -0.4208029486    1.7561532081    0.9020680269
 H   -0.8661432832   -5.0840532804   -0.8942265553
 H   -0.8501426165   -5.0934056543    0.8613370277
 H   -3.3366717575   -4.8148906033    0.8952246845
 H   -3.3528608436   -4.8056723939   -0.8798732483
 H   -3.6430627660   -6.9594016298   -0.0009991789