13

 C    0.3679560073    1.5194369619    0.1274046943
 O    1.0271160474    0.3612814129   -0.3749511104
 C   -0.3079741743    0.2150601987    0.1334103291
 C   -0.4582502324   -0.5474620192    1.3853137377
 N    0.0877405413   -0.3364743986    2.5421367245
 C   -0.3780328732   -1.3700028840    3.3399327307
 C   -1.2019746500   -2.1576829951    2.6088828537
 O   -1.2629729966   -1.6412527941    1.3467825202
 H    0.7548183228    1.9046545231    1.0680239604
 H    0.0798891989    2.2601999593   -0.6171637955
 H   -1.0587694550   -0.0096997354   -0.6210069965
 H   -0.0903994767   -1.4648776006    4.3748020272
 H   -1.7852518395   -3.0420678689    2.7976200447