18

 C   -0.1077164750    1.5655002794   -0.0742331356
 C    0.0946795761    0.0642507964    0.0883087941
 C    0.8590342431   -0.6147912782   -1.1004268595
 N    1.7949169265   -1.5896746583   -0.4989434472
 C    1.7799274816   -1.3281196295    0.7541101686
 N    0.9781153309   -0.3057157291    1.2044438722
 C    0.4968612591   -0.2364324226    2.5684351067
 C   -0.0470623658   -1.2371281370   -2.0682269835
 N   -0.7917710456   -1.6971412190   -2.8222181618
 H    0.8529665565    2.0741845998   -0.1992835230
 H   -0.7280249593    1.7665662180   -0.9531317079
 H   -0.6157877563    1.9967371185    0.7935972719
 H   -0.8825669130   -0.4243507622    0.2274566810
 H    1.4462856363    0.1426760317   -1.6394658630
 H    2.4023571882   -1.8576843363    1.4706419130
 H    1.2549930915   -0.6457661426    3.2407939461
 H    0.3156533185    0.8022333112    2.8603862510
 H   -0.4368085634   -0.8026418102    2.7104001569