17

 C   -0.1564185358    1.6357392624   -0.0910423887
 C    0.0438318949    0.1198762928   -0.0319217656
 C    0.9617873646   -0.4252322410   -1.1909278418
 N    2.1755614241   -0.8959450761   -0.5373166245
 C    1.9996003359   -0.7212689821    0.7120436232
 N    2.9017367366   -0.9723783701    1.7104106851
 O    0.8313453544   -0.1831669427    1.1600713143
 C   -1.2315116935   -0.5850679252    0.0594745907
 C   -2.2893256625   -1.1538815027    0.0966136328
 H    0.8171645810    2.1307576273   -0.1484111373
 H   -0.7407802794    1.9007589284   -0.9766727607
 H   -0.6856520016    1.9907394698    0.7962763991
 H    0.4706356189   -1.2367131465   -1.7375425630
 H    1.1807929821    0.3725172876   -1.9110015975
 H    3.6417121535   -1.6019534074    1.4412470153
 H    2.4975810105   -1.1566299805    2.6156370349
 H   -3.2214357238   -1.6616635942    0.1355919339