19

 C   -0.7254593652    1.0700833845    0.2300913630
 C    0.3540703689    0.0347417054   -0.0034200409
 O    1.1752725309   -0.2393599777    0.8433071077
 C    0.3232564594   -0.6879106610   -1.3505867712
 C    1.6558792935   -1.3758260670   -1.7289849343
 C    1.2439028096   -2.7618122215   -2.1514372569
 C   -0.0518967119   -2.9992994568   -1.9594509483
 C   -0.7639440512   -1.8346940349   -1.3189373135
 O   -1.2489195879   -2.1472039425   -0.0139038746
 H   -0.7032967757    1.8373680830   -0.5515316284
 H   -1.7039910996    0.5799925885    0.1841384175
 H   -0.5948039779    1.5320498528    1.2093975690
 H    0.0296835760    0.0259451395   -2.1260473972
 H    2.1752706004   -0.8379476406   -2.5301804733
 H    2.3371518258   -1.4018221557   -0.8707402643
 H    1.9546246869   -3.4757105275   -2.5547139495
 H   -0.5690860001   -3.9309014009   -2.1593273537
 H   -1.6625009636   -1.5306505727   -1.8646925456
 H   -0.5110438485   -2.5118722549    0.4898524546