18

 C   -0.0231062819    1.4388974128   -0.0201585978
 N    0.1384814662    0.0024454857    0.0454716900
 C    0.6316563527   -0.6397728949    1.1234103678
 O    1.0030771076   -0.1287971827    2.1682003608
 C    0.6905626929   -2.1680833684    0.9121203963
 O    0.3229833359   -2.6722744628   -0.1209337294
 C    1.2382521032   -2.9345023075    2.0960006421
 O    1.2530686202   -4.2994789350    1.8132420999
 C    1.7548474775   -5.0702981330    2.8818719881
 H    0.5713055767    1.8671031712   -0.8345083096
 H   -1.0727384788    1.7127195612   -0.1724746725
 H    0.3199240002    1.8538536855    0.9288254737
 H   -0.1184585430   -0.5888635909   -0.7325749734
 H    2.2415427813   -2.5338807325    2.3254178388
 H    0.6199346438   -2.6864324033    2.9768341700
 H    2.7932438403   -4.7992567714    3.1285186323
 H    1.1443047913   -4.9543483406    3.7909141172
 H    1.7262413036   -6.1153229234    2.5659811654