23

 C    0.2187916848    0.9346071066   -0.1326346577
 O   -0.5368527409   -0.2148000296   -0.4546749028
 C    0.0287368275   -0.9574942207   -1.4905530326
 C    1.1462775356   -1.9381509733   -1.2722743102
 C   -0.2871536871   -2.4036210289   -1.6282616153
 C   -0.4257757762   -3.0810635996   -0.2532430902
 C   -0.6815460093   -4.5822159751   -0.3214989707
 C    1.0329526862   -2.6070935426    0.1096142944
 C    2.0808918811   -3.6824162181    0.3733487635
 H    1.2417408125    0.6759018655    0.1762505268
 H    0.2815161177    1.6292560417   -0.9846198724
 H   -0.2903485063    1.4360892408    0.6938904541
 H    0.0923274623   -0.4107337287   -2.4346475037
 H    2.0421279329   -1.9356262365   -1.8850603656
 H   -0.6704838664   -2.8154071591   -2.5562449590
 H   -1.1892030922   -2.6134751112    0.3762489405
 H    0.0219364933   -5.0918057143   -0.9874395641
 H   -0.6087761732   -5.0475525676    0.6669681381
 H   -1.6904761526   -4.7744750012   -0.7034192630
 H    1.0455995330   -1.8901007057    0.9382589590
 H    2.1516419722   -4.4022006282   -0.4480715274
 H    3.0694079845   -3.2239946003    0.4906334238
 H    1.8637990108   -4.2378507440    1.2916387447