14

 C    0.0106250579    1.5037118923    0.0627304136
 N    0.0121117904    0.0445596686    0.0114373111
 C    0.0727851987   -0.6466979292    1.2197438749
 N    0.1245705327   -0.0111510526    2.3198366364
 C   -0.0431147355   -0.6931689255   -1.1654721400
 O   -0.0409442578   -1.9089833168   -1.1895598839
 C   -0.1053134454    0.0707108209   -2.4007051071
 C   -0.1593757885    0.5945907197   -3.4820079958
 H    0.9178109456    1.8580393254    0.5580718458
 H   -0.0397127228    1.8978119874   -0.9499229777
 H   -0.8461124916    1.8532274864    0.6438817454
 H    0.0687797878   -1.7266065184    1.0767949584
 H    0.1642094790   -0.6674274825    3.0977914975
 H   -0.2071320006    1.0590066343   -4.4371007287