19

 C    0.0828060949    1.3472760489   -0.3106655579
 C    1.5230038949    1.5285383632    0.2159195707
 C    1.3020298735    0.1445203818    0.8176616907
 O   -0.0248901727    0.0386762439    0.3018356427
 C    2.1810229637   -1.0641655266    0.8861499625
 C    3.6764919759   -0.8103789740    0.9271740749
 O    3.8632411038    0.2491106649    1.8634715417
 C    2.8472702048    0.1625864817    2.8606487680
 C    1.6338885106   -0.4221849643    2.1618881174
 H   -0.6634095250    2.0421023873    0.0904697753
 H   -0.0241087218    1.2919876297   -1.3997236845
 H    2.2998455724    1.5902279744   -0.5477777446
 H    1.6635451871    2.3366592046    0.9354433238
 H    1.7993501253   -2.0087680724    0.5163039506
 H    4.2066566504   -1.7236783568    1.2423477148
 H    4.1069080353   -0.4750924640   -0.0227552650
 H    3.1555334941   -0.4903493112    3.6932183132
 H    2.7012591409    1.1742195588    3.2547547733
 H    0.8454675518   -0.8895348801    2.7404303324