21

 C   -0.0691624575    1.5002314640    0.1479996807
 C    0.0658977644   -0.0136938465    0.0901460859
 O    1.1427967037   -0.5641638840    0.1668468230
 C   -1.2142251097   -0.7870978720   -0.0702656033
 C   -2.2175661881   -0.7765807376    1.1256183142
 C   -2.2889438943   -2.3334760320    1.0652409062
 C   -1.2793278751   -2.3512226638   -0.1136208688
 C   -1.9234341529   -2.2845701209   -1.5221444738
 C   -1.9012353268   -0.7263094972   -1.4745846633
 H    0.9167706224    1.9577027288    0.2387447037
 H   -0.5703145877    1.8751358494   -0.7513665877
 H   -0.6908142987    1.7936971247    1.0013115375
 H   -1.7809241059   -0.4030653909    2.0560883428
 H   -3.1511908865   -0.2357264446    0.9456782057
 H   -1.9163700180   -2.8159009456    1.9715692327
 H   -3.2731768615   -2.7522631310    0.8366905108
 H   -0.3861759324   -2.9634283830    0.0023362160
 H   -1.2872038865   -2.6933281464   -2.3104304753
 H   -2.9117344114   -2.7453649862   -1.6076693724
 H   -2.8742020843   -0.2266019448   -1.4864400292
 H   -1.2773644332   -0.2756091401   -2.2512860353