12

 O    0.0219582335   -0.0512976889    0.0035802063
 C   -0.0043430272    1.1542136674    0.0073393590
 C    1.1607455122    1.9978002794    0.0013185634
 C    2.1888878936    2.6193627355   -0.0043608158
 N   -1.2430972327    1.8439463961    0.0184227524
 C   -2.4907682840    1.2890458287    0.0258922020
 C   -3.3290610813    2.3642428556    0.0352066260
 N   -2.5756388507    3.5162625669    0.0330565917
 N   -1.3252160667    3.2105459525    0.0230810827
 H    3.0890001064    3.1854461849   -0.0092844063
 H   -2.6341203666    0.2231582400    0.0237903458
 H   -4.4059901764    2.3973635819    0.0431763128