16

 N   -0.5611833207    1.1342777547    0.0776883061
 C   -0.5551048697   -0.1055645184    0.2985445804
 O   -1.0517771572   -0.9501794077   -0.6432551778
 C   -1.0049920832   -2.3110104476   -0.3321244749
 C   -1.8486867793   -2.8676876910    0.8106730236
 O   -2.8362112362   -2.0238443880    1.3310912085
 C   -3.7046563965   -1.6440161993    0.2640679503
 O   -3.4543534319   -2.5075091161   -0.8336442990
 C   -2.2365999138   -3.1525387280   -0.6090967976
 H   -0.1624740551    1.6305781600    0.8719871102
 H   -0.1876355487   -0.6229190400    1.1923995399
 H   -0.0454801237   -2.7930582083   -0.5160870514
 H   -1.4635182393   -3.5763704570    1.5334794003
 H   -4.7452303703   -1.7626802735    0.5880482599
 H   -3.5007382731   -0.6063511715   -0.0242813911
 H   -2.1622090715   -4.1071623882   -1.1141918775