19

 C    0.0039473952    1.4543930301   -0.2730714215
 O    1.3870005101    1.5741206198    0.1307391977
 C    1.4533440935    0.1810068451    0.5119658372
 C    1.6635516040   -0.0668325873    1.9992172657
 C    0.5076106465    0.5931808886    2.7986115031
 C   -0.3398720400   -0.6363122908    2.3746092352
 C    0.9896337676   -1.4404729626    2.3024032139
 O   -0.9233002302   -0.4708680417    1.0871502565
 C   -0.0212877022   -0.0492104433    0.0800879057
 H   -0.6691290789    2.0718751211    0.3328461968
 H   -0.1320477825    1.6944624696   -1.3342520008
 H    2.2017804854   -0.3575573058   -0.0836547420
 H    2.6947619417    0.1140355767    2.3096263917
 H    0.7076062082    0.5831437619    3.8730208083
 H    0.1698762055    1.5861774091    2.4984321238
 H   -1.1459227929   -0.9881065957    3.0197418767
 H    1.0561002028   -2.2341789228    1.5525640284
 H    1.2780092229   -1.8333227404    3.2800693429
 H   -0.1597049765   -0.7041805714   -0.7838617091