19

 C    0.1024513083    1.5163617123   -0.0852018092
 C    0.0588740494    0.0631234653   -0.0080113615
 C    0.0244460064   -1.1389480586    0.0506270014
 C   -0.0114521563   -2.5930923494    0.1239074750
 C   -1.4518940139   -3.1930744727    0.0358301491
 C   -2.3447145525   -2.6781907723    1.1697743182
 O   -2.0904096050   -2.7883358350   -1.1726240448
 C   -1.3378452090   -4.6602348297    0.0855422522
 C   -1.2165829973   -5.8564636334    0.0937448944
 H    0.9963732642    1.8594503076   -0.6179597850
 H   -0.7703899955    1.9110704573   -0.6169177185
 H    0.1168734343    1.9708213289    0.9116523582
 H    0.5825807833   -3.0277599361   -0.6905584416
 H    0.4511971494   -2.9440452164    1.0545060365
 H   -2.4077692799   -1.5896248988    1.1088078355
 H   -3.3457813238   -3.1022189727    1.0702030911
 H   -1.9341284105   -2.9613078835    2.1419991297
 H   -1.6122584441   -3.1856307804   -1.9088836648
 H   -1.1275058774   -6.9148739626    0.1074879042