18

 O    1.2056338455    1.6020992841    0.4954009878
 C    0.5284433734    0.5524278467   -0.1704896651
 C    1.3338402809    0.1430047972   -1.4119246200
 O    0.6612435158   -0.8517790468   -2.1774901273
 C   -0.0976696574   -0.4313740531   -3.2120111290
 N   -0.8216821116   -1.2529607846   -3.8364041206
 C    0.2435123819   -0.6583900106    0.7377558871
 C   -0.5695223917   -0.3289535164    1.8999983125
 C   -1.2425518826   -0.0509182660    2.8555594183
 H    1.8950935302    1.2198940810    1.0491615488
 H   -0.4280089426    0.9781129010   -0.4965405617
 H    1.5385187689    1.0363410714   -2.0140356952
 H    2.2938948916   -0.2923912965   -1.1126356612
 H    0.0131217126    0.6417573851   -3.4238750698
 H   -1.3045834631   -0.7823648671   -4.5986746859
 H   -0.2436278810   -1.4332943567    0.1349549495
 H    1.2039222675   -1.0882691283    1.0619262195
 H   -1.8392720482    0.1910460594    3.6997496724