15

 C   -0.3092216785    1.3459275548   -0.7333804792
 O   -0.2244110857   -0.0471532011   -1.0776662946
 C    0.9020511530   -0.6684906327   -0.6949289973
 O    1.8016167984   -0.1563791216   -0.0891931110
 C    0.8666488548   -2.1462587019   -1.1249774676
 C   -0.4466559303   -2.7949995124   -0.6321579832
 O   -0.4944564803   -3.5284649954    0.3140390709
 C    0.9667465824   -2.2750354987   -2.5717080567
 C    1.0116738652   -2.4066030334   -3.7649357892
 H   -0.2331350222    1.4765757428    0.3483788618
 H    0.4940988915    1.9056708403   -1.2177086320
 H   -1.2812672726    1.6790935451   -1.0950477832
 H    1.6987864399   -2.6397356759   -0.6177448364
 H   -1.3377672338   -2.5185778478   -1.2286211089
 H    1.0695544983   -2.5191266522   -4.8196430936