16

 O   -0.5604543419    1.3493266437    0.0374000684
 C   -0.9075805852    0.0314859327    0.4546324196
 C   -1.4184271479   -0.6578152220   -0.8115922727
 O   -0.4402054719   -0.5775401703   -1.8331864863
 C   -1.7053682529   -2.1379065374   -0.6254273025
 O   -1.4101438651   -2.7588659194    0.6275344963
 C   -2.7805272089   -2.6855928139    0.2278544389
 C   -3.6477865405   -1.8267255015    1.0060856925
 N   -4.3631129397   -1.1534855641    1.6155218640
 H   -0.0628196523    1.7735903645    0.7415458215
 H   -0.0340681136   -0.5139381168    0.8336750696
 H   -1.6798080700    0.0463616121    1.2331331721
 H   -2.3443266888   -0.1505955328   -1.1308707266
 H   -0.0934803990    0.3230897224   -1.7827196775
 H   -1.4295161394   -2.7319138566   -1.4961035510
 H   -3.2345981428   -3.6367303403   -0.0445614064