19

 C   -0.2022128833    1.2626643628    0.4751672736
 C    0.1158254507   -0.1361754492    0.0035869293
 C    1.5383815007   -0.6063605548   -0.1179838436
 N    0.6598813366   -1.1268031722    0.9135951323
 C    0.8129772666   -0.9359309690    2.2824189158
 O   -0.0687780519   -0.5294833417    3.0074603280
 N    2.0939257496   -1.2807919666    2.7403312582
 C    2.6086970699   -2.6414927131    2.6628538107
 C    2.2481474017   -2.0179146796    3.9757314568
 H    0.6011842361    1.6675006932    1.0966787031
 H   -0.3379878730    1.9231808517   -0.3873088658
 H   -1.1179589540    1.2715409676    1.0715722015
 H   -0.6033214061   -0.5546195119   -0.6992278458
 H    1.8253148269   -1.3075630569   -0.8975191156
 H    2.3205912697    0.0820361015    0.1928396530
 H    1.9447989695   -3.4058019989    2.2680673389
 H    3.6499384116   -2.7381997988    2.3679797604
 H    3.0305502597   -1.6640430646    4.6405457712
 H    1.3365057490   -2.3483444595    4.4653261979