21

 C    0.0618094998    1.4193709129   -0.2977104204
 N   -0.0324819765    0.0345752547    0.1511522495
 C   -1.3658183014   -0.5422926020    0.0991452472
 C   -1.9437943897   -0.5090783486   -1.2699558063
 N   -2.3520876705   -0.4236815282   -2.3484460428
 C   -1.3515403308   -1.9917625916    0.6600679566
 C   -0.8747615315   -1.9808374531    2.1178583175
 C   -2.7312880847   -2.6482761265    0.5378405719
 O   -0.4037250959   -2.6676360741   -0.1718898952
 H    1.1051140465    1.7397553660   -0.2361509010
 H   -0.2944252440    1.5863627701   -1.3263880536
 H   -0.5238238548    2.0608244907    0.3706831172
 H    0.5914113792   -0.5660925152   -0.3771585718
 H   -2.0263615365    0.0585301737    0.7369847172
 H   -1.5896478776   -1.4603819902    2.7634597931
 H   -0.7865514023   -3.0090008989    2.4866139461
 H    0.0932215926   -1.4855840826    2.1981119882
 H   -3.0448346590   -2.7066926970   -0.5066280114
 H   -2.6954212893   -3.6646344085    0.9452011907
 H   -3.4881522297   -2.0938589054    1.1024167260
 H   -0.3081746439   -3.5694999763    0.1502626916