22

 C    0.0093690417    1.5736698445    0.0077204534
 C    0.0497362081    0.0455109327   -0.0229728484
 C   -1.3798639305   -0.5203880610   -0.0166005532
 C    0.8242327904   -0.5411476727   -1.2454356582
 O    1.8267153651    0.3838514882   -1.6646884154
 C    1.4199739135   -1.8590314498   -0.6997709637
 C    1.5492846692   -1.6254900099    0.7979073598
 C    2.1729513777   -0.3520826718    1.2419448911
 N    0.7062602253   -0.4861168506    1.2029778031
 H    1.0124928080    2.0011260643    0.0277202817
 H   -0.5026269612    1.9655944874   -0.8761933031
 H   -0.5325030304    1.9071906044    0.8974772255
 H   -1.9528784625   -0.1473280022   -0.8716588531
 H   -1.3784038453   -1.6143899709   -0.0569010244
 H   -1.8896449887   -0.2243266041    0.9036250063
 H    0.1351718173   -0.7309031894   -2.0794962884
 H    2.3103226416   -0.0171360902   -2.3934749085
 H    0.7371889618   -2.6939892030   -0.8913911195
 H    2.3710040856   -2.1014927331   -1.1868925133
 H    1.5492027271   -2.4910235176    1.4550865886
 H    2.5824185914   -0.2770635801    2.2457282867
 H    2.6643814147    0.2579243648    0.4919718930