23

 C   -0.4635330250    1.5783737025    0.7469015637
 C   -0.3264585655    0.0542239090    0.8490708786
 C   -1.5596824619   -0.6670129754    0.3416764685
 C   -1.7336099280   -0.9727984653   -1.1270667933
 C   -1.5594579681   -2.1034418736   -0.1389865328
 C   -0.3123083322   -2.9777061409   -0.1482407980
 C   -0.1315162705   -3.7182275666    1.1887421455
 C   -0.4407256403   -3.9834077231   -1.2784878897
 O    0.3018044307   -4.0701622142   -2.2216372807
 H    0.4324390160    2.0828862220    1.1214602863
 H   -0.6184027850    1.8893605957   -0.2913523841
 H   -1.3177612413    1.9379985428    1.3309937807
 H    0.5559372296   -0.2654990798    0.2837506580
 H   -0.1391368949   -0.2242018769    1.8946401864
 H   -2.4690936351   -0.3744792494    0.8632815357
 H   -2.7022316194   -0.8273637031   -1.5923445682
 H   -0.8924509209   -0.7564353272   -1.7796255247
 H   -2.4634030954   -2.6620615751    0.0975568311
 H    0.5751379484   -2.3775173189   -0.3676386605
 H   -0.9771345289   -4.3880041327    1.3834020342
 H    0.7827808540   -4.3193824681    1.1922429459
 H   -0.0773442784   -3.0036630329    2.0146386839
 H   -1.3177276877   -4.6682006589   -1.1740212166