15

 C   -0.0166682582    1.4894775096    0.0469225933
 C   -0.0252397210   -0.0097279822   -0.0001945303
 C   -0.0911668494   -0.7168694282   -1.1554450089
 O   -0.0912708629   -2.0418950224   -1.2641583381
 N   -0.0316849327   -2.8613280329   -0.1347458589
 C    0.0129995352   -2.2465685788    1.0139506892
 N    0.0215180707   -2.9689410877    2.1588121417
 C    0.0468135303   -0.7674355902    1.2195758627
 O    0.1381124949   -0.3085233141    2.3545059189
 H    0.8905800719    1.8541368032    0.5394016182
 H   -0.0695723129    1.9230432147   -0.9550992252
 H   -0.8616534140    1.8622499274    0.6349208682
 H   -0.1472861096   -0.2600137855   -2.1391976892
 H    0.2045991545   -3.9568507129    2.1237045212
 H    0.2443090134   -2.4420579401    2.9896989171