18

 C    0.0634905396    1.4264000045    0.0182795173
 N   -0.0384795116   -0.0144036267    0.0213097157
 C   -0.0268441484   -0.8011143637   -1.1207752282
 C   -0.0212211145   -2.1219409444   -0.7325969813
 N   -0.1101996452   -3.2597191931   -1.5624436487
 C   -0.0127188751   -2.1340457276    0.6914464525
 C   -0.0160511081   -0.8247709665    1.1292841295
 C    0.0019558569   -0.2860993893    2.5222620855
 H    1.1008519649    1.7718209006    0.1210865780
 H   -0.3355919849    1.8136524689   -0.9221304817
 H   -0.5225578445    1.8535648621    0.8362735189
 H   -0.0397017119   -0.3500135171   -2.1002673957
 H    0.2149127657   -3.0725217199   -2.5029320156
 H    0.4230019543   -4.0367250119   -1.1914784714
 H   -0.0287836127   -3.0081107663    1.3262592206
 H    0.8902187055    0.3248118622    2.7290545037
 H   -0.8751694248    0.3352392534    2.7450098382
 H    0.0022583546   -1.1158842454    3.2327586828