17

 C   -0.5707773267    1.4619946157    0.0140770380
 C   -0.0360253815    0.0232104967   -0.0318517317
 C    0.9740718977   -0.2253741567   -1.1348574659
 C    2.0968541758   -0.8151592853   -0.7215605912
 C    2.0705121656   -1.0569177165    0.7556266421
 O    2.8222691720   -0.0317354000    1.5243175141
 C    1.6593474771    0.5733973693    1.9245441712
 O    1.5437552480    1.5493489232    2.5951582096
 C    0.7380030976   -0.4398664985    1.2301145891
 H    0.2382012297    2.1848519722    0.1473868587
 H   -1.0981120185    1.7028207928   -0.9143805080
 H   -1.2711104502    1.5910244432    0.8443379398
 H   -0.8947179994   -0.6467033016   -0.1776473069
 H    0.7698468773    0.0690230695   -2.1596983455
 H    2.9428261812   -1.0791831312   -1.3444221396
 H    2.3699659356   -2.0488187140    1.0966641112
 H    0.1360552686   -1.0119282988    1.9363956849