14

 C    0.0355513471   -1.1994492332   -0.0099615249
 C    0.0351933071    0.0018891891    0.0281009570
 C    0.0426271646    1.4333038874    0.0682747752
 C    0.5286872757    2.2284007486    1.2522080153
 O    1.5304433124    1.5533566430    1.9801806117
 C    2.4210514242    1.5693831580    0.8310444272
 C    1.3507388569    2.2470642909   -0.0321098461
 C    1.5618656129    3.2494512147   -1.0164288351
 N    1.7362449376    4.0650964155   -1.8194244576
 H    0.0262864551   -2.2612635101   -0.0378875800
 H   -0.7673356736    1.9287744508   -0.4620919650
 H   -0.0510002013    2.9984261549    1.7480575370
 H    3.2816049923    2.2149110239    1.0234722414
 H    2.7358988690    0.5668285866    0.5296782740