12

 O    0.0008431638    1.3605958303    0.0078045108
 C   -0.0598322809    0.0184421003    0.0011842336
 C   -1.2121125497   -0.6973899806    0.0043706503
 C   -1.1313697795   -2.1265038593   -0.0037384365
 C    0.0745771210   -2.7224968567   -0.0144117244
 O    1.2344203875   -2.0138281270   -0.0176458888
 C    1.2406828542   -0.6478034586   -0.0098869982
 O    2.2882054110   -0.0367045803   -0.0143425415
 H    0.9509418847    1.5739513614    0.0034456573
 H   -2.1702092363   -0.1910794267    0.0128399683
 H   -2.0263836258   -2.7344574618   -0.0015756411
 H    0.2605771001   -3.7872598110   -0.0214074699