21

 C   -0.2601873164    1.5691559219   -0.0117098299
 C    0.0199643173    0.0709894094   -0.0663507573
 C    0.7485794746   -0.5454390645   -1.2661763210
 C    2.2093770242   -0.2084647403   -1.3068870809
 O    2.7683369507    1.0157698168   -0.8706001857
 C    1.7861848850   -1.2358400732   -0.3181647680
 C    2.3348111529   -2.6352704059   -0.2934192399
 C    1.1083137780   -0.5557645737    0.8876391039
 O    1.8859829093    0.2797836983    1.7039632960
 H    0.6554651850    2.1605281041   -0.0707329077
 H   -0.9161288389    1.8721527361   -0.8356882864
 H   -0.7600177800    1.8312269752    0.9264681915
 H   -0.9214325467   -0.4668619812    0.0896084035
 H    0.2560021300   -0.9633779990   -2.1384324477
 H    2.7306005448   -0.6232122740   -2.1706880941
 H    2.5071426080    1.7063687705   -1.4889770349
 H    2.6239827670   -2.9739740290   -1.2937007846
 H    3.2230623754   -2.6917796176    0.3469461696
 H    1.5981055949   -3.3445926112    0.1001164981
 H    0.6572347201   -1.2946812082    1.5561806956
 H    2.3899682050    0.8497627554    1.1082145499