20

 C   -0.3452791571    1.3774823355   -0.4565065805
 C   -0.0550219272   -0.0415325170   -0.0100228396
 C   -1.1873887605   -1.0355521161   -0.2088583369
 N   -2.3713456527   -0.6944867061    0.5663851674
 C   -3.6079527588   -0.5432831644    0.0208399712
 O   -3.8849797027   -0.6996621396   -1.1494950229
 C    1.3546429512   -0.5763838597   -0.1930026028
 C    0.8358241983   -0.2624468044    1.1890882296
 O    1.2959337068    0.8654102549    1.8739707747
 H    0.4674975606    2.0482932620   -0.1742066048
 H   -0.4782373725    1.4197397010   -1.5428498361
 H   -1.2638647585    1.7518686135    0.0063461518
 H   -1.5072249559   -1.0626588759   -1.2540221902
 H   -0.8460871542   -2.0453644026    0.0555614430
 H   -2.2624946509   -0.5185159827    1.5531010730
 H   -4.3576296191   -0.2554256597    0.7851310917
 H    1.4971071661   -1.6148324509   -0.4748618500
 H    2.0834727815    0.1113553919   -0.6089568251
 H    0.5993711600   -1.1127870977    1.8318993127
 H    2.2181130455    0.7168064881    2.1072466737