16

 N   -0.1532329838   -3.8096494712   -0.4888607348
 C   -0.1081990057   -2.6585774287   -0.3365343680
 C   -0.0548710036   -1.3068461398   -0.1566589949
 C   -0.0082715116   -0.1091688328    0.0031578340
 C    0.0667456578    1.3228295559    0.1972363313
 C   -0.4912116281    1.8280066624    1.5671749716
 C    0.5659466046    2.8684598038    2.0181313974
 O    1.3983772588    3.1131783028    0.8908364481
 C    1.5160283022    1.8868841820    0.2091110153
 H   -0.4794042350    1.8153542703   -0.6146237748
 H   -1.4802648063    2.2700409926    1.4367726243
 H   -0.5814589286    1.0099284069    2.2838715915
 H    0.1344654707    3.8234849681    2.3256445465
 H    1.1624116845    2.4713540332    2.8527939034
 H    2.1865746990    1.1885900098    0.7345901372
 H    1.9117893851    2.0782804446   -0.7899280680