18

 C   -0.0776988212    1.5146489830    0.0922586768
 O    1.3186771655    1.9058536936   -0.0043849696
 C    2.1691224265    0.7388210646    0.2146994656
 C    1.2222613186   -0.2575946632    0.8929851402
 C    0.0768041618    0.0204895454   -0.0783354673
 N   -0.7569924155   -1.0207559846   -0.6720927008
 C    0.3275638775   -0.3863870979   -1.4805666633
 C    1.7601492580   -0.6937871509   -1.7738764224
 C    2.6436319441    0.0098853027   -1.0517155081
 H   -0.4865573622    1.8275788474    1.0627509174
 H   -0.6367245401    2.0004856935   -0.7112428239
 H    3.0164059702    1.0852811473    0.8099242098
 H    1.5952963254   -1.2804349637    0.8902508814
 H    0.9521860339    0.0352095490    1.9132878862
 H   -0.4762404542   -1.9197035500   -0.2847136505
 H   -0.1244231542    0.2436173634   -2.2464120515
 H    2.0516433911   -1.3122503052   -2.6179913432
 H    3.7094746047   -0.0225385847   -1.2604133567