19

 C    0.0513639452    1.2995378399   -0.1086263213
 O    0.1491870542   -0.1101831448    0.0424954996
 C    0.6492672200   -0.5996064850    1.2921608130
 C   -0.1512608424   -0.1192458883    2.4936761764
 C    0.7487846045   -2.1148840383    1.1122017744
 C    2.0794994440   -2.2676092419    0.3657200394
 O    2.9028827442   -1.1748747897    0.8225770523
 C    2.1426961739   -0.2006241375    1.3756254310
 O    2.6037799278    0.8188690178    1.8077267456
 H    0.9993261695    1.8063541546    0.1045214583
 H   -0.2222597828    1.4705493792   -1.1522883249
 H   -0.7295552695    1.7266919196    0.5332216725
 H   -1.2161052708   -0.3193865835    2.3427918324
 H    0.1767010020   -0.6349532663    3.4005461091
 H   -0.0041725887    0.9510345747    2.6549603382
 H    0.7985512737   -2.6069729006    2.0876447563
 H   -0.1010454774   -2.5112167104    0.5543957741
 H    2.6101270538   -3.1948760666    0.5891319420
 H    1.9530474890   -2.1741318231   -0.7166765184