17

 N    0.0316254029   -1.1226986747   -0.0103443427
 C    0.0251871332    0.0341928943    0.0116296123
 C    0.0091492538    1.4684805830    0.0381682195
 C    0.3830176272    2.2277783896   -1.2283209316
 C    1.2989246530    2.2917798080   -0.0449290051
 C    1.1559401522    3.4182546461    0.9824891494
 N   -0.1362037880    3.2762423849    1.6919868935
 C   -1.3450444574    3.5266934618    0.8940486038
 C   -0.8590009066    2.1384239454    1.0932381377
 H    0.7047588085    1.6207651256   -2.0674130678
 H   -0.2129493656    3.0869561672   -1.5090109563
 H    2.2549513680    1.7856731753   -0.1171145754
 H    1.9534374791    3.3280969049    1.7261093634
 H    1.2367433795    4.4143216480    0.5335538359
 H   -2.1949806559    3.8846690585    1.4693154195
 H   -1.2526584243    3.9902537262   -0.0835856150
 H   -1.3750878195    1.4651337459    1.7706909388