18

 O    0.1368528561    1.2812323126    0.4204031932
 C    0.0264363220   -0.0792914449    0.0986189959
 C   -1.4065766452   -0.4880940999   -0.0604182783
 N   -2.3851565598    0.3097554935    0.0825622675
 C   -3.6023115486   -0.4774067352   -0.1556518730
 C   -3.0790597624   -1.8873866170   -0.4609756547
 C   -3.6891441536   -3.1709467421   -0.0043551403
 C   -3.6240776079   -2.8262111126   -1.4855224494
 O   -1.6472247278   -1.7813776605   -0.3733275796
 H   -0.7694721311    1.6205279056    0.4599066315
 H    0.5593699196   -0.3088148631   -0.8372927551
 H    0.4828748525   -0.7085643897    0.8785867752
 H   -4.2480841803   -0.4521866875    0.7297352275
 H   -4.1708045354   -0.0510157806   -0.9902914822
 H   -3.0174668455   -3.9415285813    0.3568017002
 H   -4.6481559827   -3.1252874051    0.5018651821
 H   -4.5383692188   -2.5435394530   -1.9975902867
 H   -2.9099101212   -3.3715654791   -2.0920948637