18

 N   -0.2510390281    1.8488574338   -1.1285698103
 C   -0.1912890030    0.6441272430   -0.3023215762
 C   -1.6213607435    0.2664301567    0.1463081192
 C   -1.6940650148   -0.5219985138    1.4495670736
 N   -2.9391015261   -0.6176065676    1.9841140267
 O   -0.7263660780   -1.0358925974    1.9956004408
 C    0.4688225378   -0.5317876289   -1.0667398882
 N    0.9290077979   -1.5381868680   -0.2863927912
 O    0.5529979208   -0.5157004817   -2.2841485657
 H    0.6661725105    2.2871455275   -1.1273493547
 H   -0.3738704500    1.5318576767   -2.0910193243
 H    0.3919249121    0.8543696997    0.5989658724
 H   -2.1798612918    1.2014131095    0.2612079800
 H   -2.1352836446   -0.3040726077   -0.6383633804
 H   -3.7344642777   -0.1566865862    1.5786919274
 H   -3.0539793668   -1.1192309958    2.8495319332
 H    0.6444896972   -1.5694318390    0.6867270278
 H    1.2552092581   -2.3749773110   -0.7433909201