22

 C   -0.0771134806    1.5180489477    0.0604124218
 C   -0.0907480009   -0.0139161748   -0.0089015914
 C   -1.4823415549   -0.5789385222   -0.0886922218
 C   -2.5794182713   -0.3050688556   -1.1260648063
 C   -3.2427239924   -1.1751962348   -0.0541550262
 C   -4.6847629487   -1.5675049901    0.0751274980
 C   -1.9617323096   -2.0437380603    0.1787359830
 C   -2.0396045817   -1.7329497614    1.6669193633
 N   -2.5034429218   -0.4012969046    1.0858210799
 H    0.9444880719    1.8973927299    0.1562048096
 H   -0.5149301514    1.9596000552   -0.8406787444
 H   -0.6583042044    1.8671773357    0.9185366900
 H    0.4750161721   -0.3592551066   -0.8843294898
 H    0.4191851567   -0.4304756489    0.8688383023
 H   -2.9382040325    0.7264939569   -1.1961954696
 H   -2.4462132978   -0.7543171976   -2.1148302578
 H   -4.9982728158   -2.1667820657   -0.7865141248
 H   -4.8632068306   -2.1574526175    0.9799929608
 H   -5.3196379149   -0.6766710336    0.1200910147
 H   -1.6624552947   -2.9563385655   -0.3505901860
 H   -2.8031200635   -2.2397952104    2.2657667656
 H   -1.1066945332   -1.6635137256    2.2348972290