15

 N    0.1118986753    1.3619988278   -0.1100526889
 C    0.0802892120    0.0144897000    0.1893804436
 O    0.9858741267   -0.5665623156    0.7536771500
 N   -1.0793962611   -0.6258153302   -0.2328697005
 C   -1.1506311778   -2.0534679226   -0.1799834962
 C   -2.3014408475   -2.7733077851    0.5643587652
 O   -2.6373338667   -3.4993045463   -0.6632087022
 C   -1.7274944942   -2.7889323837   -1.4036047544
 O   -1.5717712460   -2.7941638344   -2.5811478649
 H    0.8455346968    1.8608078063    0.3686098318
 H   -0.7588900632    1.8636291279   -0.1908142904
 H   -1.6361736819   -0.1654782333   -0.9368382856
 H   -0.1655377376   -2.4279563363    0.1084782773
 H   -2.0233304512   -3.4628358343    1.3627291626
 H   -3.1271395436   -2.1276167601    0.8705729524