20

 C    0.0259921605    1.5487788518   -0.1022925006
 C    1.5826207352    1.4978807165    0.0023017265
 C    1.4218249878    0.1267790013    0.6557960092
 N    2.4063291957   -0.9012999932    0.9283074484
 C    1.6836716002   -0.2784628122    2.0588639600
 C    0.5423077347   -0.9972200916    2.7730493336
 C   -0.8122902330   -0.4640063223    2.2901006276
 O   -0.9791690827   -0.6321345868    0.8900219088
 C    0.0034909940   -0.0010162344    0.1011682938
 H   -0.4215602592    2.0747184842    0.7443036359
 H   -0.4095283165    1.9273039134   -1.0281720104
 H    2.0635262465    1.4327267096   -0.9781796939
 H    2.0749407098    2.2786842276    0.5857343211
 H    2.0254950089   -1.8247576664    0.7255472897
 H    2.3250554310    0.3459071461    2.6766879559
 H    0.5877978200   -2.0770495221    2.5857172911
 H    0.6226558456   -0.8582828317    3.8560047352
 H   -1.6387658439   -1.0126819496    2.7504191918
 H   -0.9158407862    0.5954171040    2.5741080221
 H   -0.0225904684   -0.5133292943   -0.8670344260