18

 C    0.3227577839    1.2397663465    0.0494478027
 N   -0.1792028089   -0.2135198899   -0.0874809685
 H    0.0346492279   -0.5349523454   -1.0774845848
 C    0.5323952905   -1.2337175662    0.8626144868
 C   -1.7761043092   -0.3092195582    0.0390616448
 C   -2.1282179230   -1.7134115429   -0.1261549875
 C   -1.9588140629   -2.9244362707   -0.2038205519
 C   -0.9711584915   -4.2305785549   -0.1184932492
 O   -1.3743239059   -5.4062221272   -0.3164730674
 O    0.2284761778   -3.7343118239    0.1582763830
 H    1.4092783127    1.2536767052   -0.1415981346
 H   -0.2078558058    1.8754985332   -0.6804383301
 H    0.1119344055    1.5748997723    1.0785780348
 H    0.3278643649   -2.4119185601    0.5057275448
 H    1.6016730494   -0.9606229094    0.8128491208
 H    0.1501792324   -1.0045702932    1.8717801189
 H   -2.0009161331    0.1100276669    1.0430252817
 H   -2.1603285746    0.3854622378   -0.7392949845