16

 C   -0.0473029256    1.5219450890    0.0814131326
 C    0.0005432271    0.0348506779   -0.0124370701
 C   -0.0368176788   -0.7902067138   -1.1155594374
 N   -0.1737212164   -0.3944526899   -2.4546557055
 C    0.0203248137   -2.1451357004   -0.6374509252
 C    0.0913141664   -2.0946314995    0.7465606221
 N    0.0906967614   -0.7866467529    1.1017012087
 C    0.0145659405   -3.2966633072   -1.4539456513
 N    0.0134368244   -4.2090958102   -2.1705669970
 H    0.9420691853    1.9797881217    0.2147770138
 H   -0.4803369594    1.9305362117   -0.8360618139
 H   -0.6763650633    1.8548312921    0.9152604605
 H    0.5004644618    0.3051596117   -2.7376925670
 H   -0.1192647805   -1.1811104218   -3.0899417035
 H    0.1424056232   -2.8898066212    1.4709659526
 H    0.1275361702   -0.4517996073    2.0490506705