14

 C   -0.0218537643    1.4292614520   -0.0147480380
 C   -0.0006362038   -0.0579691340   -0.0183098275
 N   -0.0550569119   -0.7979929238   -1.1010082599
 N   -0.0077699299   -2.0676454475   -0.6043850156
 N   -0.0217293854   -3.3097982417   -1.1369985777
 C    0.0552017453   -4.0427366631   -0.0235432513
 N    0.1171278334   -3.3741426514    1.1749729654
 C    0.0733960495   -2.1295680280    0.7391792757
 N    0.0794137616   -0.8185956125    1.1406488109
 H    0.8832896089    1.8396747273    0.4456219027
 H   -0.0812402404    1.7814417596   -1.0449520908
 H   -0.8852216781    1.8142534438    0.5385485826
 H    0.0673542085   -5.1211081049   -0.0752943245
 H    0.1297073566   -0.4760468459    2.0838136480