18

 C    0.1116237953    1.5094374903    0.0520245741
 C   -0.0685032331    0.0281759611   -0.0127436962
 C   -0.0715769720   -0.7842658196   -1.0802021886
 C   -0.1379257738   -2.2003232201   -0.6440889378
 C   -0.5572449972   -2.2477216880    0.7697438974
 N    0.8229634859   -2.7179257043    0.4502888759
 C    1.3645694715   -1.5529854415    1.2071578220
 C   -0.0253914923   -0.8448870452    1.2292896622
 O   -0.3743311571   -0.2767618595    2.4541717973
 H    1.0419632381    1.7739390565    0.5701058515
 H    0.1384654110    1.9506258032   -0.9475541392
 H   -0.6969080211    1.9914848247    0.6153674187
 H    0.0422774021   -0.4825312269   -2.1142431492
 H   -0.3799479230   -2.9988424325   -1.3345161789
 H   -1.3190050564   -2.8713455136    1.2286868395
 H    1.6222955717   -1.9068485777    2.2081080060
 H    2.2096013820   -1.0254945616    0.7530292054
 H   -1.2525657716    0.1109173247    2.3718629400