19

 C    0.3330199768    0.4496079763   -0.7173661549
 O   -0.2327509271    0.2318331046    0.5733948199
 C    0.5167931370   -0.4314960171    1.4920500425
 C    1.9189433102   -0.8723736447    1.3600835805
 C    0.9205094067   -1.9963844404    1.6134146125
 C    0.4573464597   -1.9662390051    3.0680430233
 C    0.0263302374   -0.4713087167    2.9329243502
 C    0.6651189498   -3.0325270381    0.6240165905
 O    0.9863098439   -2.9837409080   -0.5485282517
 H    0.5658293757   -0.4964841759   -1.2149774828
 H   -0.4246499210    0.9887202202   -1.2884347753
 H    1.2397549636    1.0635012877   -0.6506980451
 H    2.3227108767   -0.8944221813    0.3540628440
 H    2.6488522821   -0.6476037232    2.1378452559
 H   -0.3884015968   -2.6304709271    3.2620521115
 H    1.2375067009   -2.1676285427    3.8099413834
 H    0.4976635415    0.2513567106    3.6074004221
 H   -1.0568690993   -0.3474165280    2.9818455008
 H    0.0945504521   -3.9049828909    1.0174188926