20

 C    0.4278572257    1.3417846520   -0.3218981915
 C    0.1142898103   -0.1502046207   -0.0773096325
 C    0.7492560741   -0.5270355902    1.2486139274
 O    0.1665008450   -0.9392479344    2.2225446382
 C   -1.3878463250   -0.5147401947   -0.1327970141
 C   -2.1194504651    0.1022087461   -1.3327820029
 C   -1.5228807575   -2.0460425304   -0.2215666429
 N   -1.8992477552   -2.6696445584    0.9342119813
 O   -1.3361615242   -2.6404671717   -1.2676635982
 H    1.4922911946    1.5452209428   -0.1633147749
 H    0.1872265206    1.6294118658   -1.3466825068
 H   -0.1416010284    1.9821829668    0.3597792299
 H    0.6449139631   -0.7284723569   -0.8484511299
 H    1.8494225350   -0.3591354697    1.2858914150
 H   -1.8511405726   -0.1634610744    0.7952081708
 H   -1.6736114353   -0.2421771583   -2.2691452970
 H   -3.1683719430   -0.2082045105   -1.3341321893
 H   -2.0952888113    1.1940373385   -1.3010949740
 H   -1.6936011776   -2.2068466166    1.8071720788
 H   -1.8494901334   -3.6779061851    0.9263405826