19

 C    0.3004623892    1.0872938410   -0.3029659943
 O   -0.3683656293    0.0853762791    0.4468884603
 C    0.4619349869   -0.5733622394    1.3344525025
 C    0.1593850742   -2.0225995202    1.6006146864
 C   -0.9284015670   -2.7574546935    0.8331260559
 O   -0.7266131990   -2.7529078823   -0.5765261946
 C    0.6065016487   -2.9784373203   -0.9119604123
 O    1.4401127547   -1.9003679418   -0.5433998817
 C    1.4142156102   -1.6444668261    0.8310452922
 H    1.0980297355    0.6543241826   -0.9169831269
 H   -0.4482332913    1.5504355753   -0.9495322814
 H    0.7290190205    1.8590906028    0.3541960687
 H    0.8117734234    0.0315784200    2.1745224743
 H    0.2907401482   -2.3680648150    2.6212214004
 H   -0.9651534659   -3.7983755467    1.1926182047
 H   -1.9083365199   -2.3020651860    0.9970916823
 H    0.9732361792   -3.9096424100   -0.4420147677
 H    0.6619667999   -3.0523010301   -1.9994103664
 H    2.3879522119   -1.7483406095    1.3051583476