16

 N   -0.0978716325   -1.1262508528   -0.2558961940
 C   -0.0934175664    0.0285569743   -0.2177530279
 C   -0.0520833246    1.4882607215   -0.1659677049
 C    1.3628032645    1.9965066572    0.1424422002
 C    2.3571488401    1.8789971381   -1.0425225382
 N    2.0503982325    3.2852937469   -1.3974661299
 C    1.5382831741    3.5420839892   -0.0375420394
 C    0.3543992556    4.3989750388    0.0459882903
 N   -0.5919231768    5.0569743197    0.1315959537
 H   -0.3931492989    1.8895027821   -1.1265558038
 H   -0.7594029531    1.8385728126    0.5937523725
 H    1.7069845096    1.6074331237    1.1003449738
 H    3.3855677085    1.7062433967   -0.7000346737
 H    2.1154932881    1.1527387235   -1.8240412650
 H    2.8275163775    3.8663728449   -1.6910382970
 H    2.2870319719    3.9239294136    0.6711069933