13

 C    0.0983620413    1.5307622122    0.0496703746
 C   -0.0373956112    0.0567133521   -0.0835620860
 C   -1.0973139046   -0.8013667075   -0.0426370176
 C   -2.5558607203   -0.5654635611    0.1570332948
 N   -0.5761352964   -2.0657828740   -0.2336277773
 N    0.6705331883   -2.0262852604   -0.3800726979
 O    1.0739295279   -0.6581060580   -0.2901197176
 H    0.7490984600    1.7876914719    0.8916509382
 H    0.5400720451    1.9646994773   -0.8530941413
 H   -0.8776156909    1.9914356785    0.2133269091
 H   -3.1340441787   -0.9202856646   -0.7020109786
 H   -2.9239467145   -1.0959262084    1.0409267603
 H   -2.7652070259    0.4987678520    0.2895462092