20

 O    0.6047220482    0.4169951930   -1.0807307802
 C    0.0132016569    0.3249133764    0.2096950858
 C   -1.4063374480   -0.1631344902    0.1433283620
 N   -1.7796305330   -1.2862643712   -0.7523444578
 C   -2.4455743102    0.0336583066   -0.9092342644
 C   -3.5666471840    0.0899423094    0.1391780755
 C   -2.4779984086   -0.1136318570    1.2226107916
 C   -2.5520638431   -0.9014074424    2.4919275588
 C   -2.3952880230    0.6049015937    2.5374907439
 H    0.1682563215    1.1379475849   -1.5467548112
 H    0.6367580022   -0.3836757965    0.7684538885
 H    0.0555140589    1.2868803737    0.7420563094
 H   -1.0411187542   -1.3119170375   -1.4590278520
 H   -2.3967459441    0.5660103736   -1.8521775903
 H   -4.0486989812    1.0693770803    0.2039491850
 H   -4.3237388336   -0.6938261221    0.0496987613
 H   -3.5124834572   -1.3226417452    2.7705602839
 H   -1.7014176264   -1.5154927854    2.7689778161
 H   -1.4379283264    1.0073888950    2.8538022087
 H   -3.2475086646    1.2029607408    2.8452430452