24

 C   -0.0817929257    1.6124235491    0.1313320284
 C    0.0062562647    0.0886692236    0.0010187237
 C    0.7786733425   -0.5597814559    1.1562131364
 C    0.8222929474   -2.1004673172    1.1431971660
 C    1.5747182873   -2.6445034262   -0.0815829787
 C    1.4237895452   -2.6133004610    2.4640268782
 C    1.3629770010   -4.1240661711    2.6590458392
 O    1.8156936721   -4.4031740733    3.9775851255
 H    0.9154519262    2.0664784457    0.1436072828
 H   -0.6375167366    2.0540509725   -0.7019141455
 H   -0.5862977043    1.9027032050    1.0596965897
 H   -1.0068432415   -0.3340943474   -0.0385775024
 H    0.4776505542   -0.1609484619   -0.9567929803
 H    1.8080072786   -0.1721884694    1.1678314399
 H    0.3258182898   -0.2336672008    2.1024198050
 H   -0.2173366451   -2.4589647761    1.0879580344
 H    1.5571333451   -3.7377085882   -0.1169404432
 H    1.1364150007   -2.2860744933   -1.0170498971
 H    2.6254601885   -2.3296835231   -0.0631812646
 H    2.4701013301   -2.2910403260    2.5478369980
 H    0.8921829560   -2.1561854304    3.3073620489
 H    0.3274251567   -4.4754609641    2.5124499382
 H    1.9896218811   -4.6378217052    1.9146813794
 H    1.8250938361   -5.3573836853    4.0953801385