22

 C    0.7614993994    1.1069985333    0.1769403122
 C   -0.2959850258    0.0480339240   -0.0531374155
 O   -1.2138692429   -0.1313455810    0.7168033613
 C   -0.2258935268   -0.7689176685   -1.3381507690
 C   -1.5048323668   -0.6218870175   -2.1436283028
 N    1.0939739243   -0.8048564160   -1.9985701793
 C    0.5903497052   -2.0318743145   -1.3427774019
 C    1.3484759176   -2.4556380830   -0.0967343266
 C    0.1852768430   -3.2146154174   -2.2027081050
 H    1.7679692064    0.6901461054    0.1022222152
 H    0.6924138384    1.8583433097   -0.6193852303
 H    0.6010246945    1.5803539126    1.1463187340
 H   -1.6353677811    0.4190755230   -2.4620317104
 H   -1.5079196959   -1.2442077064   -3.0401218714
 H   -2.3641743541   -0.8894224468   -1.5239059510
 H    0.9736190393   -0.8726033373   -3.0074571219
 H    1.7005246654   -1.6007715266    0.4818793467
 H    0.7115865324   -3.0666103810    0.5516564771
 H    2.2234115066   -3.0542773902   -0.3732510137
 H    1.0748814388   -3.7961574975   -2.4713044549
 H   -0.4899655194   -3.8823330458   -1.6566648702
 H   -0.3091850285   -2.9213965886   -3.1308820025