20

 C   -0.0962557018    1.4203426026   -0.1340525548
 C   -0.0028350315   -0.1017052191    0.0498107776
 C    0.7852162039   -0.4511338015    1.3397328165
 O    0.8457406975   -1.8337249167    1.6292556390
 C    2.1496552816    0.1210126363    1.2960709163
 N    3.2266950930    0.5357730223    1.2329598072
 C   -1.3785080158   -0.7407493825    0.0838605092
 C   -2.1384380885   -0.9696931845   -1.2000739886
 C   -1.6140887503   -2.1421236841   -0.4109421648
 H    0.8913407975    1.8864029397   -0.1871866728
 H   -0.6357982650    1.6542707125   -1.0552905335
 H   -0.6443146173    1.8795060846    0.6969410492
 H    0.5567366818   -0.5229014892   -0.7982883825
 H    0.2649362217   -0.0035271527    2.1951819616
 H    1.3008166297   -2.2754139933    0.9032630946
 H   -1.9795606309   -0.4335929346    0.9376199740
 H   -3.2062426725   -0.7822440343   -1.2077974560
 H   -1.6412231280   -0.7256967798   -2.1337731637
 H   -0.7699714010   -2.6867117971   -0.8211640797
 H   -2.3173983041   -2.7665379986    0.1279386413