14

 O    0.1785002620    1.3641170365   -0.1081637132
 C    0.0985669544   -0.0325919793   -0.0689933616
 C   -1.3870047308   -0.5180965253    0.0795293867
 C   -2.1677329157   -0.0125212840   -1.0591186465
 N   -2.7262344859    0.4375569682   -1.9646128122
 C   -1.4587991174   -1.9682361065    0.2044365072
 C   -1.4625896689   -3.1696140436    0.3119564926
 C   -1.4670427258   -4.6058166813    0.4757297909
 O   -1.8091829622   -5.3837745313   -0.3820190265
 H   -0.1621370285    1.6706876567   -0.9567029132
 H    0.5374883460   -0.5143932030   -0.9518258186
 H    0.6448296802   -0.3660858419    0.8164040257
 H   -1.7822523340   -0.0468350122    0.9886284743
 H   -1.1234880035   -4.9482951828    1.4720682343