21

 C   -0.1385304277    1.7594727625   -0.2394705405
 C   -0.2960307347    0.2351222058   -0.2295537852
 C    0.7792258868   -0.4852378528   -1.0460250208
 C    2.2168196443   -0.3793151643   -0.5225999809
 C    2.8941774701   -1.6240645881   -1.0844612487
 O    4.0632498565   -1.8558267609   -1.1887176317
 O    1.9383016194   -2.5066519703   -1.4853028566
 C    0.6090949248   -2.0216780840   -1.1830385074
 C    0.0817177107   -2.7580654063    0.0438915328
 H    0.8158140680    2.0665752157    0.2004732364
 H   -0.1763320582    2.1553991023   -1.2601928929
 H   -0.9369402764    2.2395319762    0.3339417813
 H   -0.2761110130   -0.1255140500    0.8060135401
 H   -1.2845087268   -0.0280710359   -0.6282061162
 H    0.7659979804   -0.0764566162   -2.0650591515
 H    2.7596132289    0.5139555987   -0.8331583405
 H    2.2616375361   -0.4259111383    0.5728311706
 H   -0.0090490669   -2.2711119813   -2.0506154982
 H    0.6618618368   -2.5174455235    0.9404149983
 H   -0.9650366011   -2.5025033119    0.2312086964
 H    0.1477767021   -3.8365157574   -0.1211971349