19

 O   -0.1554868673    1.3930639093   -0.0188552126
 C   -0.0273841571   -0.0206039923    0.0006134843
 C    0.6698024315   -0.5461236368   -1.2602896920
 C   -0.0507855175   -0.1046656153   -2.5489376747
 C    0.6358852647   -0.5385788165   -3.7585021727
 C    1.2239585503   -0.9081373354   -4.7397111422
 C    0.6900619909   -0.5139842397    1.2769608543
 C    0.0343423607   -0.1008640543    2.5102848063
 C   -0.5154166256    0.2322801922    3.5252903621
 H    0.7254296543    1.7755535620    0.0670426728
 H   -1.0604216448   -0.3879105480    0.0232929762
 H    1.7058792343   -0.1823883276   -1.2826665008
 H    0.7241646859   -1.6400857632   -1.2252832230
 H   -1.0751597214   -0.5001214176   -2.5459406514
 H   -0.1488754571    0.9864015556   -2.5392577179
 H    1.7313774778   -1.2278386772   -5.6157056565
 H    0.7617035338   -1.6085880991    1.2431102661
 H    1.7261113539   -0.1443028384    1.2631794172
 H   -1.0006271074    0.5311815923    4.4210723344