16

 C   -0.3524853431    1.2828497004    0.0844395091
 N   -0.0629165171   -0.1376054149    0.0415554671
 C    0.5836346110   -0.5628193383   -0.9421126034
 O    0.8645183084   -1.9144040047   -0.9984361048
 C    1.5808874426   -2.3750403905   -2.0637446623
 O    1.9806468632   -1.6907088950   -2.9678512865
 C    1.7981031026   -3.8656796118   -1.9538249982
 C    1.6330883946   -4.5634103722   -3.3011392538
 O    1.2003522007   -5.6776462972   -3.4133193880
 H    0.0641222512    1.7050583130    1.0049552153
 H    0.0413655988    1.8483015016   -0.7734845745
 H   -1.4373309130    1.4249381576    0.1305587284
 H    0.9702642652    0.0019332982   -1.7924433992
 H    2.8452220128   -4.0127844302   -1.6516366683
 H    1.1608616746   -4.3267293023   -1.1993216507
 H    1.9619119975   -3.9601706436   -4.1714686903