20

 C    0.0185582036    1.6331635451    0.0710056858
 C    0.0960123213    0.1209322435    0.1035085795
 C    1.2903390630   -0.7344313396   -0.3093233980
 C    2.6881252121   -0.1350651225   -0.3678903123
 C    2.9481983079    0.4983708907    1.0278045161
 C    1.9155440137   -0.1350491357    1.9937086187
 C    0.8165784970   -0.7335191382    1.1208212158
 O    0.1634739145   -1.8689928937    1.6196964124
 H    0.9337352257    2.1202717763    0.4113181602
 H   -0.1810498244    1.9880948804   -0.9465582812
 H   -0.7983615593    1.9935270858    0.7069976161
 H   -0.8367351770   -0.3523606973   -0.1981539446
 H    1.0727049662   -1.5881610658   -0.9420383059
 H    3.4052331137   -0.9403414018   -0.5629116136
 H    2.8121060142    0.5962141505   -1.1743387967
 H    3.9730808325    0.3203811281    1.3651434016
 H    2.8275263336    1.5836961746    0.9873398490
 H    2.3580322551   -0.9664210435    2.5529014961
 H    1.5434331452    0.5863754132    2.7308908816
 H   -0.5032235085   -1.5745765201    2.2494686095