23

 C   -0.1848206519    1.4748582721    0.1312487458
 C    0.0033421494   -0.0290451181    0.0722348208
 C   -1.2271854946   -0.7967258379   -0.3704213434
 C    1.3654398882   -0.5557408614   -0.3695342611
 C    0.9430890599   -0.6923302154    1.0622714658
 C    1.5867736600    0.0425457655    2.2449838328
 C    1.7197901873   -1.0607116865    3.3144914022
 C    0.6123521116   -2.0321007341    2.8963784499
 O    0.6429863389   -2.0151409994    1.4762114848
 H    0.7278745570    1.9946041545    0.4375406961
 H   -0.4696042562    1.8652827228   -0.8532068716
 H   -0.9791664537    1.7511750703    0.8356159289
 H   -1.5009773606   -0.5349964006   -1.3993266063
 H   -1.0623143336   -1.8742361516   -0.3165344511
 H   -2.0860267232   -0.5598805711    0.2695667284
 H    1.3847312150   -1.4684140672   -0.9566018910
 H    2.1456828042    0.1590694247   -0.6148207960
 H    2.5495878856    0.4889029402    1.9845413582
 H    0.9381548188    0.8487624514    2.6023819108
 H    2.6921353579   -1.5566315205    3.2376285166
 H    1.6049780498   -0.6877773943    4.3351847721
 H    0.7732900426   -3.0631032191    3.2221130475
 H   -0.3676138923   -1.6967906445    3.2743961698