18

 O   -0.1348136829    1.3373235059   -0.0949985607
 N    0.0192435974   -0.0644317655   -0.0434926696
 C   -1.1096352195   -0.6442711730    0.0309647255
 C   -2.4963324790   -0.0312078360    0.1085586113
 C   -3.3672101427   -1.2210358030    0.5028231923
 C   -3.3492297003   -2.5021161676   -0.3208815926
 C   -2.0840432203   -2.6049746923   -1.1708813469
 C   -1.2507255706   -2.1387415129    0.0809546425
 C   -2.5240191340   -2.3845131576    0.9503136781
 H    0.7795358030    1.6388836459   -0.1108686955
 H   -2.5172405774    0.7568455812    0.8689035717
 H   -2.7806621106    0.4415301449   -0.8385391605
 H   -4.2972490260   -1.0329894240    1.0274383367
 H   -4.2645335897   -3.0600733399   -0.4817158307
 H   -1.8562324812   -3.6455111064   -1.4151807993
 H   -2.0054907174   -1.9989990735   -2.0802904651
 H   -0.3304517349   -2.6794895763    0.2876491699
 H   -2.5904078240   -2.8999467298    1.8987883530