22

 C   -0.3061189220    1.3698296788   -0.3096973420
 C    0.4607506805    0.0695972333   -0.2033445622
 C    1.8760193855    0.0384337132    0.2630222608
 N    0.8129471981   -0.5453175601    1.0778665550
 C    0.4539869641    0.1132243175    2.3270665123
 C    1.0794883618   -0.6322799445    3.4970383901
 C    2.5719833069   -0.3951342676    3.8237862518
 C    2.0461972551    0.0764271827    5.1934856280
 O    0.6753487074   -0.0603649670    4.7644210867
 H    0.0595459327    2.1277715500    0.3870990662
 H   -0.2114244491    1.7757257625   -1.3224181336
 H   -1.3735566953    1.2163970990   -0.1154361817
 H    0.1648861867   -0.6712863116   -0.9457832248
 H    2.5964534060   -0.6569136587   -0.1604801910
 H    2.3022437469    0.9871089546    0.5905702851
 H    0.7522135402    1.1732153300    2.3793607424
 H   -0.6356987262    0.0748034340    2.4474141574
 H    0.8057446447   -1.6932594960    3.4316492137
 H    3.2112585205   -1.2785988767    3.8272153442
 H    3.0439278630    0.3864990409    3.2244999740
 H    2.2782898204   -0.5900816314    6.0343624293
 H    2.2832990521    1.1064001969    5.4853117684