17

 N   -0.2539911795   -0.9565735700   -0.5946197839
 C   -0.1081589056    0.1507785524   -0.2999758753
 C    0.0894164689    1.5572689382    0.0456917715
 C    1.5812646874    1.9498436759    0.1729972019
 C    2.3561734407    1.8693834311   -1.1874593443
 C    2.1375782383    3.3939258383   -1.3771261996
 C    1.7704456177    3.5067056525    0.1259929448
 C    2.1969938174    1.2740826950    1.3083597839
 N    2.7035174754    0.7649678155    2.2143792837
 H   -0.3734525758    2.1716262413   -0.7341604383
 H   -0.4347712661    1.7754599107    0.9820078827
 H    3.4047721793    1.6133196693   -1.0288330428
 H    1.9370556357    1.1874752470   -1.9298727998
 H    2.9987809747    3.9728896986   -1.7122913510
 H    1.2958743366    3.6208580008   -2.0359054149
 H    0.8962085512    4.1008442391    0.4023508515
 H    2.6158189737    3.8184593342    0.7411989399