18

 C   -0.0588549716    1.5275496642   -0.0475193233
 C   -0.0347790561    0.0128959619    0.0314331523
 C   -1.2507543818   -0.6469223988   -0.5905742555
 N    1.2843720434   -0.6038494118   -0.1714897052
 C    0.6752883701   -0.6706511008    1.1806488036
 C    1.4015452098    0.0640975011    2.2945918257
 C    0.1491595607   -1.9528778168    1.6026457565
 N   -0.2468032840   -2.9802119487    1.9597708382
 H    0.8791797387    1.9707542884    0.2862644343
 H   -0.2191275922    1.8360740612   -1.0862373697
 H   -0.8785367970    1.9358572510    0.5527205155
 H   -1.2889161923   -0.4158029075   -1.6609378200
 H   -1.2389611831   -1.7326905887   -0.4711223384
 H   -2.1734504141   -0.2695873652   -0.1376432853
 H    1.1956640719   -1.5011446700   -0.6443406942
 H    1.8512938800    0.9822919304    1.9180982374
 H    0.7161467938    0.3093877549    3.1112864918
 H    2.2014437738   -0.5638708950    2.6974451862