18

 C    0.9675695580    1.6147517465    0.3470859932
 C   -0.0608289998    0.4742496836    0.2895804111
 C    0.3207796602   -0.6789270292    1.1584313858
 N    0.5627571798   -1.8709424254    0.6803679215
 O    0.8916919670   -2.6213263974    1.8242930432
 C    0.8034691651   -1.7849443782    2.8614644169
 C    1.0516862698   -2.3183967639    4.2346801825
 N    1.5614373321   -1.2558332770    5.0961798842
 N    0.4586560725   -0.5788360769    2.5295634959
 H    1.9407670204    1.2831198889   -0.0267018579
 H    0.6358241145    2.4574724795   -0.2657366138
 H    1.0997609925    1.9649653893    1.3740473297
 H   -1.0375036835    0.8448875756    0.6221489870
 H   -0.1798620154    0.1082261816   -0.7336850644
 H    0.1074629462   -2.7808042017    4.5767297103
 H    1.7843894972   -3.1301180256    4.1647272779
 H    0.9822310097   -0.4295715417    4.9818317022
 H    1.4957178637   -1.5410709080    6.0673482347