23

 C    0.0797309432    1.4705542972    0.4181037517
 C   -0.1546417367   -0.0427744315    0.4248496055
 C   -1.5743261547   -0.4811496667    0.0103512749
 C   -2.6499814950    0.0991116301    0.9591944969
 C   -4.0876002502   -0.3405605243    0.6563794921
 O   -1.9489965448   -0.0418961976   -1.2950749716
 C   -1.0869298353   -0.4071667641   -2.3555075723
 C   -1.6830157756   -2.0115712801    0.0634445571
 O   -1.1165195241   -2.7135214689    0.8606055550
 H    1.1385918506    1.6911701032    0.5828238297
 H   -0.2143448495    1.9146548509   -0.5377263986
 H   -0.4846048601    1.9775116263    1.2057718905
 H    0.5692881488   -0.5285937882   -0.2390953564
 H    0.0378025761   -0.4644774602    1.4155910173
 H   -2.3755708641   -0.1772209512    1.9830050340
 H   -2.5871327443    1.1890568388    0.8874472032
 H   -4.3520226682   -0.1137874262   -0.3790300972
 H   -4.2336824181   -1.4134097558    0.8191694800
 H   -4.7878582664    0.1858173952    1.3115062666
 H   -0.1459075867    0.1585347364   -2.3434750314
 H   -0.8425104196   -1.4796384976   -2.3513300816
 H   -1.6185464857   -0.1789721002   -3.2825897306
 H   -2.3754994198   -2.4343175054   -0.6997800049