18

 C   -0.0317540994    1.5733715815    0.0413002426
 C    1.5146936729    1.4255495805    0.0046642303
 C    1.7830324400    0.7863182058    1.3807347988
 C    0.8390465913   -0.4502652758    1.2307479235
 C    1.6756379137   -1.5621141220    0.5895594053
 O    2.1025945947   -0.9795978546   -0.6554816073
 C    1.2622589705    0.1377478701   -0.8683163445
 C   -0.0067646467    0.0293945827    0.0100314267
 H   -0.4709476572    2.0740754785    0.9081174296
 H   -0.4467089497    1.9931160205   -0.8787638264
 H    2.1662056406    2.2372392680   -0.3190109684
 H    2.8255454877    0.4911759206    1.5270313986
 H    1.4947258895    1.4507144927    2.2003954616
 H    0.2931687556   -0.7477734110    2.1265096535
 H    2.5591380565   -1.8330094586    1.1778761725
 H    1.0907230643   -2.4741528042    0.3962692746
 H    1.1345597146    0.3169911224   -1.9361166609
 H   -0.8672289190   -0.5783710171   -0.2702618602