18

 O   -0.1439420778    1.4018284089    0.0133233250
 C   -0.0342767636   -0.0101116055    0.0223505919
 C    0.4802882954   -0.6078108407    1.3795346308
 C   -0.7789225246   -1.3879063482    1.7951175599
 C   -1.1668994258   -2.0854193575    0.4587349466
 C   -1.4399737904   -0.6264682164   -0.0011897128
 C   -1.9053179778   -0.3401429675    1.4707578712
 C   -3.2540388836   -0.7741855867    1.7868286194
 N   -4.3294357572   -1.1095792610    2.0495253251
 H    0.7406523582    1.7761999564    0.0689810743
 H    0.5594283106   -0.3574558250   -0.8339708947
 H    1.3460655416   -1.2645186689    1.2573426317
 H    0.7421853015    0.1906652397    2.0798318244
 H   -0.7676767844   -1.9162921757    2.7472904190
 H   -0.3892311746   -2.6495938973   -0.0635267090
 H   -2.0795609555   -2.6780770727    0.5321623525
 H   -2.0735533067   -0.3812890648   -0.8514835699
 H   -1.7508364252    0.6806960228    1.8265540245