21

 C   -0.0599965992    1.5484074168   -0.0921425513
 C   -0.0296277395    0.0194448873    0.0010818887
 C    0.7356788811   -0.5260393691    1.2142309293
 C    0.6459741303   -2.0514258854    1.3076755897
 C    1.5250850777   -2.5702166525    2.4436288898
 N    2.8765064788   -2.0660168281    2.2710922327
 C    3.1769637700   -0.8087588009    1.7914108569
 O    4.2926469831   -0.3246812821    1.8831417878
 N    2.1452379885   -0.1593151000    1.1431986661
 H    0.9372412532    1.9732752985   -0.2491948386
 H   -0.6782861372    1.8727193565   -0.9342735250
 H   -0.4761642183    1.9950394218    0.8176985660
 H   -1.0584835396   -0.3565951572    0.0594939203
 H    0.4131620872   -0.4025503149   -0.9092796552
 H    0.2729464128   -0.0992903890    2.1227230502
 H   -0.3929825991   -2.3506089862    1.4745397411
 H    0.9781232086   -2.4902115291    0.3599676238
 H    1.0957266987   -2.2676513556    3.4127377886
 H    1.5517279912   -3.6650638814    2.4333842219
 H    3.6180460771   -2.4536581260    2.8319092911
 H    2.3809225146    0.7962580966    0.9276706861