19

 O   -0.0013728473   -0.0007700482   -0.2544450419
 C   -0.0129956894    1.1619125895    0.0403124148
 C   -1.2977510351    2.0140133592    0.2808564371
 C   -0.8021210060    3.2730753893    0.9331522449
 C   -0.0096897587    3.1715235502    2.2063266458
 C    0.7434293366    3.2940592594    0.9113250361
 C    0.7281248094    4.7456797324    0.4026088421
 C   -0.8405928043    4.7243806367    0.4247608892
 C    1.2544367541    2.0486641965    0.2448125992
 H   -1.7499371336    2.2143874334   -0.6991393642
 H   -2.0204283586    1.4189009329    0.8477330621
 H   -0.0110935221    4.0030995216    2.9063861140
 H    0.0103183192    2.1971813614    2.6862905703
 H    1.2278981717    5.4840754318    1.0381515019
 H    1.1248096127    4.8432398055   -0.6110878431
 H   -1.2682395068    4.8107473112   -0.5772955119
 H   -1.3420834982    5.4491827284    1.0744415055
 H    2.0087177324    1.4736041003    0.7908313523
 H    1.6731682342    2.2608621085   -0.7474826041