18

 C    0.0997494152    1.3655402991    0.3598271072
 C   -0.0230310966   -0.0391714940   -0.1924456486
 O    0.9489165968   -0.5870084896   -0.7005371761
 C   -1.3276359079   -0.7406202919   -0.0742039917
 C   -2.5022186084   -0.0410804878    0.5803533237
 C   -1.6303362626   -1.7434507556   -1.2048832528
 C   -1.1992190725   -2.2846428276    0.1073580406
 O    0.0167211994   -2.8996367898    0.2997626782
 H    1.1087693753    1.7357499203    0.1774927132
 H   -0.6320119755    2.0350372190   -0.1048636591
 H   -0.1037726722    1.3731592318    1.4364227405
 H   -2.8311215338    0.8329343376    0.0061403467
 H   -3.3569683353   -0.7205558610    0.6485537513
 H   -2.2708130511    0.2915813399    1.5976067186
 H   -2.6698024390   -1.8265986769   -1.5049035501
 H   -0.9057551298   -1.7752115138   -2.0116394730
 H   -1.9551782138   -2.7154780051    0.7573117668
 H    0.6746282618   -2.3708592047   -0.1863525654