15

 N   -0.0629947013    1.2943887411    0.0066585832
 C    0.0285784092   -0.0514617832    0.0016803679
 O    1.0587912105   -0.7032315237   -0.0082278289
 C   -1.3073321140   -0.7396671518    0.0106091587
 N   -2.4482862376   -0.1580636287    0.0209489725
 C   -3.4403889516   -1.2433018814    0.0259806927
 C   -2.6493098972   -2.5551124590    0.0163412834
 N   -3.1386538039   -3.7247675503    0.0169443014
 N   -1.3230999592   -2.1175336543    0.0072977083
 H    0.7750369372    1.8502543106    0.0008488849
 H   -0.9739358680    1.7255068578    0.0144741532
 H   -4.0818733087   -1.1748418055    0.9110527969
 H   -4.0958331692   -1.1702870896   -0.8484309880
 H   -2.4132623048   -4.4432933797    0.0094222239
 H   -0.4829972715   -2.6733689322   -0.0012313402