12

 N   -0.0258059634    1.3023592707    0.1434530637
 C   -0.0088355805   -0.0587015594    0.0552856201
 N   -1.1350863773   -0.7847900279    0.0395163803
 N   -0.5941570883   -2.0473675700    0.0098210806
 C   -0.9130848119   -3.3672423359   -0.0258490469
 N    0.1561556745   -4.1134027017   -0.0544629888
 O    1.2659063170   -3.2009143420   -0.0358319978
 C    0.7572672838   -1.9727858674    0.0019673610
 N    1.1955944414   -0.7420038701    0.0293529756
 H    0.8128579604    1.7597056977   -0.1768055806
 H   -0.8901316841    1.7477474597   -0.1217499703
 H   -1.9122883318   -3.7717809537   -0.0301094369