21

 C    0.2435856386    1.2827581040   -0.3110117633
 O   -0.0687605990   -0.0582938491    0.0154771634
 C    0.5028400717   -0.4964507888    1.2061534225
 C    1.9595025827   -0.8862692383    1.2211000938
 C    0.8771139691   -1.9461216359    1.3392171352
 C    0.5009674187   -2.4107447983    2.7301098999
 O    1.5020112932   -3.2704568078    3.2586974689
 C    0.3139606933   -1.1041629690    3.5442713688
 C   -0.1232349830   -0.0365061577    2.5208253839
 H    1.3294390949    1.4392340594   -0.3804981455
 H   -0.2100786131    1.4875452012   -1.2835910324
 H   -0.1629732332    1.9925838538    0.4234011513
 H    2.4674310303   -0.8508075643    0.2638009666
 H    2.5880938085   -0.6585760144    2.0750744949
 H    0.7426608800   -2.6228441515    0.5040947862
 H   -0.4585593470   -2.9488971598    2.6657708530
 H    1.1994397966   -3.5843642879    4.1168862104
 H   -0.4001618107   -1.2193947837    4.3648597047
 H    1.2800427191   -0.8459465055    3.9896925096
 H    0.1707708899    0.9747032764    2.8223536712
 H   -1.2117714705   -0.0372924830    2.3905442071