13

 N    0.0216624148    1.0523490794    0.6152889949
 C   -0.0261556445   -0.0500124354    0.0338599147
 C   -1.1376196147   -1.0032034148   -0.3600275343
 C    0.0397784176   -1.8353677002   -0.9457275294
 O    0.9840096006   -0.8397991991   -0.5052137819
 C    0.2711257672   -3.1805493310   -0.2886561627
 O    1.0516443286   -3.3946706773    0.5975791151
 C   -0.6011776382   -4.2476005995   -0.8282446740
 N   -1.2989339591   -5.0593912979   -1.2654490030
 H    0.9766679596    1.4027070488    0.7005293126
 H   -1.6746634224   -1.4535271502    0.4762045170
 H   -1.8473398266   -0.6155139277   -1.0904972936
 H    0.0351712071   -1.9433190451   -2.0354156855