15

 C    0.0236017461    1.4325959979    0.1215671239
 N   -0.0138767928   -0.0156315222    0.1683314944
 C   -1.0967886962   -0.6540563831   -0.0257697675
 N   -2.3387328080   -0.0031781470   -0.3001485230
 N   -3.3821607095   -0.6226001905   -0.4869128283
 O   -3.3765584635   -2.0544156841   -0.4320212024
 N   -2.2253247086   -2.7723791555   -0.1733271098
 C   -1.1359537748   -2.1115745138    0.0211345902
 C    0.1072184168   -2.8925846224    0.3006977983
 H    0.7556848353    1.7305644620   -0.6377473363
 H   -0.9363805189    1.9116797010   -0.0896610015
 H    0.4096372844    1.7950336625    1.0812047592
 H   -0.1156133883   -3.9604285530    0.2960529729
 H    0.8705140810   -2.6646777635   -0.4494745003
 H    0.5247350571   -2.5999822882    1.2688816103