17

 C   -0.2374900809    1.2955229040   -0.3438091542
 C    1.1627036400    1.1756359765    0.1731746188
 C    0.2806309636   -0.0589796608    0.1072688272
 C   -0.2286399465   -0.7167845688    1.3343645191
 C   -0.5972426383   -0.0150550537    2.4943475632
 N   -1.0527338892   -0.6170059104    3.5889167057
 C   -1.1467803605   -1.9489830103    3.5363133467
 C   -0.7859125684   -2.6565787102    2.3958535432
 N   -0.3288954768   -2.0527699034    1.2976133457
 H   -0.9787980585    1.7811287501    0.2815528915
 H   -0.3893476165    1.4392029937   -1.4076038640
 H    1.9848267887    1.2359508377   -0.5309819795
 H    1.3866394966    1.5785263153    1.1549894591
 H    0.5069918511   -0.7769417666   -0.6722715553
 H   -0.5210426564    1.0688290714    2.5381065147
 H   -1.5172521536   -2.4572875324    4.4222111615
 H   -0.8659598844   -3.7405743320    2.3624808667