21

 C   -0.0793685616    1.4149259791   -0.0521519661
 C   -0.2419910177   -0.0951351387    0.0189000706
 O   -0.5778180477   -0.6685664846    1.0234185275
 C    0.0617456140   -0.8317915569   -1.2838987809
 O   -0.0047836122   -2.2101776225   -1.0974446949
 C    0.2720108765   -2.9455887618   -2.2764288592
 C    0.2362530979   -4.4134504412   -1.9578362654
 C   -1.0802345571   -5.1434951520   -1.9262493841
 C   -0.1045568157   -5.4007618371   -3.0463128319
 H    0.9866924634    1.6687590184   -0.0904116999
 H   -0.5407161216    1.8279342317   -0.9553659975
 H   -0.5195590890    1.8715060683    0.8349067582
 H   -0.6619216118   -0.4816706988   -2.0454415000
 H    1.0562319825   -0.5083346620   -1.6459880632
 H   -0.4714648353   -2.7093992579   -3.0582318849
 H    1.2605414668   -2.6583839535   -2.6753792474
 H    0.9808809044   -4.7241036272   -1.2312413969
 H   -1.2201662830   -5.9120857419   -1.1748907236
 H   -1.9763989171   -4.5752002099   -2.1516505708
 H   -0.3456426175   -5.0113898740   -4.0303756820
 H    0.4290447119   -6.3442794277   -3.0648710576