14

 N    0.4897293345    0.1497778770    0.8850496608
 C   -0.1355139391    0.4170225945   -0.2864383302
 O    0.2195213802    1.2600099631   -1.0871637541
 C   -1.3932780996   -0.4143733879   -0.5617903677
 C   -1.3699511586   -1.1109825911   -1.9496635009
 N   -1.3308874447   -2.5505573402   -1.6431416259
 C   -1.4296220838   -2.6464005662   -0.3881222772
 O   -1.5315719351   -1.5168967770    0.3728915823
 H    1.3237351286    0.6618129953    1.1193339604
 H    0.1580490145   -0.5858809193    1.4844321957
 H   -2.2561199385    0.2438106601   -0.4318044651
 H   -2.2618896375   -0.8892862716   -2.5430864445
 H   -0.4993013068   -0.8071122231   -2.5353750333
 H   -1.4500335141   -3.5685644136    0.1814372398