21

 C   -0.0805341726    1.4922685153    0.1238554582
 C   -0.0439787910   -0.0219996528    0.0423742559
 C   -1.2403516711   -0.6612332471   -0.6356218865
 C    1.3244792523   -0.6827865083   -0.1494943479
 C    0.6157788905   -0.7626535534    1.1642955824
 O    1.1459225263   -0.0950329958    2.3290914718
 C    0.8612920539   -1.2596724963    3.1141908974
 C   -0.6067421361   -1.5416923609    3.1542854621
 C    0.2181338973   -1.9844415206    1.9562870005
 H    0.7664141093    1.8817109982    0.6934395662
 H   -0.0579261476    1.9371725526   -0.8778693814
 H   -0.9964849384    1.8337387230    0.6197888380
 H   -1.3162924739   -0.3362541757   -1.6801961584
 H   -1.1725962161   -1.7532865835   -0.6313377889
 H   -2.1736932063   -0.3835690972   -0.1323310512
 H    1.3897425831   -1.5801049587   -0.7583015302
 H    2.1943827684   -0.0356650071   -0.1975222114
 H    1.5925380313   -1.5590031604    3.8550383047
 H   -0.9098490752   -2.3474826368    3.8161538081
 H   -1.3132261980   -0.7214474135    3.0669045341
 H    0.3030832141   -3.0123802309    1.6320282566