18

 C   -0.2348388044    1.0757041512   -0.1677415401
 O    0.5169389498   -0.1041362872    0.0916238105
 C    0.9455393166   -0.7327231519   -1.0785493133
 C    1.3677828586   -2.1718508990   -0.9287625809
 C    0.0487429237   -1.8381422604   -1.5924124249
 O   -1.1371390984   -2.0665326354   -0.8941721290
 C   -0.1467305336   -2.0556027871   -3.0789262273
 C   -0.3381843180   -3.4650143002   -3.4308876018
 N   -0.4750473553   -4.5760770106   -3.7154102304
 H    0.3694366606    1.8164060615   -0.7097045140
 H   -1.1377920086    0.8575221577   -0.7525382143
 H   -0.5201170992    1.4898550654    0.8013851158
 H    1.4814350139   -0.0864615656   -1.7752419041
 H    2.1964840921   -2.5295485285   -1.5301718118
 H    1.3123649455   -2.5927148643    0.0693882946
 H   -1.0414557055   -1.6251444142   -0.0392189578
 H   -1.0214637779   -1.4870879124   -3.4136998049
 H    0.7220274103   -1.6782210590   -3.6287627061