17

 O   -0.0186149783   -0.0185059369    0.0333417600
 C    0.0108209703    1.1802415547    0.0133620108
 O   -1.1278259696    1.9197560245    0.0579313087
 C   -0.8946317030    3.3577374916    0.0317248142
 C   -0.1193815588    3.6979293137    1.3247100922
 C    1.2190252699    2.9170545489    1.2832367916
 C    1.2565089047    2.0623983928   -0.0282622603
 C    1.0961553464    3.0098660786   -1.1977257780
 C   -0.0394215273    3.7052368932   -1.1617832863
 H   -1.8877018048    3.8046265671    0.0083099702
 H    0.0377974311    4.7775749359    1.3882096052
 H   -0.7264535113    3.3972342732    2.1830375425
 H    2.0777626788    3.5923037885    1.2849904203
 H    1.3162688908    2.2576509076    2.1495462509
 H    2.1420559936    1.4323444954   -0.0824532167
 H    1.8558213871    3.0901623366   -1.9660105008
 H   -0.3454253998    4.4533501648   -1.8822942646