16

 N   -0.4416057997    1.1937797192    0.0693248199
 C   -0.1774581410   -0.1342797684    0.2173018699
 O    0.6871139022   -0.6173945306    0.8996216392
 O   -1.0593901890   -0.8629843632   -0.5442731370
 C   -0.9954939081   -2.2546260338   -0.3542541844
 C   -1.7904429946   -2.8467992386    0.7943537319
 O   -2.4732475254   -1.9911702275    1.6446443694
 C   -2.3093087170   -2.9455123683   -0.6282619165
 O   -3.4255976201   -2.1403580522   -0.8920699989
 H    0.2533305553    1.8320857781    0.4150961398
 H   -1.0512996185    1.5030031519   -0.6671556618
 H   -0.0602616736   -2.7114456121   -0.6586377445
 H   -1.3865625667   -3.7270678010    1.2857359355
 H   -3.2813556958   -1.7410500354    1.1716523302
 H   -2.3177514971   -3.8924997626   -1.1601352623
 H   -3.0968726907   -1.3021863456   -1.2398649306