11

 N   -0.0697563396    1.2682568028   -0.2233784061
 C    0.0033441691    0.0313717149   -0.0174101477
 O    1.0206430231   -0.6423807440    0.5988647734
 C    0.7934259319   -2.0482782361    0.4672714234
 C   -0.7053333362   -2.1149424017    0.1590512017
 O   -0.9716189662   -0.8287767208   -0.4005413388
 H    0.7789718976    1.7264021027    0.0994649324
 H    1.4059388648   -2.4419445341   -0.3520751046
 H    1.0735809866   -2.5417522322    1.3996914625
 H   -0.9710154037   -2.8790859137   -0.5734694941
 H   -1.3094960773   -2.2525664877    1.0635010078