19

 C   -0.0701148979    1.5890883177   -0.1457991400
 C    1.3972945168    1.9551680728    0.1092396683
 O    2.4665191372    1.9171497455   -0.8662004894
 C    2.1738142565    0.7340894021   -0.1273867734
 C    1.2539295702   -0.2537408710   -0.8429950372
 C    0.0041519746    0.0398243552    0.0063958516
 C    0.3746094803   -0.4652834099    1.4343471914
 O    1.6098011287   -0.0017095960    2.0026397986
 C    2.7528344340    0.1457459477    1.1332204416
 H   -0.7121789413    2.0760570481    0.5938542940
 H   -0.4346438296    1.8635783610   -1.1413768388
 H    1.6266611035    2.5934874570    0.9572847552
 H    1.1282501304    0.0175643983   -1.8936859217
 H    1.5965438237   -1.2901356718   -0.7779692881
 H   -0.9114885287   -0.4778622632   -0.3039419046
 H   -0.3857615192   -0.1731313441    2.1662535069
 H    0.3820915137   -1.5663036264    1.3855008898
 H    3.2465861544   -0.8229898462    0.9716702268
 H    3.4424306428    0.8169146333    1.6514418689