19

 C   -0.1191901843    1.5953742238    0.0003451099
 C   -0.0222064056    0.0726811068    0.0051469058
 C   -1.3796955363   -0.5446602727   -0.3431500527
 C    1.1755995549   -0.5938098786   -0.7860135781
 C    2.3961697096   -0.0339681524   -0.0848443440
 C    2.0683001545   -0.0507340436    1.2227638924
 C    0.6647125336   -0.6199182042    1.2514757377
 C    0.9725959864   -1.7925722760    0.2306871327
 O    1.0291724518   -2.9762891805    0.2297058950
 H    0.8317134384    2.0706063447    0.2448449145
 H   -0.4385806871    1.9521867976   -0.9848832941
 H   -0.8677033521    1.9302500579    0.7266967211
 H   -1.7096834249   -0.2105127327   -1.3327481482
 H   -1.3572402734   -1.6388091054   -0.3515112343
 H   -2.1395297746   -0.2324335567    0.3814305809
 H    1.1728966002   -0.7150290948   -1.8674848544
 H    3.3424440761    0.2020044571   -0.5497473752
 H    2.6819015555    0.1682276783    2.0846236750
 H    0.1528776674   -0.7671550786    2.2004898959