15

 N   -0.1828824888    1.5345391635   -0.1283950498
 C    0.0483981213    0.0925067860   -0.0000757609
 C   -1.3058875125   -0.7151449374   -0.0004174550
 O   -1.4364555565   -1.4627556936   -1.2517996636
 C   -0.2032038046   -1.3927223701   -1.8117212214
 C    0.6830488981   -0.6077498002   -1.1662086318
 O    1.8534480899   -0.5742401100   -1.8166387295
 N    1.7282064057   -1.3933858541   -2.9494855641
 C    0.4975725315   -1.8760197105   -2.9397919965
 H    0.6982690011    2.0326661470   -0.0384467221
 H   -0.5316382865    1.7438341522   -1.0610131515
 H    0.5734972506   -0.0658213670    0.9465450535
 H   -1.3268627820   -1.4414959879    0.8166402830
 H   -2.1593001843   -0.0403012020    0.0852574419
 H    0.1909463569   -2.5375274259   -3.7360116120