16

 N   -0.3276526791    1.1552879283   -0.1433936436
 C   -0.1166806072   -0.0732743570    0.0069019892
 O    0.9013450981   -0.6539473697    0.7109624429
 C    0.8797475702   -2.0637606206    0.4836225599
 C   -0.5424690440   -2.3117560416   -0.0440176122
 C   -1.5206634475   -2.7852246824    1.0455644957
 C   -2.8836705762   -2.9478581830    0.5611758680
 C   -4.0010697939   -3.0934864121    0.1460567278
 O   -0.9164141244   -1.0227535581   -0.5368654775
 H    0.4072569195    1.6939517801    0.3085298527
 H    1.6465994176   -2.3298359565   -0.2521333960
 H    1.0898418524   -2.5752061733    1.4259643147
 H   -0.5625232689   -3.0045056001   -0.8880194843
 H   -1.1490950942   -3.7406114701    1.4396620670
 H   -1.4931800603   -2.0698238370    1.8776107129
 H   -4.9926439020   -3.2088012269   -0.2161123574