23

 C   -0.4560829369    1.6353919363   -1.0963592301
 C   -0.2688353970    0.2221837824   -0.5704953569
 O   -1.5347793907   -0.3967516516   -0.4845160174
 C   -1.4770858966   -1.7165283807    0.0057111556
 C   -2.8777737399   -2.2683770634    0.1215336750
 C   -3.5638679420   -2.7708161965   -1.1095122807
 C   -3.0887798439   -3.7552814727   -0.0601354044
 O   -3.7276191217   -1.6077946225    1.0152942717
 C   -3.4028294234   -1.7768165068    2.3802197811
 H    0.5089073572    2.1450800205   -1.1753882662
 H   -0.9223520291    1.6167534378   -2.0854084200
 H   -1.1008102676    2.2103521412   -0.4258035473
 H    0.3947112614   -0.3543182560   -1.2388073023
 H    0.2161351355    0.2392828387    0.4211490194
 H   -0.8910043387   -2.3623149521   -0.6699702056
 H   -0.9675666750   -1.7390977164    0.9845277711
 H   -4.6295143253   -2.5857942524   -1.1709616721
 H   -3.0320665621   -2.7122927683   -2.0523479133
 H   -2.2369675620   -4.3894082344   -0.2821576179
 H   -3.8467858036   -4.2155174346    0.5634253425
 H   -4.2141227060   -1.3237595907    2.9551354834
 H   -3.3221746417   -2.8394445422    2.6517384747
 H   -2.4636371610   -1.2753651556    2.6528600600