17

 C   -0.0870204109    1.3722293998    0.1226761816
 N   -0.0113350328   -0.0368245835   -0.2276040223
 C   -1.1737677955   -0.8983778955    0.0083906080
 C   -0.5159203107   -2.3206165143   -0.0403926161
 N    0.9143397032   -2.0999074438    0.1404869594
 C    1.1079150743   -0.8374491756    0.0407907474
 N    2.3361764638   -0.2318807813    0.1936068637
 C   -1.8212579610   -0.6260423557    1.3075309235
 N   -2.3324457496   -0.4030169354    2.3201529169
 H    0.8090836830    1.8936535786   -0.2192946796
 H   -0.9411201674    1.8238531459   -0.3900311897
 H   -0.1994738957    1.5417802719    1.2022318090
 H   -1.9296651188   -0.7601190364   -0.7714284142
 H   -0.9275607829   -2.9804931016    0.7275473032
 H   -0.7123156751   -2.7837800906   -1.0160157465
 H    3.0878237538   -0.9067167349    0.1694326754
 H    2.5112043723    0.5647941724   -0.4009193696