13

 C   -0.0598836339    1.5193027422    0.0974334681
 C    0.0335415174    0.0030996854   -0.0519308579
 C    0.7555140384   -0.4286675541   -1.3114940369
 O    1.2191521773    0.3320603719   -2.1300449045
 C    0.8721197028   -1.8738893507   -1.5020751767
 C    0.9748565136   -3.0676810271   -1.6705165072
 C    1.0881791140   -4.4151502660   -1.8561318414
 N    1.1817727949   -5.5627029314   -2.0092600637
 H    0.9344056595    1.9713747800    0.1295934548
 H   -0.5950183710    1.9633171592   -0.7454727761
 H   -0.5883597471    1.7764881832    1.0187695045
 H    0.5526589015   -0.4588903278    0.7993768375
 H   -0.9596935175   -0.4669627749   -0.0647047505