16

 O    0.2024746436    1.4920815955   -0.1025362667
 C    0.1213153216    0.0804114451   -0.0476987298
 C    0.7769487331   -0.6177025285   -1.2529474338
 N    0.0359765823   -0.3102131845   -2.4606436797
 C    0.4613194866    0.8602441690   -3.2210620800
 C    0.7396973095   -0.5113484997   -3.7252195629
 C    0.6923448278   -0.4372853976    1.2125738950
 N    1.1762938129   -0.8252026200    2.1876140406
 H    1.1243150990    1.7476393635    0.0194331818
 H   -0.9484578875   -0.1513417471   -0.0675743643
 H    1.8418792541   -0.3206597593   -1.3025071420
 H    0.7488146748   -1.7009979848   -1.0891764829
 H   -0.3377279321    1.4583277056   -3.6475614748
 H    1.3053898760    1.4338668175   -2.8442449520
 H    1.7715062932   -0.8569953143   -3.6849931789
 H    0.1469308749   -0.9408561104   -4.5271435296