19

 C   -0.0451877389    1.5352153941    0.1084233978
 C   -0.0114404622    0.0170354655   -0.0251924643
 C   -1.3824013290   -0.5669661168   -0.3564140050
 C    1.1303246827   -0.5776563170   -0.9417359971
 C    1.7108997956   -1.2771799863    0.2877453490
 O    2.0236858991   -0.2676358100    1.2477633207
 C    0.6593566496   -0.7245537085    1.1737419718
 C    0.0325700881   -1.2271859323    2.3473852986
 C   -0.5471004489   -1.6283201929    3.3222206239
 H    0.9345532888    1.9184783799    0.4035556442
 H   -0.3252493381    2.0006996220   -0.8432006453
 H   -0.7786154980    1.8463044729    0.8606647873
 H   -1.7434865301   -0.1766476782   -1.3139608395
 H   -1.3488691353   -1.6592936129   -0.4269487277
 H   -2.1143510828   -0.3060208418    0.4149979410
 H    0.7425719335   -1.2674428766   -1.6951390064
 H    1.8031943747    0.1423443836   -1.4137291577
 H    2.2535018737   -2.2129975989    0.3602475467
 H   -1.0461552926   -1.9889616257    4.1875028622