15

 N   -0.0456011057    1.2695491085   -0.0281405234
 C   -0.0297942963    0.0149538964   -0.0066865992
 O    1.1010412969   -0.7916901724   -0.0043059006
 C    0.6036449481   -2.1333356322    0.0143001457
 C   -0.6305546262   -2.0632145291   -0.8863015658
 C   -1.2148954529   -0.9405958429    0.0149045222
 C   -1.1209502625   -1.6494029366    1.3590695414
 N   -1.9234430955   -1.5947509728    2.3222598984
 O    0.0517933191   -2.3921234128    1.3089962368
 H    0.9035828707    1.6479683334   -0.0427851047
 H    1.4170152803   -2.8261643335   -0.1801710826
 H   -0.4029886681   -1.7429728259   -1.9036607247
 H   -1.2161229540   -2.9832528602   -0.8858928004
 H   -2.1758491260   -0.4904210318   -0.2042385354
 H   -1.6056370877   -2.1793773381    3.0978736623