15

 C   -0.0172378488    1.4809613871    0.0047067019
 C    0.0035862138    0.0271579421   -0.0108698728
 C    0.0342745654   -1.1743097449   -0.0252500522
 C    0.0379112114   -2.6421409196   -0.0389563851
 C   -1.4073696552   -3.2073400955    0.1204863204
 C    0.6044650659   -3.1303235151   -1.3187877455
 N    1.0094541892   -3.5140090255   -2.3292450353
 C    0.8766568311   -3.1519652523    1.0718351486
 N    1.4976228089   -3.5528261204    1.9583826677
 H    0.5854949094    1.8696854634    0.8318612465
 H    0.3889248777    1.8857116852   -0.9279165762
 H   -1.0375490172    1.8600368633    0.1221164065
 H   -2.0231848378   -2.8426397794   -0.7028202245
 H   -1.3860597180   -4.2985994126    0.1081808319
 H   -1.8216126057   -2.8586650056    1.0675325681