18

 C   -0.1885280667    1.5234501998    0.0836331415
 C    0.0486517317    0.0495191648    0.0889799269
 O   -1.0987711357   -0.8080089457   -0.0772997054
 C   -0.5695869594   -1.7376419325    0.9144056608
 C    0.7201151476   -0.9444668385    1.0318082376
 C    1.2616378590   -0.6900602681   -0.3704875045
 N    1.1601051265   -1.6346088779   -1.4373622424
 C    2.2418980704   -2.2230077131   -2.0118433390
 O    3.3920327215   -2.0515681019   -1.6667612327
 H    0.7451057352    2.0600681810    0.2735713180
 H   -0.5726468728    1.8456258412   -0.8907714250
 H   -0.9188792012    1.8052473380    0.8481940079
 H   -1.1872512609   -1.7179703140    1.8176767247
 H   -0.5025737271   -2.7613030199    0.5287031204
 H    1.3110409805   -0.7957251418    1.9255728167
 H    2.1929123890   -0.1347058183   -0.3858631981
 H    0.2364655030   -1.8026345802   -1.8079861623
 H    1.9506427894   -2.8847437828   -2.8519159351