21

 C    0.3440385500    1.6714036761   -0.1256077173
 C    0.0432500019    0.1835492714   -0.0113440840
 C    0.7301964928   -0.8087107665   -0.9992535238
 C    1.2010314353   -1.7030182460    0.1876788427
 C    0.7809356960   -3.1560197821    0.1873374624
 C    2.6485219809   -1.3672217685    0.6536770012
 C    2.0659713611   -0.2670918368    1.5593925114
 O    2.5573335318    0.5453166497    2.2908219979
 C    0.6217497228   -0.6245449438    1.1968952083
 H    1.4203912446    1.8697297814   -0.1076785638
 H   -0.0563872776    2.0740383883   -1.0626010598
 H   -0.1059321204    2.2315277060    0.7007943116
 H   -1.0404542731    0.0318693698   -0.0325792504
 H    0.0428830768   -1.3020235166   -1.6913443216
 H    1.5469520766   -0.3760096636   -1.5858328754
 H    1.2968795834   -3.7135109046   -0.6038718017
 H    1.0154066892   -3.6412932229    1.1415760102
 H   -0.2959261725   -3.2605352095    0.0145206094
 H    3.0959725816   -2.1637366632    1.2609143261
 H    3.3793579977   -1.0566540125   -0.0992433015
 H   -0.0505513388   -0.8350600661    2.0316129481