16

 O   -0.0135186912    1.4300969011   -0.1080745416
 C    0.0800808101    0.0189670717   -0.0243291269
 C   -1.2827353343   -0.5897375866    0.1227126049
 C   -2.2257562558   -0.3727619051    1.3375735581
 C   -2.9796363183   -1.5894917929    0.8025901824
 C   -2.8411903561   -1.4794549164   -0.7253450414
 O   -2.1513160556   -0.2656185520   -1.0190801809
 C   -1.7434070525   -2.0998007931    0.0637954670
 H   -0.6380075048    1.6210752257   -0.8180546086
 H    0.5778619835   -0.4099556394   -0.9079604285
 H    0.6927462566   -0.2107067587    0.8538001737
 H   -1.7208126945   -0.5971276258    2.2806617447
 H   -2.7335228071    0.5941842807    1.3903476495
 H   -3.7588502173   -2.1722442125    1.2765962256
 H   -3.5401131380   -1.8779613286   -1.4483592379
 H   -1.2311510547   -3.0509840880    0.0321346198