14

 C   -0.0316626693    1.5074357706   -0.0000411952
 C    0.0053772010    0.0049584150   -0.0218254623
 C   -0.1209969922   -0.7273438180   -1.2045897592
 C   -0.0708751554   -2.1100962920   -1.0958230569
 N    0.0894850430   -2.7353674485    0.0703839015
 C    0.1992705179   -1.9316468426    1.1340393795
 O    0.3617644733   -2.5291439399    2.3236274989
 N    0.1670499644   -0.6046029548    1.1584337734
 H    0.8963768813    1.8983228496    0.4287234768
 H   -0.1654819633    1.9255680501   -0.9999273762
 H   -0.8474617718    1.8523097412    0.6429154870
 H   -0.2520248258   -0.2405024535   -2.1624543221
 H   -0.1622281880   -2.7458641446   -1.9736956712
 H    0.3650953348   -3.4796218726    2.1460610961