19

 C   -0.0858790724    1.5009746419   -0.0823826056
 C    0.0963977878   -0.0001628549   -0.0565810154
 C    1.4759478563   -0.6148227906   -0.1649290798
 C    0.7175749548   -0.6776129258    1.1247705650
 C    1.0552010841   -0.1097739612    2.4970301558
 O    0.5039213121   -1.2809009586    3.1439037231
 C    0.2163203709   -1.9245073344    1.8742673429
 C   -1.1776852814   -2.3014776898    1.7063489927
 C   -2.3262053476   -2.6145338498    1.5371490445
 H    0.7486465041    2.0131843097    0.4086315843
 H   -0.1394322381    1.8718610585   -1.1114056688
 H   -1.0072387594    1.7995146322    0.4294378890
 H   -0.7055743527   -0.5634653726   -0.5284548020
 H    1.5956569577   -1.5317120164   -0.7340084216
 H    2.3297546872    0.0555850901   -0.2149118235
 H    2.1243094392    0.0091847092    2.7160602158
 H    0.5233803391    0.8038530572    2.7907140742
 H    0.8573622399   -2.8074655426    1.7392342251
 H   -3.3417950117   -2.8946773421    1.4017685143