17

 C   -0.1912338067    1.4788317899    0.4035626565
 C    0.0300933737    0.0311866122    0.0108004947
 C    1.3886651219   -0.3962348715   -0.4797367165
 C    0.9061731137   -0.8313508268    0.8845160552
 C   -1.2243181758   -0.6040643170   -0.6305849140
 C   -1.5881905957    0.0872023102   -1.8804967028
 N   -1.8647381109    0.6631810218   -2.8419990672
 C   -1.0905850486   -2.0457973127   -0.8810837253
 N   -0.9746958659   -3.1819320115   -1.0501869186
 H    0.7171311542    1.8915104182    0.8497749531
 H   -0.4493809805    2.0958644496   -0.4632286081
 H   -0.9973001823    1.5736487486    1.1408737955
 H    1.4460436873   -1.1553230471   -1.2521426571
 H    2.1564744958    0.3663222494   -0.5446009508
 H    1.3354429985   -0.3612960873    1.7623242680
 H    0.6539343978   -1.8774909405    1.0147428780
 H   -2.0662773065   -0.4772220854    0.0650883292