15

 N   -0.1062366615    1.2695450410   -0.2988215977
 C    0.0098813450    0.0372967030    0.0069669255
 N    1.1375125870   -0.7076995800    0.2784389743
 C    0.9735242860   -2.1135754335    0.4928168472
 C   -0.1811425669   -2.8022665064   -0.2336296071
 O   -1.0694205185   -1.9043436831   -0.8491910180
 C   -1.2139927571   -0.8557882676    0.1095766430
 O   -1.2240735633   -1.4944241243    1.3817991191
 C   -0.2831458910   -2.5300928902    1.2454365918
 H    0.8037333691    1.7340326480   -0.3499999343
 H    2.0485000665   -0.3384227009    0.0581615719
 H    1.8902770522   -2.6632119082    0.6656953225
 H   -0.1202266325   -3.7648693679   -0.7230549843
 H   -2.1398954023   -0.3103105266   -0.0557385836
 H   -0.3099218428   -3.2539748431    2.0483788498