21

 C    0.0030961075    1.7516133520   -0.0314565876
 C    1.4892565712    1.5037196683    0.0715415251
 C    1.0785927262    0.2964398587    1.0457632055
 C   -0.0614106748    0.1669643614   -0.0556730331
 C   -1.4165651099   -0.2333273991   -0.6407399447
 C   -1.1639978977    0.4056666947   -2.0847780737
 C    0.3940515399    0.3883908480   -2.2969278148
 C    1.6722819271    0.8400864721   -1.3356153262
 C    0.8949396725   -0.3863709998   -1.1670543492
 H   -0.4637249831    2.0882379703    0.8992492900
 H   -0.3510206841    2.3522409146   -0.8657094153
 H    2.2018231008    2.2699805510    0.3809021300
 H    1.7609287670   -0.5508481885    1.1505738707
 H    0.7679230368    0.6609033914    2.0275670404
 H   -1.5769935215   -1.3132692093   -0.7246459714
 H   -2.2808063958    0.2094791222   -0.1381843252
 H   -1.5875453087   -0.2408248390   -2.8620984538
 H   -1.6520657418    1.3783852638   -2.1868670396
 H    0.7372149865    0.1926287967   -3.3097576589
 H    2.6173320334    0.8733827729   -1.8700222901
 H    1.2243489885   -1.4199345223   -1.1057578381