15

 O   -0.1351438330   -0.0021505441    0.1448053850
 C    0.0133780881    1.1735338120    0.0037633136
 O   -0.9976867998    2.0764360286   -0.0231716719
 C   -0.4502781732    3.3897546382   -0.1122956056
 O    0.8931408352    3.2555089453   -0.5306642033
 C    1.3190281712    1.9565099965   -0.1675176973
 C    2.1311149703    1.9297423322    1.1160887873
 C    2.8486425171    3.1177615855    1.5845223908
 O    1.6079804024    2.7165945761    2.1836319148
 H   -1.0047164781    3.9543136879   -0.8664508841
 H   -0.5165567098    3.8643665152    0.8731709479
 H    1.9046872465    1.5236067106   -0.9857921044
 H    2.4824764770    0.9368683326    1.3974593891
 H    3.7272158361    2.9971104606    2.2150947915
 H    2.7994832301    4.0292701327    0.9949896868