21

 C   -0.1289402434    1.5596301021    0.2474521898
 C    0.0094928784    0.0433488720    0.0160101484
 C    0.7991674206   -0.6330255810    1.1435068976
 C   -1.3510712228   -0.5679698771   -0.1687015272
 O   -2.2083435109   -0.7149591936    0.9865629710
 C   -1.9617100619   -1.8705236365    0.1590818361
 C   -2.9517869644   -1.7916740184   -1.0017248687
 C   -2.3449736662   -0.3741038576   -1.3392413462
 O   -3.1797475803    0.7485018005   -1.2603272861
 H    0.8544899346    2.0386595248    0.2759512265
 H   -0.7218370881    2.0301646724   -0.5419304773
 H   -0.6289549583    1.7542825785    1.2021455292
 H    0.5487173405   -0.1087819018   -0.9298135863
 H    0.9659365860   -1.6945138064    0.9346423227
 H    1.7766086193   -0.1568191805    1.2662829695
 H    0.2572622613   -0.5542047225    2.0903478295
 H   -1.5389616199   -2.7383900560    0.6514573983
 H   -2.7724980493   -2.5268470542   -1.7902807424
 H   -4.0077643052   -1.8007391896   -0.7203268610
 H   -1.8624783207   -0.3502588082   -2.3197848409
 H   -3.4955127693    0.7742290531   -0.3473714226