20

 C   -0.1686235947    1.4756089802   -0.0039467436
 C    0.0249239183   -0.0365894396   -0.0194608928
 C    1.2355038554   -0.5770132997   -0.8531040555
 C    2.1059804777   -0.4295564587    0.4180577356
 C    0.7860893830   -0.6143935920    1.2290277614
 C    0.4809834609   -2.0930838645    1.2914418612
 O    0.0447231058   -2.6637728384    2.2614207711
 C    0.8109071626   -2.8479999005   -0.0117283438
 N    1.0999568843   -1.9956877156   -1.1823915266
 H    0.7580784771    2.0116411484    0.2237968044
 H   -0.5228557480    1.8275298487   -0.9793053570
 H   -0.9115724769    1.7674779881    0.7457202871
 H   -0.9307581095   -0.5231580516   -0.2486673537
 H    1.5224735311   -0.0260289945   -1.7531241700
 H    2.9108195798   -1.1542105617    0.5623562460
 H    2.5091387446    0.5771334348    0.5301426711
 H    0.6599335525   -0.1396962160    2.2031521360
 H    1.6802549960   -3.4799754966    0.2215867544
 H   -0.0107010438   -3.5393083378   -0.2187143263
 H    0.3563936538   -2.1007910528   -1.8634666887