17

 O   -0.1451641967    1.3689883203    0.0837393717
 N    0.0312312351   -0.0264682899   -0.0233353379
 C   -1.0814078105   -0.6234215561   -0.0875552214
 C   -2.5678354896   -0.3332898897    0.0161530258
 C   -2.9925650308   -0.9700350630   -1.3322486480
 N   -2.5538799320   -2.3804852660   -1.0623807216
 C   -3.4564518707   -2.6916681958    0.1161723925
 C   -2.6482877391   -1.6674877559    0.9013938817
 C   -1.4348229785   -2.0718455427   -0.0087972209
 H    0.7648377437    1.6814805872    0.1295512411
 H   -2.9643174053    0.6268411648    0.3322247357
 H   -4.0654583754   -0.9406604166   -1.5356631969
 H   -2.4556752703   -0.5501559394   -2.1860754016
 H   -4.5247172074   -2.5448809009   -0.0697296692
 H   -3.2789377728   -3.7141098497    0.4604786100
 H   -2.5916822277   -1.5627104656    1.9838995949
 H   -0.7421228221   -2.8907627009    0.1600081640