20

 C   -0.2885443914    1.4671177013   -0.0657666765
 C   -0.0042775634   -0.0134936519   -0.0212559320
 C   -0.7174518665   -0.8999291543    0.9948172409
 C    0.7689930283   -0.7129996203    1.0909422503
 C    1.6474559470   -1.8002339876    0.4815980261
 C    1.1119239253   -2.0079392288   -0.9570205882
 C    0.3669598440   -0.7268423075   -1.2739936802
 N    0.1180608967   -0.2209512849   -2.4168257810
 O    0.5919386098   -1.0460156378   -3.4582881922
 H    0.5562088651    2.0177064773   -0.4919159146
 H   -1.1632050551    1.6764237000   -0.6891883365
 H   -0.4828978572    1.8568681910    0.9380725375
 H   -1.3355500994   -0.3803542879    1.7191957031
 H   -1.1166126132   -1.8591029497    0.6804336186
 H    1.1611156329   -0.1346422001    1.9207200447
 H    2.6848742437   -1.4502121613    0.4465772841
 H    1.6396781655   -2.7260695807    1.0661938090
 H    1.8990065560   -2.1898758837   -1.6911533937
 H    0.4290289520   -2.8631152661   -1.0223244117
 H    0.3810201598   -0.5226789768   -4.2383687680