15

 O   -0.1184638747    1.2714092575    1.3229560471
 C    0.0311141424    1.5344729778    0.1615219952
 C    1.3927603638    1.5429523492   -0.5390140842
 C    1.5229416315    2.6455939911   -1.4793234194
 C    1.5740685229    3.5786881359   -2.2416506839
 C    1.6819053154    4.6781315609   -3.1580837740
 C    0.9321975709    5.9443779270   -2.8926773475
 N    2.3895159420    5.9186456239   -2.7524947263
 H   -0.8237900159    1.7846149617   -0.5035694075
 H    2.1732773522    1.5520099159    0.2289895598
 H    1.4805885290    0.5837238510   -1.0723391503
 H    1.8663279335    4.4047022636   -4.1938341055
 H    0.5612202561    6.5217650592   -3.7346206507
 H    0.3151623300    5.9799557252   -1.9998570839
 H    2.6381475908    5.8462266201   -1.7686077988