18

 C   -0.0624849818    1.5420813391    0.1903602328
 C   -0.0018113348    0.0204069339    0.0345259839
 C    1.0758662115   -0.5484989326   -0.9781534676
 C    1.7487318932   -1.2475561287    0.2092711326
 O    2.0948900007   -0.2379589202    1.1652511046
 C    0.7515417088   -0.7307919273    1.1559484908
 C   -1.4019514334   -0.5602499025   -0.1562589075
 N   -1.9410037096   -0.3981366975   -1.4009040038
 O   -2.0031006980   -1.1162458778    0.7440186058
 H    0.9310334194    1.9198886675    0.4430062163
 H   -0.3931666545    2.0296476277   -0.7331071341
 H   -0.7578548326    1.8245134259    0.9874852358
 H    0.6477772890   -1.2469511431   -1.7010384364
 H    1.6931546730    0.1904668440   -1.4962499461
 H    2.3289697782   -2.1624291280    0.2206796923
 H    0.3414361725   -1.1378011139    2.0701813370
 H   -1.4846221020    0.1400115918   -2.1162397425
 H   -2.8998003098   -0.6725141586   -1.5407972241