16

 C    0.0228995830    1.4863064457   -0.0092711246
 N   -0.0279816766    0.0356557152   -0.0634551593
 C    0.5456979338   -0.6989830971   -1.0428991252
 N    0.7213928358   -1.9710002461   -1.0191709521
 C    1.3670961737   -2.3090097818   -2.2874180350
 C    1.3627549124   -0.9740166838   -3.1024920025
 O    0.9258919510    0.0039300797   -2.1444999829
 C    2.7320070636   -2.8260466633   -2.0773759745
 N    3.8086329713   -3.2206385896   -1.9345397108
 H    0.9879006074    1.8680859130    0.3496315622
 H   -0.1601844021    1.8941841900   -1.0038575327
 H   -0.7636040190    1.8412748302    0.6605213203
 H   -0.1488258923   -0.4698703538    0.7994541093
 H    0.8052357462   -3.0884316972   -2.8151254561
 H    2.3440842778   -0.6826014788   -3.4789735624
 H    0.6446360342   -1.0039332524   -3.9266036438