25

 C   -0.1076389378    1.5383970999   -0.1477864270
 C   -0.0157345230    0.0144636355   -0.0314030245
 C    0.7350383850   -0.4432488162    1.2232032584
 C    0.8287869571   -1.9638636438    1.3433304618
 C    1.5719081409   -2.4449162368    2.5848174218
 O    2.0366562827   -1.6715555693    3.3921741077
 C    1.6969982313   -3.9552731660    2.7522450429
 C    2.4458277939   -4.3824091149    4.0146176735
 C    2.5547545808   -5.9028612831    4.1517140168
 H    0.8888256506    1.9920069391   -0.1877230737
 H   -0.6476846524    1.8392947282   -1.0509624792
 H   -0.6305781700    1.9691652647    0.7131841895
 H   -1.0270547401   -0.4144164061   -0.0288991449
 H    0.4809273907   -0.3917574599   -0.9230418536
 H    1.7464289456   -0.0204071133    1.2287085322
 H    0.2457268046   -0.0427036966    2.1186611080
 H   -0.1723943953   -2.4189910939    1.3514734096
 H    1.3256049719   -2.3970178160    0.4629378222
 H    0.6841518029   -4.3835625009    2.7336534717
 H    2.1861836416   -4.3561204762    1.8523682747
 H    3.4435727199   -3.9308933425    4.0061792870
 H    1.9397103245   -3.9591833371    4.8888273458
 H    1.5654122306   -6.3724217293    4.1965993218
 H    3.0892657761   -6.3438380777    3.3025154561
 H    3.0943799279   -6.1796585179    5.0625922212