16

 O   -0.0599108546    1.3409598646   -0.0685998248
 C    0.0936841974   -0.0253745844   -0.0427617325
 C    1.1509639474   -0.8631520606   -0.7570048927
 C    0.1963214900   -2.0588017909   -0.4192135149
 N    0.3491361160   -2.1522041456    1.0848658976
 C   -0.4481827269   -0.9013569956    1.0997067343
 C   -1.0018365001   -1.0343816171   -0.2974054062
 C    0.2636086863   -3.3175370532   -1.2082358031
 O   -0.3810286830   -3.5339375613   -2.2033892539
 H    0.5199247719    1.7284307842    0.5970694662
 H    1.1616335742   -0.6544869035   -1.8289639212
 H    2.1627590669   -0.9311972334   -0.3474424107
 H   -0.2748304430   -2.8981733843    1.3995636955
 H   -0.8905315420   -0.4790450546    1.9928567130
 H   -1.9808271795   -0.9634732150   -0.7496984166
 H    0.9852779590   -4.0638148693   -0.8021481500