20

 C   -0.0270140840    1.5320958313    0.0482318392
 C    1.2722594518    0.7436103953   -0.0533426983
 C    2.2559208527    0.7355517908    1.1145104843
 C    2.5588964355   -0.6713039882    1.5973031823
 N    2.4771309425   -0.9045183877    3.0515562873
 C    1.4442027600   -1.4711753560    2.1598507338
 C    0.0658046054   -0.8479249134    2.2398019082
 O   -0.5748497211   -0.8079187933    0.9746809456
 C   -0.0615840788    0.0280798190   -0.0274647160
 H   -0.2229798879    1.9879684372    1.0141839790
 H   -0.3880491616    2.1107014747   -0.7957012877
 H    1.7478536545    0.7299808855   -1.0309952289
 H    3.1772791854    1.2501722043    0.8198973089
 H    1.8567274302    1.3009819895    1.9603562101
 H    3.3194166520   -1.2174537579    1.0428460227
 H    3.1288865623   -1.6327054832    3.3311676798
 H    1.4553439141   -2.5441099348    1.9809079384
 H   -0.5966857714   -1.4472104227    2.8721855722
 H    0.1370358323    0.1459569740    2.6993611700
 H   -0.3755142640   -0.3830496841   -0.9824719607