15

 C   -0.0287367355    1.4457144423    0.0150542411
 N    0.0330620544   -0.0033495753    0.0742863504
 N    0.1497514044   -0.7315023205   -1.0386821013
 N    0.1821070763   -1.9933336015   -0.7008386284
 C    0.0861328534   -2.1064316669    0.6486306860
 C    0.0928766275   -3.4174594372    1.3570281193
 C   -0.0113642840   -0.8229204830    1.1669079897
 C   -0.1320554352   -0.3501930496    2.4894851292
 N   -0.2313073186    0.0405288503    3.5759723480
 H    0.8037534860    1.8847985018    0.5701566831
 H    0.0376431995    1.7237494103   -1.0360403088
 H   -0.9711497888    1.8036719602    0.4366040228
 H    1.0180259950   -3.9631007723    1.1481751004
 H    0.0064750290   -3.2799773746    2.4369732476
 H   -0.7386277434   -4.0426176941    1.0178394910