18

 C   -0.1777832967    1.5061827407   -0.1080578773
 C    0.0094694312   -0.0152790929    0.0279816508
 C    0.8690068068   -0.3622166943    1.2564804937
 O   -1.2563292687   -0.6698616776    0.1026801612
 C    0.6431368975   -0.5703441793   -1.2182066126
 C    0.2307553334   -1.4766701334   -2.1433940756
 C    1.3204142133   -1.5305143614   -3.0529759806
 N    2.3008276260   -0.7320236775   -2.7111143881
 O    1.8682012447   -0.1152600273   -1.5344143012
 H    0.7806051123    2.0074971920   -0.2653322900
 H   -0.8340454343    1.7283137029   -0.9531044640
 H   -0.6308346285    1.9105902982    0.8041645183
 H    0.4110836189    0.0508106304    2.1623890393
 H    0.9449490452   -1.4468423295    1.3657895083
 H    1.8754252725    0.0533830217    1.1618688264
 H   -1.7034561431   -0.3454001596    0.8910816460
 H   -0.7009839319   -2.0130533010   -2.1634796049
 H    1.4237048614   -2.1267717120   -3.9489701995