20

 C   -0.6559513636    1.5032839128    0.4445453385
 C   -0.0186629003    0.1476369715    0.2052968092
 C   -0.6084169661   -0.6345112142   -0.9533464402
 C    1.4700593876    0.0053713452    0.4765698764
 C    0.4563361769   -0.6408657689    1.3919405866
 O    0.2147009273   -0.1044627656    2.6676413481
 C    1.0779414161   -0.5829632201    3.6683290058
 C    2.4422437532   -0.0200669288    3.5999259158
 N    3.5076145453    0.4254255749    3.5653505546
 H   -0.2296350212    1.9996320400    1.3180617316
 H   -0.5113059966    2.1516682768   -0.4267064532
 H   -1.7346591701    1.4033516631    0.6110135265
 H   -0.4752560434   -0.0904292841   -1.8954661453
 H   -0.1307214680   -1.6128356524   -1.0665171895
 H   -1.6828955397   -0.7989639069   -0.8117851751
 H    2.0675645653   -0.6358879900   -0.1630714190
 H    1.9920520809    0.8746242915    0.8593822250
 H    0.3521145845   -1.7266084449    1.3619480141
 H    0.6376969345   -0.2977789534    4.6287699245
 H    1.1570322474   -1.6802464264    3.6473427656