20

 C   -0.0932041063    1.5828740956   -0.0173939940
 C    0.0525229714    0.0595839217    0.0207379697
 C    0.8246843448   -0.5687253746   -1.1349590718
 C    1.1942037623   -1.9865985393   -0.7986547016
 C    2.2940745665   -0.9565345554   -0.9460038807
 N    2.7262504750   -1.0866653375    0.4687061758
 C    2.2330052675    0.0266249902    1.3415747744
 C    0.7877401958   -0.5196501280    1.2481182542
 C    1.4424348938   -1.8564164708    0.7155105137
 H    0.8738299049    2.0911812142   -0.0656173173
 H   -0.6676421277    1.8905098349   -0.8975523640
 H   -0.6240720857    1.9512977174    0.8670361882
 H   -0.9596917187   -0.3711837439    0.0018291519
 H    0.5394124185   -0.3418001458   -2.1578150760
 H    0.9615508658   -2.8740069911   -1.3708022071
 H    3.0256016624   -0.8152667056   -1.7342396118
 H    2.6727023127   -0.0763452887    2.3387236082
 H    2.4352062145    1.0351968056    0.9713000413
 H    0.1809548978   -0.5349663800    2.1559777379
 H    1.5008070148   -2.7328671389    1.3612108091