18

 C   -0.0575535796   -1.2222559496   -0.0470733493
 C   -0.0537232682   -0.0216727292    0.0209595124
 C   -0.0138588602    1.4324392528    0.1070044733
 C    1.4203487715    2.0096940394    0.0016755058
 C    2.0996403892    1.7246805072   -1.3274506734
 C    2.5240220049    2.8344278078   -1.9346865804
 C    2.1559397159    4.0421532486   -1.1375162253
 N    0.6763092435    4.2001846197   -1.0031416937
 C    1.4513854281    3.5383165973    0.0701557223
 H   -0.0782867256   -2.2819267212   -0.1082022405
 H   -0.6206376044    1.8803820214   -0.6870829727
 H   -0.4574004231    1.7514848159    1.0589680403
 H    2.0118896427    1.5892610184    0.8261952300
 H    2.1742830444    0.7173279161   -1.7196351858
 H    3.0296656547    2.8820495602   -2.8915917998
 H    2.7741292798    4.9333924430   -1.1304690935
 H    0.4773073471    5.1542581268   -0.7056459153
 H    1.5301492691    4.0305413351    1.0336635857