18

 C   -0.2399659978    1.4901916359   -0.0325040691
 N    0.0579901777    0.0644177191    0.0615987964
 C    1.4037010778   -0.4223150400   -0.2946132170
 C    2.4498403431    0.4782447632   -0.6938271136
 C    3.3198390809    1.2250086295   -1.0596006592
 C    0.9085832663   -0.4350265160    1.1316954887
 C    1.5183126167    0.4456774202    2.1772993477
 C    0.9383603110    0.5060620497    3.5276117369
 O    2.1178161577   -0.2543747127    3.2720703408
 H    0.6163267665    2.1555396014    0.1350899772
 H   -0.6342316114    1.6937501131   -1.0323312492
 H   -1.0206704381    1.7284125317    0.6958598293
 H    1.3915427124   -1.3627130173   -0.8418522753
 H    4.0955666831    1.8752416358   -1.3812786069
 H    0.5931338979   -1.3956878730    1.5377563470
 H    2.0973118600    1.2962679969    1.8248977409
 H    1.0766673491    1.4003521390    4.1335383626
 H    0.0466373872   -0.0774571265    3.7540291930