21

 C    0.1931516207    1.5442483851   -0.1397853989
 C    0.0378297654    0.0546063979   -0.0834303188
 C   -1.0781675407   -0.6850337086   -0.1609958338
 C   -2.5182738841   -0.2683066391   -0.3059289395
 O   -2.8348374279    1.0343553520    0.1711203931
 C   -0.7746846857   -2.1637513843   -0.0447422395
 O   -1.5096396425   -2.8772941589   -1.0395777390
 C    0.7573045184   -2.2401780385   -0.2192442803
 C    1.2633591017   -0.8197134561    0.1070232492
 H    0.8614549802    1.8213899783   -0.9656486312
 H   -0.7621109059    2.0498147000   -0.2757642166
 H    0.6685469720    1.9246476932    0.7746190319
 H   -2.8062343305   -0.2717630834   -1.3634019469
 H   -3.1528343566   -1.0283573037    0.1773717888
 H   -2.5717346335    1.0705290609    1.0965675421
 H   -1.0815684296   -2.5284757653    0.9523536182
 H   -1.4388718264   -3.8169855294   -0.8457151256
 H    1.2248721621   -3.0201011990    0.3887047173
 H    0.9459248255   -2.4734437843   -1.2717944968
 H    2.0992858875   -0.5052871304   -0.5299025140
 H    1.6286915501   -0.7460918462    1.1416683402