20

 C    0.0324460005    1.5482588421   -0.0471226321
 C   -0.0057635395    0.0413930002   -0.0620291650
 C    0.4166071047   -0.8087272428   -1.2719842159
 C   -0.3292076030   -1.9447050641   -0.5267107256
 C    0.6016913973   -2.1610994791    0.6866473303
 C    0.3702652750   -0.7551999159    1.2772344782
 C   -1.1452384152   -0.8172469508    1.6082055117
 C   -1.2995933074   -0.8398573003    0.0824216853
 H    1.0667380522    1.9136863688   -0.0486943676
 H   -0.4667765796    1.9673811677   -0.9280146852
 H   -0.4569914986    1.9618157692    0.8417774824
 H   -0.1110900475   -0.4762687531   -2.1723677263
 H    1.4789155886   -0.9520559593   -1.5016172614
 H   -0.7100253802   -2.8208940486   -1.0505291756
 H    0.2813581383   -2.9556338817    1.3674456019
 H    1.6343000122   -2.3598646714    0.3844215819
 H    1.0975884180   -0.3624200715    1.9885196998
 H   -1.5019973466   -1.6620757871    2.2068249033
 H   -1.5298146433    0.1153121971    2.0305358379
 H   -2.2282348360   -0.6289940093   -0.4483667581