18

 O    0.1818904849    1.3971210256   -0.2898615274
 C    0.1119257712    0.0045057909   -0.1096899145
 C   -0.5947935198   -0.8187967850   -1.1619641025
 C   -1.2770552477   -0.4991710759    0.1597331831
 N   -1.6368317693   -1.5424192455    1.0638257330
 C   -1.0014414650   -1.9258116512    2.0853964317
 O    0.1648058143   -1.5666614030    2.6733749193
 C    0.9756174384   -0.4843706130    2.1888901084
 C    1.2600478368   -0.5786277819    0.6942185323
 H    0.8442142761    1.5762190274   -0.9674601614
 H   -0.9635116225   -0.3078544027   -2.0444068259
 H   -0.2615063265   -1.8393698337   -1.3200183985
 H   -2.0534949208    0.2564886529    0.0761609501
 H   -1.4201381545   -2.7404909364    2.6771183679
 H    0.4915978647    0.4711647407    2.4238176078
 H    1.8919909691   -0.5602070790    2.7798702327
 H    1.4514822841   -1.6248249292    0.4340111380
 H    2.1747057765   -0.0201373608    0.4641230557