17

 C   -0.0716755244    1.4853798144    0.0863592979
 C   -0.0095919675   -0.0139818439   -0.0013654974
 C    0.0291945175   -0.6889542911   -1.2193989647
 C    0.0859497120   -2.0828826265   -1.1904066786
 C    0.1311489380   -2.9070974849   -2.4469358311
 N    0.1029379456   -2.7572906750   -0.0351224086
 C    0.0624571284   -2.0145342643    1.0650137157
 O    0.0796842326   -2.6951987922    2.2218530835
 N    0.0072000400   -0.6844281964    1.1572101489
 H   -0.0819306978    1.9486646384   -0.9024496560
 H   -0.9691523014    1.7938953014    0.6318753514
 H    0.7879425315    1.8657409961    0.6472783389
 H    0.0157162689   -0.1489061131   -2.1579073445
 H    1.0356248717   -3.5233341913   -2.4577852856
 H   -0.7203646350   -3.5942106272   -2.4744368189
 H    0.1144770913   -2.2839005063   -3.3436104406
 H    0.0459948886   -2.0285113181    2.9212924895