21

 C   -0.4649328697    1.5051235852    0.1343289761
 O   -0.4500169227    0.2015030903    0.6730090744
 C   -1.3269556149   -0.6810028624    0.0328498323
 C   -0.9518679861   -1.2960536575   -1.3480841235
 C   -1.5246697557   -2.6445955258   -0.8288138189
 C   -1.3689678535   -2.1082542991    0.6117974804
 C   -0.2174920083   -2.5820856826    1.5237570090
 C   -1.3389933419   -2.8575476880    2.5433121601
 O   -2.3510900663   -2.4283276766    1.6056280408
 H    0.2332983159    2.1078557151    0.7201087527
 H   -0.1470239842    1.5187727721   -0.9187478534
 H   -1.4666887329    1.9576139706    0.1982731354
 H   -2.3497475554   -0.2715427264    0.0094294082
 H   -1.4014593133   -0.8629470656   -2.2429201106
 H    0.1342424704   -1.3327739462   -1.4693924810
 H   -2.5825157916   -2.7663146363   -1.0777064265
 H   -0.9907295655   -3.5632288732   -1.0814623763
 H    0.3156458808   -3.4649947366    1.1662577005
 H    0.4921488220   -1.8021878934    1.7979452679
 H   -1.4768163523   -3.9039011704    2.8399931119
 H   -1.3258303850   -2.2300132035    3.4420670905