12

 C   -0.0501185360    1.5015552839   -0.0273098754
 C   -0.0170719200    0.0123464928    0.0356073681
 N   -0.0220768900   -0.7513862077   -1.0212873153
 O   -0.0000393068   -2.0373477368   -0.5729340210
 N    0.0322561505   -2.0860624637    0.8060031212
 C    0.0140734527   -0.8371363409    1.1918360154
 N   -0.0484597037   -0.4432653977    2.5143744500
 H    0.8567690279    1.9394377308    0.4061143432
 H   -0.1258207776    1.8315718056   -1.0645304556
 H   -0.9054635654    1.8958255765    0.5316377561
 H    0.1573548729   -1.1902314744    3.1639978328
 H    0.4748939456    0.3938034616    2.7281010803