13

 N   -0.1307443462    1.3197600896   -0.2157370211
 C   -0.0671669540    0.0994825933    0.0772699471
 C   -1.2467275759   -0.8322997569   -0.0305258782
 O   -1.2293108915   -1.7827733745    1.0152757040
 C   -0.0797070199   -2.5881057078    0.9417834840
 C    1.2214351257   -1.8025181251    0.8655419924
 O    2.2968875299   -2.2685934922    1.0889598687
 O    1.1213312223   -0.4773935285    0.5067306395
 H    0.7794363961    1.7717650046   -0.1069469101
 H   -2.1631581285   -0.2496293001    0.0541748406
 H   -1.2355325211   -1.3302479962   -1.0151029759
 H   -0.0416211588   -3.2071608491    1.8399475006
 H   -0.1078202782   -3.2608929171    0.0672739583