18

 C   -0.2085180934    1.5057116394    0.0749147410
 C    0.0284030372   -0.0144602413   -0.0229638101
 C    0.8038497842   -0.4275777558   -1.2858969800
 C    2.2730370212    0.0163054994   -1.2471561024
 C    2.9176601238   -0.2991056890    0.0721373240
 C    2.2233889115   -0.5483161376    1.1904859157
 C    0.7464621709   -0.4858552129    1.2440633104
 O    0.1354243344   -0.7445016608    2.2628182076
 H    0.7322660559    2.0636548901    0.1272118113
 H   -0.7658233870    1.8637487293   -0.7967369658
 H   -0.7860501656    1.7401916182    0.9729805332
 H   -0.9496910903   -0.5065316268   -0.0186886136
 H    0.7764404527   -1.5205572605   -1.3729364666
 H    0.3091911747   -0.0274140718   -2.1780648495
 H    2.8370592684   -0.4624211269   -2.0563727031
 H    2.3620240459    1.0966854403   -1.4356530520
 H    4.0054827368   -0.3165650932    0.1014421737
 H    2.7146493287   -0.7900956602    2.1281191963