21

 C   -0.0314062718    1.3301276361    0.1469527932
 O   -0.0417567567   -0.0685695376   -0.0023705030
 C    0.7128487442   -0.5058568926   -1.1162085838
 C    0.5896290832   -2.0185244670   -1.1902952750
 C   -0.8295667205   -2.5410337217   -1.4478940683
 O   -0.6678414997   -3.8720293831   -1.9393634017
 C    0.6543134210   -4.0422887896   -2.4349447268
 C    1.3614039552   -2.6816144946   -2.3400935799
 O    1.1688504075   -1.8859964286   -3.5053605167
 H    0.9885788918    1.7172314522    0.3024752732
 H   -0.4580866599    1.8390240125   -0.7319855743
 H   -0.6372055545    1.5716848425    1.0238497493
 H    0.3408875008   -0.0470146403   -2.0435429195
 H    1.7699874311   -0.2089307870   -1.0054049398
 H    0.9558298279   -2.4447210975   -0.2488636334
 H   -1.4446468789   -2.5764969222   -0.5457881751
 H   -1.3390906917   -1.9157621211   -2.1957328753
 H    1.1782883262   -4.8010144316   -1.8350403148
 H    0.6222825909   -4.3979435665   -3.4746340797
 H    2.4326183223   -2.7932967547   -2.1208332139
 H    1.5187171616   -2.3677702777   -4.2609008445