25

 C    0.8275906200   -0.4265955105   -1.3252906261
 C   -0.0453919526   -0.2676617240   -0.0767187872
 C    0.6447978159   -0.6114190328    1.2602133850
 C   -0.2680421347   -0.2490976114    2.4236166945
 C    0.2822299886    0.1984668146    3.7525941068
 C   -0.4324375042    1.1848390611    2.8597598170
 C    1.0576256353   -2.0742321423    1.3337799874
 C    2.3959831571   -2.5551796194    0.8275569707
 C    2.1089525316   -2.5429403499    2.3079060207
 H    1.1455599191   -1.4625387868   -1.4700930800
 H    0.2820572223   -0.1158478515   -2.2222620661
 H    1.7308345718    0.1910090154   -1.2586632822
 H   -0.4066348407    0.7660623649   -0.0175214814
 H   -0.9435578946   -0.8930561042   -0.1775451516
 H    1.5545460962    0.0037828310    1.3432443492
 H   -1.1695222580   -0.8572845164    2.4732176306
 H   -0.2128409028   -0.1330065167    4.6588585189
 H    1.3580546656    0.3000015378    3.8504374929
 H    0.1694605543    1.9375959863    2.3597161291
 H   -1.4169688012    1.5321216479    3.1534763276
 H    0.2280932200   -2.7629859267    1.1810930253
 H    2.4451665497   -3.5106493980    0.3163045108
 H    3.0887384696   -1.8138363541    0.4430827774
 H    2.6101557308   -1.7945841787    2.9119885115
 H    1.9600900409   -3.4901317253    2.8145787893