20

 C   -0.1709260251   -1.2256101945   -0.1672877928
 C   -0.1014340101   -0.0281455007   -0.0735137446
 C   -0.0062476517    1.4142751284    0.0508921354
 C   -0.0757301963    1.9429172380    1.5256718075
 C    1.4696003117    2.0423637353    1.5334602265
 C    1.4570439539    1.9745263672   -0.0135496479
 N    2.0291996613    3.2448924378    2.1154151785
 C    2.3955775036    3.1682578575    3.5285567568
 C    3.4451859100    3.1898948734    2.4746247013
 H   -0.2400966656   -2.2810857009   -0.2578225425
 H   -0.7085559608    1.8900798908   -0.6387045767
 H   -0.5211531966    2.9399653564    1.5606524556
 H   -0.5543336519    1.2968438503    2.2627367904
 H    1.9147296023    1.1266865292    1.9579183831
 H    2.2051030892    1.3537493897   -0.5083025408
 H    1.4695812597    2.9810176539   -0.4384589156
 H    2.1863936651    4.0556855602    4.1186497233
 H    2.2318306975    2.2256580062    4.0485186900
 H    3.9836785593    2.2617736660    2.2894633427
 H    4.0160321847    4.0934036357    2.2814848697