16

 C    0.0013821490    1.5189044235    0.0160023890
 C    0.0586160193    0.0172922693   -0.0075856188
 C   -1.1289123522   -0.8456891389    0.4653997843
 C   -0.5863403446   -2.2376191881    0.3523806755
 C    0.8358176821   -1.9842304942   -0.1742003303
 C    0.8444345746   -0.9270309418    0.9888543251
 N   -0.4364695817   -1.4764398093    1.6351320152
 C    0.6989738761   -0.8003339265   -1.1552826712
 O    1.1077019501   -0.5401829794   -2.2470930410
 H    0.9762206929    1.9520458641   -0.2278844499
 H   -0.7173929904    1.8876908770   -0.7236357253
 H   -0.3063932130    1.8899266164    0.9988512487
 H   -2.1813974179   -0.5892864878    0.4819325780
 H   -1.1893961220   -3.1332577945    0.2746495918
 H    1.5388967117   -2.8021522117   -0.2976207822
 H    1.7086289760   -0.6415354282    1.5828049311