16

 C    0.0082362516    1.3862817903   -0.1159155995
 N   -0.1776528676   -0.0310608892    0.1266759104
 C    0.5600359615   -0.6308553282    1.1288132121
 C    1.1598560345   -0.0893274339    2.2492697861
 N    1.6892315763   -1.1724249985    2.8877347231
 C    2.4365200225   -1.2183664734    4.1255420924
 N    1.4439179501   -2.2971761317    2.2095746843
 N    0.7610472617   -1.9786942121    1.1400826565
 H    1.0556971338    1.6678228603   -0.3119298695
 H   -0.5995813026    1.6860767935   -0.9724339813
 H   -0.3386541346    1.9623057060    0.7496779972
 H   -0.2121055843   -0.6060201121   -0.7029285664
 H    1.2511177965    0.9115974714    2.6317720210
 H    1.8328041276   -0.8434032277    4.9573568578
 H    2.6963244437   -2.2613952481    4.3056956220
 H    3.3506837493   -0.6220704865    4.0489058338