22

 C   -0.0157668913    1.4004865732   -0.0245486044
 C   -0.0768925743   -0.1314701104   -0.0032946017
 C    0.7075596884   -0.7211434585    1.1612147099
 C    0.9996471651   -2.2502068427    1.2878979422
 O    0.7281575158   -3.1280661677    0.2110404174
 C    2.4660819348   -1.8792618887    1.4485776287
 C    3.0088312080   -1.0750704838    0.3340763061
 C    2.7618156017   -1.2661694127   -1.1491251770
 N    2.1703015319   -0.3745141355    1.3316847160
 H    1.0169411596    1.7488430730   -0.1176540939
 H   -0.5898502258    1.8056505186   -0.8632838136
 H   -0.4227238158    1.8269393857    0.8988623629
 H   -1.1216969199   -0.4556366364    0.1037132892
 H    0.2674523997   -0.5305599212   -0.9588476726
 H    0.2318796063   -0.3818044820    2.0891808022
 H    0.5841931477   -2.6547277018    2.2191234653
 H   -0.2073947460   -3.3526782273    0.2370406436
 H    3.0990022748   -2.2713431093    2.2388547833
 H    4.0384467843   -0.7733384366    0.5285551182
 H    1.8481227420   -1.8164493008   -1.3605829627
 H    2.7412615642   -0.3007832165   -1.6666763560
 H    3.5959180087   -1.8418388888   -1.5657471231