19

 O   -1.4496844410    0.6538621295    1.5397296878
 C   -1.0051640459    0.3721146341    0.2188264078
 C   -1.8364255796   -0.6278400392   -0.4544934652
 C   -2.5670153366   -1.4565267925   -0.9394029897
 C   -3.4577717114   -2.4673581495   -1.5040959315
 C   -4.2076886356   -3.3157444850   -0.4760753022
 C   -3.6097337443   -3.6323955614    0.8862202381
 C   -4.8142945008   -2.7324032809    0.7773943440
 O   -4.7921735300   -1.3758891928    1.0937177401
 H   -1.4170955351   -0.1676429913    2.0414355237
 H   -1.0531396271    1.3251796319   -0.3188427019
 H    0.0483015913    0.0526261364    0.2065287259
 H   -4.1868734637   -1.9766725785   -2.1625577317
 H   -2.8662736505   -3.1334068325   -2.1463482262
 H   -4.7762300518   -4.1108165056   -0.9512793275
 H   -3.7194228798   -4.6314997991    1.2945459743
 H   -2.6626625795   -3.1548528853    1.1175035051
 H   -5.7672146601   -3.1497749679    1.0880407765
 H   -3.9571545685   -0.9900779803    0.8005973928