16

 N    0.0905554486   -3.7326048777   -0.0556685871
 C    0.0679555683   -2.5699634578   -0.0366444483
 C    0.0425221694   -1.2082624649   -0.0140051380
 C    0.0265093153    0.0038821522   -0.0000355326
 C   -0.0075287997    1.4146438795    0.0477489563
 C    0.2782073277    2.2817862106   -1.1654851019
 C    1.1717635448    2.4321774789    0.0192547036
 C    0.4929528433    3.2634044093    1.1115966326
 C   -0.7045812239    2.2601470063    1.1350500009
 H    0.7006463508    1.7542011980   -2.0132860181
 H   -0.4341916863    3.0621138514   -1.4238416040
 H    2.2270904404    2.1957132083   -0.0335917286
 H    1.0446767789    3.2635458079    2.0528700025
 H    0.2642521622    4.2977585531    0.8383066401
 H   -1.6885230744    2.6483443487    0.8572037737
 H   -0.7871954153    1.7308265161    2.0848922890