21

 C    0.4562365512    1.4000691190    0.1779833270
 C   -0.0125783013   -0.0164391321   -0.1060782766
 O    0.7095685188   -0.5129431745   -1.2153386704
 C    0.3364759270   -1.8365445393   -1.5525434979
 C    1.1032725364   -2.3085920261   -2.6956368742
 C    1.7272936978   -2.7223389020   -3.6400827906
 C    2.4699792526   -3.2076392202   -4.7651946764
 C    3.9855773704   -3.0718124687   -4.7925856665
 C    3.3695751590   -4.4265876150   -4.6190434506
 H    1.5266146767    1.4113803366    0.4017761041
 H    0.2812865476    2.0425560465   -0.6894896349
 H   -0.0833252779    1.8159135752    1.0342175193
 H    0.1489205817   -0.6625599092    0.7744760703
 H   -1.0958921492   -0.0313963798   -0.3181581334
 H    0.4965805141   -2.5083838324   -0.6904451481
 H   -0.7427430906   -1.8816765398   -1.7833314518
 H    1.9729073227   -3.1039514397   -5.7254242544
 H    4.4416966690   -2.8254933828   -5.7447181561
 H    4.4512381295   -2.6078560385   -3.9316551087
 H    3.4166042986   -4.8872197052   -3.6396471568
 H    3.3982269761   -5.1220198822   -5.4503201734