23

 C    0.0153024766    1.6371555648    0.0037995947
 C    0.0356810099    0.1062049778    0.0667195393
 C    0.7809282955   -0.5288990402   -1.1113381546
 C    2.2944894292   -0.1927305196   -1.1787949686
 O    2.9143026445   -0.1605883138    0.0993031022
 C    2.8114531865   -1.3669748299   -2.0038330392
 O    2.1471967612   -2.4817956830   -1.4228817464
 C    0.7779741914   -2.0968428126   -1.1957910935
 C    0.2786554544   -2.8717914943    0.0150158670
 H    1.0263163244    2.0471123689    0.0834088906
 H   -0.4219453546    1.9926496246   -0.9365104817
 H   -0.5774007472    2.0544304695    0.8236609032
 H    0.4999963627   -0.2052762757    1.0069280770
 H   -0.9947375056   -0.2692336277    0.0827897706
 H    0.3312519667   -0.1474766549   -2.0370607379
 H    2.4881587624    0.7798514498   -1.6372948553
 H    2.9508020274   -1.0736446558    0.4097272501
 H    2.5562798814   -1.2539101615   -3.0705747334
 H    3.8892877967   -1.5192176477   -1.9071909876
 H    0.1869227861   -2.4011552864   -2.0733230786
 H    0.8274745474   -2.5995402650    0.9212589783
 H   -0.7854573523   -2.6886265746    0.1883403009
 H    0.4175421952   -3.9430224530   -0.1554964071