15

 C    0.1257629430    1.5598168927   -0.2528511651
 C    0.0744125331    0.1172339172   -0.0723769424
 C    0.0305899848   -1.0758863462    0.0844109501
 C   -0.0550014132   -2.5108780748    0.2494159894
 N   -0.0774895664   -3.0411709723    1.6499482665
 C   -1.2224891110   -3.9475783291    1.3828799513
 C   -1.4319914841   -3.2210606901    0.0479109835
 O   -2.2822020240   -3.1849006663   -0.7827025772
 H    1.0272513972    1.8647779740   -0.7954301263
 H   -0.7414739654    1.9174974443   -0.8186746106
 H    0.1268156657    2.0764898576    0.7131451820
 H    0.6841233151   -3.0141710624   -0.3959203700
 H    0.7783246997   -3.5143541729    1.9145788116
 H   -0.9784293147   -5.0090187265    1.2314273318
 H   -2.0406808999   -3.8756725454    2.1073171255