15

 C   -0.0522257268    1.4226130954    0.0088672709
 N   -0.0009770258   -0.0203633060    0.0006799314
 C   -1.2150149083   -0.8254540208    0.0041297611
 C   -0.7294447445   -2.2878863467   -0.0069867902
 C    0.7917215839   -2.2023532255   -0.0168481375
 O    1.5738552272   -3.1110671060   -0.0267476299
 C    1.1772248114   -0.7110268701   -0.0105813241
 O    2.2972049699   -0.2494220408   -0.0156154955
 H    0.9754921496    1.7895964306    0.0032002574
 H   -0.5810122971    1.8017147069   -0.8743664914
 H   -0.5676982384    1.7921961505    0.9039415982
 H   -1.8185256779   -0.5960791822    0.8916570019
 H   -1.8299397981   -0.5864580492   -0.8729644761
 H   -1.0590543334   -2.8486566626    0.8716772958
 H   -1.0709699816   -2.8392695835   -0.8870335720