15

 C    0.0438237518    1.4255126181    0.0080064307
 O    0.0130699417   -0.0004075904    0.0048401310
 C   -1.1605651896   -0.6390636590    0.0118347846
 C   -1.2082260543   -2.0133554913    0.0085346853
 C   -2.4943406842   -2.5863420031    0.0165842352
 N   -3.6423004571   -1.9473258812    0.0267866170
 C   -3.6293997483   -0.5752083013    0.0303355874
 O   -4.5906843382    0.1609366500    0.0394259471
 N   -2.3256351308    0.0410393625    0.0222866758
 H    1.0993458357    1.6954650838    0.0006643545
 H   -0.4387519208    1.8376119462   -0.8856177333
 H   -0.4251470176    1.8333282944    0.9107951295
 H   -0.3011503032   -2.5978010141    0.0002179003
 H   -2.5642974199   -3.6743642568    0.0141828102
 H   -2.3581060252    1.0495467525    0.0252544047