14

 C    0.0231932015    1.3086002461    0.0092949136
 C    1.3240821431    1.7743701703   -0.0006280388
 N    2.1014953526    0.6519606596   -0.0144345325
 N    3.4458000057    0.6062276712   -0.0276254782
 C    3.9474917061   -0.6063068044   -0.0393191476
 C    3.1863563876   -1.8040339616   -0.0387809107
 C    1.8177848213   -1.7263865107   -0.0251778127
 C    1.2276055514   -0.4515487327   -0.0122809175
 N   -0.0375481131   -0.0513188685    0.0021553207
 H   -0.8760685326    1.9073293407    0.0213499037
 H    1.7605376571    2.7579802399    0.0007206408
 H    5.0318189807   -0.6417596667   -0.0499536521
 H    3.6973854802   -2.7586790104   -0.0491033526
 H    1.1760069083   -2.5989495527   -0.0239474360