19

 C    0.0821044404    1.5167353324   -0.1963045759
 C    0.0059858444    0.0052000828   -0.0898414758
 O    0.7046401257   -0.5457389177   -1.2160436756
 C    0.7529039510   -1.9019129383   -1.3061629605
 N    0.2066220760   -2.6324042454   -0.4368669357
 C    0.2285378110   -4.0850453117   -0.4855236268
 C    1.5249209030   -2.3385176148   -2.5483907957
 N    2.0018207264   -1.3169453741   -3.3031971137
 O    1.6858582892   -3.5141945758   -2.8178242214
 H    1.1208863316    1.8595969942   -0.1813102107
 H   -0.3849373967    1.8692298488   -1.1206810019
 H   -0.4416947758    1.9745038416    0.6480255705
 H    0.4667228838   -0.3676780222    0.8308554247
 H   -1.0269682227   -0.3579971274   -0.1004973894
 H   -0.2405768795   -4.4728444362   -1.3951039234
 H    1.2484781536   -4.4815007235   -0.4673393323
 H   -0.3157450885   -4.4630457299    0.3844862231
 H    1.8394931916   -0.3628784007   -3.0340659784
 H    2.5201459654   -1.5377083922   -4.1368653711