16

 O    0.0797782676    1.3944619484   -0.1642051678
 C    0.0365586468    0.0214724570   -0.0273519729
 C   -0.4214681869   -0.7582294082   -1.2134946541
 C   -1.2905684289   -0.7960549521    0.0435791360
 C   -1.0636745416   -1.9335044148    1.0446664852
 C    0.3748773870   -1.7501454423    1.4791776426
 C    0.9506646170   -0.6848613876    0.9208912427
 C   -2.5519034402   -0.1257901129    0.0193154132
 N   -3.5736219920    0.4189828194    0.0282537804
 H   -0.1016218397    1.7966730857    0.6935980414
 H   -0.8262413292   -0.1779696516   -2.0351349027
 H    0.1106186410   -1.6619977812   -1.4910070660
 H   -1.7568246355   -1.8625307456    1.8910686370
 H   -1.2298208699   -2.9163155441    0.5866494199
 H    0.8642402092   -2.4498764833    2.1463670473
 H    1.9688254154   -0.3472916567    1.0744203779