18

 C    0.0742119229    1.4886880335    0.3096314734
 C    1.5395807716    1.5530161671   -0.2278587930
 C    1.4237042850    0.1060882940   -0.6870888783
 C   -0.0907460199    0.0228850151   -0.1099096215
 O    0.3624623753   -0.8943508035    0.9632609408
 C    1.5819730696   -1.0519360635    0.2157999599
 C    3.1277789594   -0.9189158140    0.0305910484
 N    2.5318523780   -0.7566107066   -1.4139514986
 C    1.6276407383   -1.9373527246   -1.0414362813
 H   -0.0458509937    1.6393003369    1.3834227286
 H   -0.6054247720    2.1521866226   -0.2307816877
 H    1.6430807418    2.2534579659   -1.0607081397
 H    2.3204660988    1.7805704944    0.5052238528
 H   -1.0186142538   -0.3260622800   -0.5646114867
 H    3.6188373953   -0.0217462468    0.4064829848
 H    3.7639333918   -1.8036828917    0.1179352829
 H    2.1556792754   -2.8914609575   -0.9893439312
 H    0.7266130863   -1.9973615011   -1.6548286733