15

 O   -0.0612584339    1.4881396384    0.0572743522
 C   -0.0303583690    0.1126155676   -0.0700913615
 C   -0.4010832667   -0.7651384451    1.1065835267
 O   -1.0961384433   -0.0414748747    2.1096143148
 C   -2.4726153261   -0.0859493881    1.7265942062
 O   -2.4820527716   -0.0647873481    0.3097699039
 C   -1.3034921635   -0.7273226825   -0.0982905595
 C   -3.1454730118   -1.2739555517    2.2688221079
 C   -3.7081577014   -2.2370586272    2.7142542655
 H   -0.4095086910    1.6755300559    0.9392214889
 H    0.7781969479   -0.2299540715   -0.7102470134
 H    0.1685103881   -1.6180388002    1.4573387728
 H   -2.9493429500    0.8305364415    2.0861725230
 H   -1.4476047034   -1.5536547552   -0.7850410610
 H   -4.2076228343   -3.0877389789    3.1091228236