17

 O    0.1195860624    1.4586430734   -0.0855934967
 C    0.0391496070    0.0701232186    0.0341187128
 C   -0.0009406191   -0.6360165271    1.4079865148
 C   -1.0714781612    0.2544652501    2.1470990199
 C   -2.1664720965    0.0380896952    1.0780632021
 O   -2.7601690844    0.8959135825    0.0382109412
 C   -2.4494870385   -0.1393269732   -0.9539401522
 C   -1.3431265275   -0.6029050541    0.0061247046
 O   -0.7217267164   -1.7337800734    0.7033993360
 H    1.0367205890    1.6989635194   -0.2479603319
 H    0.7060915839   -0.4617461952   -0.6522991338
 H    0.8735625459   -0.9923573204    1.9508379725
 H   -1.3649853117   -0.1159417872    3.1300333693
 H   -0.6975275993    1.2765058339    2.2286397336
 H   -2.9530279014   -0.6239571734    1.4577886172
 H   -3.2857053719   -0.8364282217   -1.0865010079
 H   -2.1407101502    0.2918708228   -1.9097107012