16

 N   -0.0163482481    1.3969395627    0.0977697364
 C    0.0020356206    0.0112697959    0.0264894136
 C   -1.1680567178   -0.7584619136    0.0308376978
 N   -1.1561217541   -2.0860552955    0.0195150494
 C    0.0385436788   -2.6864249726    0.0021404203
 C    0.0586899265   -4.1920482057   -0.0571225875
 O    0.0570052489   -4.5723675916   -1.4306315108
 N    1.2165908011   -2.0538110834    0.0052779766
 C    1.1925863622   -0.7263991989    0.0166572339
 H    0.8115831146    1.8590304613   -0.2492618325
 H   -0.8606492963    1.8363251573   -0.2391655836
 H   -2.1438429561   -0.2729920880    0.0470804723
 H    0.9618827058   -4.5507933555    0.4548826327
 H   -0.8292566999   -4.5750962907    0.4638553426
 H    0.0706010585   -5.5338406789   -1.4653268794
 H    2.1549426653   -0.2145828928    0.0212670683