17

 O   -0.2373869660    0.0420758127   -0.1540939977
 C    0.0390250055    1.2021885736    0.0202423278
 C    1.3981105561    1.8144986049   -0.2128054651
 C    1.3610133096    2.9443631353   -1.2478517720
 C    0.5689389836    4.2712896203   -0.9184325868
 C    1.8771373913    5.0454670684   -1.0957424650
 N    2.8156683560    4.4909269433   -0.0897290305
 C    2.6327068627    3.7972043363   -1.3861104096
 H   -0.7363055529    1.9217087163    0.3745516254
 H    1.7555097167    2.2418901434    0.7335461400
 H    2.0856539715    1.0212165267   -0.5229134682
 H    1.0512141009    2.5575892514   -2.2228248801
 H   -0.1864604190    4.5015727333   -1.6720454128
 H    0.1262449111    4.3455221018    0.0783125129
 H    2.0115939875    6.0473519787   -1.4840906662
 H    3.6825455554    5.0234072674   -0.1548031016
 H    3.4758550599    3.6186714563   -2.0425362405