20

 C   -0.0411950666    1.6682344990   -0.1129502484
 C    0.0121801281    0.1313934903   -0.0358917241
 C   -1.3089129093   -0.4870257814   -0.0027659990
 C   -2.4077219587   -0.9822943350    0.0126225268
 C   -3.7293405512   -1.5462639379    0.0663292307
 N   -4.1783114810   -2.3946731579   -1.0690768022
 C   -3.9969454384   -3.0073141921    0.2553934026
 C   -2.8948590187   -4.0388340820    0.3101296660
 O   -3.2511258381   -5.1975928882   -0.4256591228
 H    0.9706617252    2.0834848760   -0.1367453718
 H   -0.5695363705    1.9937544164   -1.0130324379
 H   -0.5635208629    2.0830359438    0.7534407903
 H    0.5704139333   -0.2598755487   -0.8961055196
 H    0.5797173390   -0.1718797622    0.8534906275
 H   -4.4786444675   -0.8831284542    0.4952120138
 H   -5.1630203877   -2.2175691050   -1.2496608139
 H   -4.8957798069   -3.2615487575    0.8145761790
 H   -1.9614825343   -3.5934190846   -0.0597258051
 H   -2.7286843027   -4.3639747115    1.3423696024
 H   -3.4306501511   -4.8925611972   -1.3230317444