18

 O    0.6902991749    0.3654536986    1.2246493330
 C    0.3306635249    1.2222973268    0.4399907611
 N    1.0609423288    1.6765885934   -0.6089688019
 C    2.4207674338    1.2250840743   -0.8569685283
 C    3.4717475657    2.1264568701   -0.2355153956
 C    3.8018123004    1.9696416328    1.2497186687
 C    4.7911152202    1.5209928901    0.2320207040
 C    3.5217366895    3.5048127385   -0.7652852096
 O    2.7551895213    3.9453630250   -1.5923524202
 H   -0.6609861607    1.7118135990    0.4979115487
 H    0.7438625652    2.4836077480   -1.1232822194
 H    2.5033187776    0.2174290111   -0.4448012716
 H    2.5754251649    1.1734098112   -1.9390403353
 H    4.0181264741    2.8707958417    1.8141373789
 H    3.2051331091    1.2320268947    1.7734808071
 H    4.9150888328    0.4583927857    0.0552467247
 H    5.6926403260    2.1076408072    0.0889859218
 H    4.3294532714    4.1417868018   -0.3361802961