21

 O   -0.0609521251    1.4957321845    0.0395455721
 C    0.0318256735    0.0796282574   -0.0285791216
 C   -1.3786697921   -0.4932007269    0.0598833430
 C   -1.4052233978   -2.0538589525   -0.0821085508
 C   -2.5873971112   -2.4799234602    0.8093465174
 C   -2.5200071066   -3.3847297999    2.0932399036
 C   -3.1759610221   -2.2076750971    2.9114550133
 C   -2.7398680211   -1.3267289541    1.7628025493
 C   -2.0341816280   -0.2549765097    1.4214989607
 H    0.8299488418    1.8573286065    0.0369462076
 H    0.5023805732   -0.2438344403   -0.9718007258
 H    0.6401981821   -0.3205192094    0.7994082270
 H   -1.9599924820   -0.0237466671   -0.7473547428
 H   -1.4887180682   -2.3798743148   -1.1230689933
 H   -0.4674885342   -2.4630575692    0.3165652936
 H   -3.4919007071   -2.7067042366    0.2313962399
 H   -3.0627845611   -4.3329521422    2.0704765713
 H   -1.4885965162   -3.5620725258    2.4093031740
 H   -4.2622747344   -2.3322030749    2.9784810969
 H   -2.7857831268   -1.9839463513    3.9071941306
 H   -1.8431113666    0.6388401834    2.0025464642