20

 C   -0.2614575377    1.5125350007    0.0093167356
 C    0.0856258316    0.0187816185    0.0610397273
 C    0.7626045946   -0.4896308224   -1.1902593734
 C   -0.0194675936   -0.9307103906   -2.4106969909
 C    0.7848880745   -1.9410285752   -1.6128360736
 C    2.1940206678   -2.2684653108   -2.0687371769
 C    2.9331647293   -0.9179513031   -2.0558071367
 O    4.0347385220   -0.6825177518   -2.4972123688
 N    2.0934670459   -0.0052504006   -1.4577218406
 H    0.6376247752    2.1319926533   -0.0813075042
 H   -0.9108800931    1.7378164615   -0.8428418478
 H   -0.7790223011    1.8248498885    0.9210118986
 H    0.7349972867   -0.1815589422    0.9222574416
 H   -0.8308865350   -0.5628653061    0.2143990002
 H   -1.0996529050   -0.9914447090   -2.3267713819
 H    0.3430276849   -0.6283445403   -3.3882978358
 H    0.2374573255   -2.6721962490   -1.0295094138
 H    2.6988652858   -2.9590699340   -1.3851059162
 H    2.2578625551   -2.7017263187   -3.0708891804
 H    2.3102267766    0.9768331012   -1.5343646223