20

 C    0.1736699204    1.5714340066   -0.0777291015
 C   -0.0172159812    0.0697697410    0.1583681715
 N    0.6998840025   -0.4341884551    1.3097097149
 C    2.1316031096   -0.6047738285    1.3766007257
 C    2.3503346656   -1.2187599497    2.7420671363
 C    3.7151888608   -1.5582472612    3.2419951868
 C    1.1660516956   -1.3718076681    3.3430910993
 C    0.0720404093   -0.8901773618    2.4556128293
 O   -1.1273128282   -0.8852580066    2.6572286255
 H    1.2239813052    1.8228645857   -0.2595499152
 H   -0.4002347645    1.8926732950   -0.9527004381
 H   -0.1701880679    2.1443802458    0.7882351518
 H   -1.0710470301   -0.1517973974    0.3484530194
 H    0.2861583636   -0.4918216620   -0.7364346653
 H    2.5038718356   -1.2639166895    0.5758783888
 H    2.6730375301    0.3484570488    1.2780924025
 H    4.3559015223   -0.6685793132    3.2797001320
 H    3.6747501627   -1.9918821911    4.2438328935
 H    4.2135766100   -2.2754636135    2.5781894503
 H    0.9687422586   -1.7810808353    4.3241182826