18

 O    0.0988889429    1.4000942815    0.0545465666
 C    0.0414028687   -0.0052274211    0.0909931198
 C    0.2117908749   -0.6023235816    1.5191256055
 C   -1.1554202676   -1.2834457794    1.3733482989
 C   -2.2078741504   -0.2370124975    1.1210037840
 C   -1.3375662680   -0.6798279894   -0.0206776192
 C   -1.8749992216   -1.2758431910   -1.3015950213
 C   -2.0987128922   -0.2268217132   -2.3019105888
 N   -2.2299453948    0.6341644749   -3.0621552876
 H   -0.1723988070    1.6925829007   -0.8232109326
 H    0.7532827646   -0.4530984741   -0.6180366185
 H    1.0548746965   -1.2917989132    1.5903631464
 H    0.2855887188    0.1426598524    2.3158951335
 H   -1.4065484832   -2.2810841863    1.7126720883
 H   -3.2308017231   -0.5994481144    1.0870911879
 H   -2.0952333402    0.7635755175    1.5286690446
 H   -1.1702466453   -2.0029059973   -1.7248477273
 H   -2.8155790930   -1.8095545986   -1.1266631204