17

 O   -0.2253922437    0.0765821956    0.4081738088
 C   -0.0679934213    1.1974321173    0.0570137364
 O   -1.0517460645    2.1003629216   -0.3756076908
 C   -0.0036322011    2.9918023472   -0.9182075330
 C    0.3331456307    4.4710039417   -0.6289777850
 C    1.6609893355    4.1951652260    0.1552154218
 C    1.1072881841    3.2032872677    1.2026928027
 C    1.0136389824    2.2773860416   -0.0502566114
 C    2.3478722735    2.9197473926   -0.5087591966
 H    0.0731817485    2.7649122727   -1.9844211710
 H    0.4584663355    5.0342993579   -1.5569061156
 H   -0.3875804751    4.9998555604   -0.0007555329
 H    2.2661138349    5.0564110317    0.4397474064
 H    1.8571641269    2.8343376183    1.9049777962
 H    0.1816773432    3.4592017843    1.7229268432
 H    2.5547717231    2.9220778193   -1.5813717289
 H    3.2327641473    2.6195569240    0.0541873496