19

 O   -0.0412657698    1.3216913278   -0.5172558597
 C   -0.0442975042   -0.0716421590   -0.2867014816
 C   -1.4367621990   -0.5650961758    0.1157025849
 O   -2.3634306520   -0.2413848880   -0.9375355178
 C   -3.0266937522   -1.4272951914   -1.4134688770
 C   -2.7815686397   -1.5560280207   -2.9193655730
 O   -3.2624092993   -0.4250917991   -3.6152952391
 C   -2.4521952547   -2.5368875797   -0.5794007998
 C   -1.5607210898   -2.0534526750    0.2780056180
 H   -0.7604167583    1.4913368459   -1.1366595591
 H    0.2896583658   -0.6353098122   -1.1726958820
 H    0.6673782338   -0.2621314993    0.5243991293
 H   -1.7412814146   -0.0183310209    1.0220357952
 H   -4.1096185617   -1.3026495859   -1.2557934293
 H   -1.7051062404   -1.7170400066   -3.0912310818
 H   -3.3212774851   -2.4251307917   -3.3118288320
 H   -2.8794183555    0.3422342115   -3.1746737545
 H   -2.7512488984   -3.5713913227   -0.6916166997
 H   -0.9873695949   -2.6148627572    1.0048551789