19

 C   -0.0462999754    1.5329562504   -0.0967166104
 C   -0.1451030796    0.0190969485   -0.1616315499
 O    0.8029306488   -0.4405614941   -1.1151631668
 C    0.8437672375   -1.8555859055   -1.2427986649
 C   -0.3878558905   -2.3986548411   -1.8475726877
 C   -1.4044549922   -2.8309601738   -2.3197732975
 C    2.0238931288   -2.2210438656   -2.0276760117
 C    2.9952049594   -2.5438833079   -2.6585792155
 C    4.1685478083   -2.9236511618   -3.4303080848
 H    0.9604808570    1.8417277779    0.1982001946
 H   -0.2677713145    1.9728474428   -1.0730379643
 H   -0.7600974186    1.9277629270    0.6325447107
 H    0.0694024884   -0.4291981677    0.8233049653
 H   -1.1585629303   -0.2946250401   -0.4506678215
 H    0.9421205626   -2.3019376755   -0.2360057409
 H   -2.2962108178   -3.2175716790   -2.7481258745
 H    3.8998517191   -3.5908819956   -4.2564054888
 H    4.6557621929   -2.0418153003   -3.8602070205
 H    4.9060159960   -3.4413152987   -2.8074575811