18

 N    0.0220530715    1.2354870255    0.2947423831
 C    0.0368156995    0.0055497904    0.0113476541
 O    1.1555130479   -0.6988911586   -0.3352491916
 C    0.8241420967   -2.0480088250   -0.7005978835
 C   -0.5683713868   -2.3168576964   -0.1235508551
 C   -0.5993584002   -2.8374788127    1.3256378097
 O   -1.7780397282   -2.2942232181    1.8853704347
 C   -1.8955904772   -0.9540424067    1.4168240482
 C   -1.1737226686   -0.9078022575    0.0420716731
 H    0.9563766018    1.6391631771    0.2113246058
 H    0.8376804082   -2.1320878245   -1.7934659542
 H    1.6011291964   -2.7021444459   -0.2935857084
 H   -1.1616325931   -2.9622403107   -0.7734118857
 H   -0.6570165171   -3.9261781658    1.4028577510
 H    0.2987370682   -2.4965057527    1.8703856465
 H   -2.9603859102   -0.7201305583    1.3454269796
 H   -1.4279246754   -0.2451522833    2.1121009795
 H   -1.8580243635   -0.6284695468   -0.7613159868