19

 C    0.2151598494    1.4089222256    0.2964228249
 C   -0.0051394950   -0.1008168592    0.2378467965
 O    0.0661172776   -0.6863036742    1.5371103334
 C   -1.3299735546   -0.4656806200   -0.4713499496
 C   -1.4236424074   -1.9674949076   -0.7255539705
 O   -0.9582630394   -2.4633132909   -1.7205131102
 C   -2.0893542961   -2.7856236372    0.3889638188
 C   -2.1660476626   -4.2138698624    0.1415697610
 C   -2.2361028053   -5.3959378339   -0.0568720634
 H    1.1473342527    1.6319222864    0.8227602802
 H    0.2700350193    1.8406259085   -0.7072156904
 H   -0.6084285223    1.9034962161    0.8274615703
 H    0.8144118963   -0.5657639748   -0.3214800672
 H   -0.4826684671   -0.1583829758    2.1282334711
 H   -2.1700080613   -0.1062885257    0.1360241368
 H   -1.3634340765    0.0322281614   -1.4445518166
 H   -1.5148674363   -2.5648821782    1.2998369481
 H   -3.0897428947   -2.3657503307    0.5650150230
 H   -2.2910385568   -6.4403184673   -0.2394200861