18

 C    0.0647694875    1.5570306612   -0.1282897303
 C   -0.0016797711    0.0424009668    0.1402874426
 C   -1.3613596459   -0.4869002736    0.1040886787
 C   -2.4925945796   -0.8996618280    0.0501611171
 C   -3.8633551271   -1.4011031040    0.0480493394
 C   -3.9202440613   -2.9425619827   -0.0772189963
 C   -4.5544366220   -0.9886251762    1.3509283427
 O   -5.6330962373   -0.4639135502    1.4098137311
 H    1.1011860240    1.9050776449   -0.0900538112
 H   -0.3431308243    1.7948413710   -1.1143204107
 H   -0.5128330760    2.1096163027    0.6174973643
 H    0.6135661094   -0.4891296168   -0.5970674030
 H    0.4459956293   -0.1773293220    1.1180020068
 H   -4.4385006501   -0.9503424454   -0.7684705651
 H   -4.9590223447   -3.2823418614   -0.1159090259
 H   -3.4090483009   -3.2623440177   -0.9881838707
 H   -3.4248004231   -3.4194450688    0.7738278283
 H   -3.9691964967   -1.2378051598    2.2647881323