19

 N   -0.0470692625   -1.1005847607    0.0832418485
 C   -0.0727113105    0.0554759138    0.0839314246
 C   -0.0572331806    1.5184973313    0.0539788566
 C   -0.3396827114    2.1902352715   -1.3197801928
 C    0.9087752624    3.0935645479   -1.1232512905
 C    1.3608055750    2.2177661556    0.0858270876
 C    1.4749145813    2.8690075456    1.4766223356
 C    0.1977108586    2.3834395208    2.2149226473
 N   -0.8064450619    2.0756226834    1.1842113580
 H   -0.2264798658    1.4874168075   -2.1466976175
 H   -1.3184764025    2.6693699912   -1.4062674621
 H    1.5987637734    3.1307274843   -1.9677632494
 H    0.6670492104    4.1204346010   -0.8364301998
 H    2.1937134604    1.5567612540   -0.1557743822
 H    2.3875929641    2.5779430105    2.0036295850
 H    1.4823395941    3.9608130617    1.3914548765
 H    0.4141641569    1.4648260581    2.7723868725
 H   -0.2036803918    3.1092974916    2.9260685983
 H   -1.2680688294    2.9279919209    0.8853109239