20

 N   -0.1735906039   -1.0921185504    0.5866918948
 C   -0.1198881386    0.0201826106    0.2774281918
 C   -0.0308949461    1.4326304853   -0.1074854929
 C    1.3952625837    1.9548941201   -0.1106177981
 C    1.9518615338    2.4112806950   -1.2339506932
 C    3.3370209945    2.9978339101   -1.3104012124
 C    3.9082694685    3.3245807101    0.0765497740
 C    3.6278751512    2.1835051804    1.0601659512
 C    2.1185276362    1.9514137904    1.2164482060
 H   -0.4867962784    1.5532681637   -1.0953677520
 H   -0.6466649775    2.0060677774    0.5994520213
 H    1.3880700846    2.3669214577   -2.1641458800
 H    3.9968431254    2.2907477108   -1.8352690484
 H    3.3190225993    3.8974270071   -1.9383801049
 H    4.9831517033    3.5198101949    0.0049234833
 H    3.4440500303    4.2461673156    0.4510817932
 H    4.0963901678    1.2631097716    0.6892197747
 H    4.0757540886    2.3931960334    2.0369242182
 H    1.6805770643    2.7255688256    1.8654823704
 H    1.9342750530    1.0000393405    1.7308609228