15

 N    0.0515193208   -1.1057617072   -0.0377467277
 C   -0.0031577456    0.0524071256   -0.0165145777
 C   -0.0290652252    1.4614916376    0.0095228968
 C   -1.0673080783    2.3159083869    0.0178900512
 C   -0.3963416432    3.6870684016    0.0481845751
 C    0.7397315302    3.4665846936   -1.0150233835
 C    1.1967391540    2.4001768066    0.0360781933
 C    0.7239570990    3.4270174801    1.1191377672
 H   -2.1261480589    2.1029100235    0.0061871404
 H   -1.0293336151    4.5724155318    0.0599239755
 H    0.4457417411    3.1102683887   -2.0045144239
 H    1.4244721165    4.3158230839   -1.0911413130
 H    2.1860551190    1.9472664901    0.0349898712
 H    1.4072457582    4.2726793985    1.2367910983
 H    0.4154808877    3.0343471984    2.0902897668