17

 C   -0.0143012236    1.4986664278    0.0321885078
 C   -0.0181300815    0.0033560650    0.0028303994
 C   -0.0267913617   -0.8052941130   -1.0988473118
 N   -0.0112616526   -2.1274369773   -0.6729014364
 C    0.0038020784   -2.1717773168    0.6886407707
 N   -0.0593540569   -3.3828607432    1.3816452223
 C    0.0083967494   -0.8641388499    1.1582923092
 C    0.0466749978   -0.5008763589    2.5199667147
 C    0.0825517232   -0.2065958612    3.6905839036
 H    0.8758510997    1.8900294610    0.5382347796
 H   -0.0344183125    1.9118028928   -0.9803292046
 H   -0.8824144493    1.8912462497    0.5740994331
 H   -0.0304910135   -0.5635734144   -2.1491409417
 H   -0.1283819434   -2.9329503694   -1.2622166511
 H    0.7212330345   -3.9995920089    1.1796609763
 H   -0.0824683110   -3.2063460039    2.3797682423
 H    0.1079416730    0.0631254007    4.7165175565