13

 C   -0.0135709478    1.4535595118   -0.0224811631
 C    0.0135290103    0.0008282131    0.0136040722
 C    0.0307613927   -1.2022704319    0.0382794419
 C    0.0757176220   -2.6393309494    0.0585019819
 C   -0.5856166030   -3.4195009023    1.1386428659
 O   -1.1590883701   -3.3482888750   -0.1553525919
 C    1.2284629214   -3.2402877434   -0.5972620512
 N    2.1524034488   -3.7107628084   -1.1066502952
 H    0.8402738476    1.8446116098   -0.5854368566
 H   -0.9275649536    1.8140966073   -0.5061067795
 H    0.0240545203    1.8771797251    0.9865657389
 H   -0.1678159146   -4.3835679954    1.4220874321
 H   -1.1003832741   -2.8626054413    1.9186511845