23

 C    0.0519364549    1.5726984333   -0.0656992506
 C    0.0195981698    0.0794911379    0.0214145013
 C   -0.3804497678   -0.7809396514   -0.9169957026
 C   -0.2343033838   -2.2292662924   -0.4997966101
 C    0.0294578186   -2.1048451537    1.0277468898
 C    0.5207535735   -0.6558469250    1.2495852888
 C   -1.4199276108   -3.1070674416   -0.8482218143
 C   -1.5173708946   -3.7698767655   -2.1994079256
 C   -1.2590560580   -4.6021236582   -0.9669385828
 H    1.0732086163    1.9556383882    0.0605050587
 H   -0.3278610739    1.9317955928   -1.0261999042
 H   -0.5486645988    2.0292663288    0.7317361702
 H   -0.7468341562   -0.4999519039   -1.8996202115
 H    0.6494549783   -2.6617722030   -0.9977957894
 H   -0.9170600885   -2.2536649314    1.5594161632
 H    0.7278203801   -2.8592432784    1.3993004312
 H    1.6180595763   -0.5975527652    1.3049732987
 H    0.1483192674   -0.2199010348    2.1849114059
 H   -2.3594885540   -2.7628117276   -0.4210288068
 H   -2.4897357587   -3.8398004041   -2.6744460373
 H   -0.6952407543   -3.6275426585   -2.8937612815
 H   -0.2636620540   -5.0144844499   -0.8356649067
 H   -2.0543680517   -5.2413025663   -0.5997520247