20

 C   -0.0597883428    1.5537624920    0.0134118326
 C    0.2241521912    0.0540704003    0.0110828193
 C    0.4267497476   -0.5183176820   -1.3859377560
 O    0.3572304912    0.1929601532   -2.3689307330
 C    0.7154946521   -1.9908185042   -1.5148765255
 C    0.7959948321   -2.8505342423   -0.2678502790
 C    0.1604263819   -2.6244824108   -2.7878236740
 C    1.6217392586   -2.3465156161   -2.6905059087
 H    0.7636573905    2.1072313231   -0.4446845279
 H   -0.9602315924    1.7809972296   -0.5625771752
 H   -0.1985784126    1.9183103358    1.0352267230
 H    1.1152166276   -0.1801948485    0.6093743451
 H   -0.5905567958   -0.5028569664    0.4937756970
 H   -0.1441726822   -2.8498697071    0.2941880105
 H    1.0107687677   -3.8886000586   -0.5382998044
 H    1.5914834027   -2.5207097013    0.4090776498
 H   -0.1854147516   -3.6495297915   -2.7101238422
 H   -0.4273761662   -1.9755964462   -3.4260746252
 H    2.0080748203   -1.5122906183   -3.2638701498
 H    2.3053138798   -3.1757949808   -2.5442925662