14

 O   -0.0111534122    0.1257605849    0.6861230296
 C   -0.0109520214    1.1556161492    0.0797714794
 C   -1.3013736839    1.8978620802   -0.3249005011
 N   -1.2079035174    3.3695716046   -0.3291810652
 C   -0.0819856578    3.6964466120   -0.7705848740
 O    0.5916465466    4.8867323555   -0.7597101840
 C    1.8733174393    4.1540969410   -0.7986677985
 C    1.0997802971    2.8535259348   -1.1248893750
 O    1.1927833595    1.7212309147   -0.2816082287
 H   -1.6112987963    1.5166177690   -1.3084276107
 H   -2.0645211560    1.5849696702    0.3882720478
 H    2.5327892978    4.5504027458   -1.5710085606
 H    2.3477309240    4.1580177041    0.1844009380
 H    1.1852343806    2.5597756640   -2.1755608772