15

 C   -1.0997997027    1.4894846841   -0.5117323559
 C    0.0420605970    0.5374144853   -0.1017733337
 C   -0.4564702050   -0.6750463977    0.5431874585
 N   -0.8216214669   -1.6649439699    1.0174826836
 C    0.9718303576    0.2575370812   -1.3222645746
 O    1.3137370794    1.1672875782   -2.0289831696
 N    1.3643610278   -1.0649921985   -1.4799374218
 C    2.2261317754   -1.5779173007   -2.4570019321
 O    2.7839802332   -0.9511677078   -3.3105271569
 H   -0.6639307530    2.3465890802   -1.0257636139
 H   -1.7979536022    0.9896367670   -1.1873863016
 H   -1.6478308347    1.8283388219    0.3694691015
 H    0.6850536159    1.0541731833    0.6227209278
 H    0.9774713709   -1.7411825518   -0.8342415403
 H    2.3275289174   -2.6737855348   -2.3298936510