18

 O   -0.6567533410    0.8111834348    0.6258991610
 C    0.1347813760    1.0261482088   -0.2586092327
 C    1.3052207818    1.9709207308   -0.1640246486
 C    1.2508707114    3.1312492520   -1.2171876903
 N    1.8638774661    4.3026401419   -0.5616286725
 C    1.1802961430    4.8260658730    0.6350575984
 C    0.2825727815    3.7801856878    1.3053212586
 C    1.4485249828    2.7485294719    1.1450688997
 C    2.3751645097    3.9352873784    0.7528846422
 H    0.0358805651    0.5141115529   -1.2446029725
 H    2.2085558878    1.3734240631   -0.3573106975
 H    1.8206567561    2.8932061312   -2.1187911958
 H    0.2258620347    3.3649720214   -1.5235099372
 H    1.0987610566    5.9043971848    0.7182566395
 H    0.1150810071    4.0284731282    2.3557301262
 H   -0.6785767447    3.5385578420    0.8442590204
 H    1.6870720699    2.1463559151    2.0194313365
 H    3.4067394662    4.1236920021    1.0251777046