16

 N   -0.2669378533   -1.2308673055   -0.1830538115
 C   -0.1884711375   -0.0798419549   -0.1001235591
 C   -0.1264338667    1.3672257783   -0.0019161235
 C   -0.0895875332    1.8690934762    1.4968263904
 N    1.3954681430    2.0404437893    1.3535194468
 C    1.2589759662    2.0050229701   -0.0263255254
 N    1.6715875801    2.5924657464   -1.0653317472
 C    0.5953707577    2.3495208207   -2.0680405296
 C   -0.7124426462    2.0928269052   -1.2357917404
 H   -0.6267185472    2.8135486477    1.6305964685
 H   -0.3787832077    1.1415578121    2.2557184797
 H    1.8921669352    2.8031375261    1.7989551460
 H    0.5002085278    3.2274456766   -2.7114598364
 H    0.8398320375    1.4935811038   -2.7096431097
 H   -1.4690164175    1.5139324067   -1.7684304178
 H   -1.1485927881    3.0504664813   -0.9360060609