15

 C   -0.1315076211    1.4993553436    0.0732858533
 C    0.0332071777    0.0162779387   -0.0588350463
 C   -0.1397619847   -0.6701895334   -1.2117185653
 C    0.0388226492   -2.1022425599   -1.2527858755
 O   -0.0792905353   -2.8347344586   -2.1920828012
 O    0.3988027690   -2.7001817218   -0.0191459931
 C    0.5768769429   -2.0260562630    1.1483487665
 N    0.8983984888   -2.5670210653    2.2452791622
 N    0.3812074478   -0.6529384848    1.0812427112
 H    0.7999534765    1.9629146192    0.4175003080
 H   -0.4078770525    1.9433660664   -0.8830756070
 H   -0.9094817328    1.7382808989    0.8072277276
 H   -0.4144971768   -0.1776245685   -2.1321542295
 H    1.0037983684   -3.5720181563    2.1286917431
 H    0.5164940328   -0.1662768752    1.9534436659