18

 C    0.7556464679    1.0953688397    0.0773012483
 C   -0.1935151223   -0.0906071345   -0.1248660921
 C   -0.0374816021   -1.1299261082    0.9912146372
 O   -1.5500047269    0.3549670076   -0.2085406813
 C    0.0214932510   -0.7272102637   -1.5068777599
 O    1.3512626954   -1.2398646629   -1.6221155810
 C    1.5155277366   -2.5368148973   -1.9467897930
 O    2.5905910552   -3.0416133073   -2.0635441639
 H    1.7994328867    0.7765026524    0.0161865821
 H    0.5766711474    1.8570457852   -0.6872120519
 H    0.5966077281    1.5514062496    1.0610746872
 H   -0.2320809206   -0.6710365762    1.9667568632
 H   -0.7503153977   -1.9486159158    0.8537115921
 H    0.9754028607   -1.5410628983    1.0128688824
 H   -1.7554937133    0.8314116320    0.6023968980
 H   -0.7158900018   -1.5243142580   -1.6593271101
 H   -0.1198216129    0.0290563422   -2.2843797889
 H    0.5532780287   -3.0661189564   -2.0903579284