15

 C    0.0836320937    1.5377935694    0.0520262640
 C   -0.0091166920    0.0549380135    0.0356763091
 C   -1.1046648164   -0.7544065044   -0.0349907148
 N   -0.6363105369   -2.0803003935   -0.0173450417
 C    0.7432068543   -2.1290060865    0.0634897510
 O    1.4763631632   -3.0944233708    0.0992693573
 N    1.0975847381   -0.7767097390    0.0947257165
 C   -2.4660018735   -0.4194901060   -0.1125174174
 C   -3.6416209516   -0.1589977242   -0.1797499322
 H    0.6672713032    1.9151960002   -0.7964607683
 H   -0.9177206094    1.9688289350   -0.0038675994
 H    0.5632263940    1.9023481349    0.9685839545
 H   -1.2079548362   -2.9052045949   -0.0573922385
 H    2.0582358614   -0.4862973599    0.1529068819
 H   -4.6745193921    0.0795273362   -0.2386091923