19

 C   -0.5005466838    0.9577149532   -0.0724054248
 O    0.0705279442   -0.3193308755    0.0662710837
 C    0.9521188044   -0.4456484534    1.1779420710
 C    0.1824019541   -0.6042887549    2.5215999832
 C    0.2388415075   -2.1156140361    2.8788846838
 C    0.7481699893   -2.8114820182    1.6025059587
 C    1.7038113529   -1.7712832725    1.0013463685
 H    0.2705974551    1.7377300611   -0.1811899125
 H   -1.1154956328    0.9425382513   -0.9761266339
 H   -1.1419504127    1.2326952405    0.7791460521
 H    1.6299359433    0.4210435374    1.1927517464
 H    0.6243838334    0.0114317305    3.3104513890
 H   -0.8478478587   -0.2617283001    2.3919423341
 H    0.9498249296   -2.2797611171    3.6965503383
 H   -0.7261583594   -2.5029780475    3.2166058595
 H    1.2246107003   -3.7751967089    1.8027026317
 H   -0.0799405561   -2.9859009141    0.9073005130
 H    1.9576952552   -1.9435557590   -0.0470991422
 H    2.6360215842   -1.7382053667    1.5786321005