19

 C   -0.1298490224    1.6047547799   -0.0233936276
 C    0.0148885730    0.0913179872    0.0013252424
 O   -1.2967144260   -0.4435012262   -0.0307100839
 C    0.9159013672   -0.5151072187   -1.0851129593
 C    2.3277987280   -0.6284252143   -0.5046976031
 C    2.2807373052   -0.0793602247    0.9186153495
 C    0.8291367487   -0.5085824965    1.1885594144
 O    0.8357543363   -1.9106928978    0.8390585242
 C    1.3878862465   -1.8078436663   -0.4713575798
 H    0.8340974423    2.1097651012   -0.1114421151
 H   -0.7456155608    1.8937239976   -0.8798226796
 H   -0.6347886886    1.9549211360    0.8823203950
 H   -1.2023318274   -1.3838293208    0.1706540099
 H    0.7101662292   -0.3968457034   -2.1403055807
 H    3.2166308622   -0.6122713723   -1.1209162984
 H    2.9864929783   -0.5814859708    1.5865631614
 H    2.4273801061    1.0002648923    0.9890637675
 H    0.4123029082   -0.3785984886    2.1849621704
 H    1.5260487639   -2.7518847539   -0.9779756071