17

 C   -0.1088996872    1.5443216764   -0.0450349048
 C   -0.0289543063    0.0149642532   -0.0513985771
 C   -1.4077513732   -0.6472735527    0.0244653390
 N    0.7031725673   -0.4562412396   -1.2258712689
 N    0.2497726160   -0.2285411166   -2.5103765180
 C    1.1426220547   -0.7814944183   -3.2460740468
 O    2.1598409616   -1.3630262443   -2.5715099716
 C    1.8798566780   -1.1535049835   -1.2112672724
 O    2.5674537749   -1.5326751722   -0.3056149227
 H    0.8899200004    1.9886555997   -0.0686349072
 H   -0.6687942427    1.9036101499   -0.9131350189
 H   -0.6175492266    1.8883259265    0.8599714985
 H    0.5869817378   -0.3234704455    0.7873019551
 H   -2.0157132837   -0.3695768485   -0.8412558107
 H   -1.3178615597   -1.7367235708    0.0498018620
 H   -1.9287032974   -0.3234545152    0.9299151426
 H    1.1514091759   -0.8211803685   -4.3231791382