17

 O   -0.1201318351   -0.0703419132   -0.0973459295
 C   -0.0109876794    1.1279481010   -0.0811700204
 C    1.2994985206    1.8810282491   -0.1065499250
 C    1.3453837973    2.8992960948   -1.2542350717
 C    2.6131606256    3.8020231467   -1.2102290133
 C    2.6713019660    4.6640725632   -2.3946464042
 C    2.6971116649    5.3472656163   -3.3817133781
 C    2.6752344475    4.5881183402    0.0267431081
 C    2.7087678747    5.2141083244    1.0513999771
 H   -0.9124177808    1.7847772086   -0.0434057922
 H    1.3901732806    2.4200971067    0.8470710546
 H    2.1176882408    1.1574890517   -0.1712400213
 H    1.3375929712    2.3841517240   -2.2196913968
 H    0.4624847576    3.5466414022   -1.2257236892
 H    3.4900090846    3.1379219303   -1.2314826872
 H    2.7301495164    5.9597716435   -4.2487531532
 H    2.7512351075    5.7790683305    1.9499135022