19

 C    0.2716085408    1.4745277150   -0.1056049539
 C    0.1855361031   -0.0432233177   -0.0341377569
 O    1.1670748093   -0.7501009666   -0.1741031138
 N   -1.0673616644   -0.5441463347    0.1979350312
 C   -1.3522003200   -1.9514261891    0.3006330235
 C   -2.1026494385   -2.4892774310    1.5503807039
 C   -2.8376865770   -3.4859447701    0.6128643375
 C   -2.4669592712   -2.5714076584   -0.5866144410
 H    0.6900402016    1.7563138683   -1.0753843483
 H   -0.6881599457    1.9806256202    0.0287129826
 H    0.9675907925    1.8225957243    0.6622872293
 H   -1.8326867180    0.1021427250    0.3035893773
 H   -0.3998236437   -2.4639695407    0.1579844455
 H   -1.5030231698   -2.8850912617    2.3731757637
 H   -2.7915379527   -1.7364145959    1.9493189155
 H   -2.3220900387   -4.4485639898    0.5619642180
 H   -3.8972952048   -3.6682281637    0.8005095089
 H   -3.2585572814   -1.8417019240   -0.7901416005
 H   -2.1683492814   -3.0350803195   -1.5295096025