21

 C   -0.0294238335    1.6028101838    0.0416234567
 C    0.1093521413    0.0847766481    0.0242312055
 C    1.1765276074   -0.6048408295   -0.8212753470
 C    1.3347943458   -1.7269576687    0.1879191594
 C    2.4513470557   -0.7382013678    0.0396983566
 O    3.6833022545   -1.0038499110   -0.5241072001
 C    2.1680773252   -0.1043100292    1.3969822988
 C    0.7318474895   -0.6960650727    1.2364612467
 C   -0.0982364181   -1.0393129058    2.4458909889
 H    0.9303399266    2.1044848650    0.1944998972
 H   -0.4377375798    1.9617077785   -0.9099378695
 H   -0.7119932980    1.9304871005    0.8342885761
 H   -0.8656630642   -0.3692016818   -0.1966586317
 H    1.2454066970   -0.6895992513   -1.8995268536
 H    1.2928674911   -2.8016626454    0.0883743294
 H    3.9772768547   -0.2156929417   -0.9941310519
 H    2.7159398152   -0.6286452451    2.1861630767
 H    2.2759418483    0.9779725831    1.5326708093
 H   -0.3732152510   -0.1344795958    3.0014017183
 H   -1.0251414991   -1.5490104071    2.1599894999
 H    0.4473880914   -1.6952439659    3.1329148944