13

 N   -0.0315004237    1.4030816033    0.1294032100
 C   -0.0460595359    0.0154563810    0.0417780719
 C   -1.2003812871   -0.7138295980    0.0049865466
 N   -2.4603247238   -0.1718501688    0.0010262862
 C   -1.1022107036   -2.1625698782   -0.0773464581
 O   -2.0584964254   -2.9017134755   -0.1263976124
 O    0.1646017025   -2.6686552563   -0.0809195031
 N    1.3454750201   -1.8336440374    0.0059227372
 N    1.1792078235   -0.6070869230    0.0495111972
 H    0.9009188112    1.7828590341    0.0299788187
 H   -0.6860655071    1.8579949514   -0.4958661442
 H   -2.5854989876    0.6757586220    0.5367955891
 H   -3.1852494833   -0.8668438847    0.1278697808