19

 C   -0.0233707765    1.5645256430    0.0241496671
 C    0.0594203352    0.0544285727    0.0906329875
 O   -1.0971255715   -0.5709441530   -0.4017970235
 C    1.3381669777   -0.7436881361   -0.2572361057
 C    2.5443232503   -0.0922105510    0.3233677841
 O    3.6473701197    0.1384492511   -0.0906992043
 C    1.9182186222   -0.0172290475    1.7412137722
 C    0.6828999437   -0.7442885108    1.1777035407
 C   -0.0077855673   -1.8702643576    1.8918651315
 H    0.8791952570    2.0534700251    0.3944115292
 H   -0.1621841264    1.8863455455   -1.0152046082
 H   -0.8804900466    1.9197896365    0.6050754840
 H   -1.2301257417   -0.2755746248   -1.3092313911
 H    1.2936104190   -1.4744274123   -1.0562059449
 H    2.4908265440   -0.6529552109    2.4244753479
 H    1.7821180657    0.9634421148    2.2046515429
 H   -0.5112557107   -1.5008504129    2.7933209091
 H   -0.7597594255   -2.3356518084    1.2532094357
 H    0.7120067017   -2.6339830234    2.2050421859