20

 C   -0.0781783362    1.5766563179   -0.0181531562
 C   -0.0534498381    0.0459809162    0.0020667871
 C   -1.4297723355   -0.6374501033    0.0043779944
 C   -1.2774054231   -2.1588485489   -0.0658688312
 N   -2.1671226102   -0.2912779565    1.2241447140
 C   -3.0504905985    0.8692746212    1.1730651804
 C   -3.6095617245   -0.5081790605    1.1977400283
 H    0.9379336233    1.9774270656   -0.0903365962
 H   -0.6436919899    1.9571181596   -0.8766907950
 H   -0.5301288293    1.9840391587    0.8899008355
 H    0.4971179836   -0.3173494701   -0.8747737289
 H    0.4985863545   -0.3010298556    0.8841258264
 H   -1.9890399493   -0.2997381085   -0.8911063668
 H   -2.2525284972   -2.6545997821   -0.0838502603
 H   -0.7314267870   -2.4518869784   -0.9677375297
 H   -0.7280784812   -2.5264681557    0.8067743474
 H   -3.0686824170    1.4934619490    2.0623032915
 H   -3.1255239441    1.4142436658    0.2336214449
 H   -4.0570109822   -0.8737530996    0.2739869325
 H   -4.0468539980   -0.9158078850    2.1048474120