18

 C   -0.1755607579    1.5146048989   -0.0614353926
 C    0.0266174906    0.0049675112   -0.0407234564
 O   -1.1858340220   -0.6458753364   -0.3486557273
 C    1.2267878209   -0.5970753577   -0.8454944255
 C    2.1431908805   -0.1870831762    0.3344714445
 C    0.8828507638   -0.5891663355    1.1645113597
 C    0.7613557150   -2.0723242665    0.7867672644
 O    0.4092220192   -3.0189972777    1.4393464305
 N    1.1220743568   -2.0473629626   -0.5728886908
 H    0.7335581654    2.0831913124    0.1397680138
 H   -0.5652354916    1.8168366727   -1.0384860402
 H   -0.9154300840    1.8021255565    0.6957189640
 H   -1.8600994934   -0.3587339544    0.2761899002
 H    1.4319217613   -0.3526580287   -1.8868694130
 H    3.0377943479   -0.7958779914    0.4676278484
 H    2.3864952206    0.8726362027    0.3811088296
 H    0.7256945793   -0.3285262645    2.2088631422
 H    0.5540566676   -2.6176896528   -1.1849948416