17

 O   -0.0576738480   -0.0130124934   -0.3196220167
 C   -0.0325337808    1.1798007894   -0.2614243086
 C   -1.1429446943    2.2822920634   -0.3853537831
 C   -0.1189494350    3.2158946507    0.2819419458
 C   -0.0103020333    4.0528859752    1.5306375851
 C    1.4530346021    3.7843441418    2.0051147812
 C    1.8366580575    2.3493622914    1.5151830577
 C    0.9618813073    2.1863840565    0.3036622878
 O    0.9778022629    3.3010417170   -0.6139745729
 H   -1.4760227363    2.5765176687   -1.3815894259
 H   -2.0028889628    2.0090489080    0.2332241892
 H   -0.2029503600    5.1184763313    1.3744878407
 H   -0.7409439704    3.6901007275    2.2630340607
 H    2.1198646622    4.5118822542    1.5384533684
 H    1.5578177294    3.8900184110    3.0875851840
 H    2.9074900244    2.2556937876    1.3167087624
 H    1.5676723052    1.5848395699    2.2525751241