18

 O    0.3968983947    2.6501301061   -0.9099743169
 C    0.0597194814    1.8069872826   -0.1098434942
 N    0.8602109098    0.8512685220    0.4578844390
 C    2.2354482439    0.6034863044    0.2866011037
 N    2.6989943842   -0.3589282356    0.9778362101
 C    4.1035659164   -0.7234511443    0.8301009948
 C    4.7573570186   -0.1719198681   -0.4401637381
 N    4.4508017693    1.2439993936   -0.6419862103
 C    3.0107867949    1.4733675441   -0.6909589257
 H   -0.9791256859    1.7145699147    0.2624426466
 H    0.4302148444    0.2089446119    1.1115369441
 H    4.6439100385   -0.3663557947    1.7197258380
 H    4.1705230887   -1.8185201078    0.8598390008
 H    5.8434224610   -0.3070459701   -0.4093631364
 H    4.3880120113   -0.7221904519   -1.3154937166
 H    4.8461327338    1.7805967021    0.1242292442
 H    2.6315728911    1.2789583970   -1.7032967630
 H    2.7925942737    2.5261721339   -0.5052991901