18

 C   -0.1388683898    1.3788240252    0.0558557642
 O    0.0167277359   -0.0349032100    0.0588894738
 C    0.7275925605   -0.5806832574    1.1354925850
 C    2.1665913848   -0.0736320984    1.2365999537
 O    0.0644831855   -0.2814260644    2.3799055672
 C   -0.4479387385   -1.4203125975    2.9347060469
 N   -1.0954718016   -1.3589510488    4.0210021424
 C   -0.0753200655   -2.5520503351    2.0597948560
 C    0.6069669244   -2.0847313847    1.0198820322
 H    0.8042385550    1.8986708514   -0.1562388018
 H   -0.8475281569    1.6023404142   -0.7440380080
 H   -0.5446452226    1.7351990633    1.0081508073
 H    2.1845183620    0.9884678418    1.4901446097
 H    2.6977758449   -0.6177600875    2.0206552268
 H    2.6828321345   -0.2225799560    0.2842486151
 H   -1.3878882831   -2.2930055687    4.3031282295
 H   -0.3486418021   -3.5758344704    2.2753007554
 H    1.0135903926   -2.6284864271    0.1783005346