21

 C    0.2507820470    1.4048572995    0.1587838597
 C   -0.0198304581   -0.0995932232    0.0076311180
 C   -1.5182192248   -0.3833223443   -0.1047379991
 C    0.8098426699   -0.7064118934   -1.1714745979
 N    2.0095702868   -1.3005489917   -0.5684575429
 C    1.8032271677   -1.3286949137    0.6944150292
 C    2.8216688401   -1.9166705728    1.6337722213
 O    3.9655368861   -2.3365491927    0.9423501434
 N    0.5832545033   -0.8518598239    1.1375561224
 H    1.3262392149    1.6011339739    0.2111414395
 H   -0.1547110570    1.9579896185   -0.6947523403
 H   -0.2190882226    1.8025500437    1.0658407222
 H   -1.9329868287    0.0892505001   -1.0014574114
 H   -1.7025248900   -1.4592645576   -0.1624778137
 H   -2.0633889772    0.0103908309    0.7601277384
 H    0.2393378688   -1.4875480459   -1.6912044105
 H    1.0797494920    0.0491881215   -1.9165436510
 H    3.0867330623   -1.1641681364    2.3955881770
 H    2.3542357650   -2.7551211760    2.1760161375
 H    3.7649915252   -2.1809456067    0.0048941201
 H    0.5454161294   -0.4261437097    2.0543773783