21

 C    0.0521487388    1.6034164065    0.0032339822
 C    0.0187788214    0.0744018566    0.0371640500
 C    0.6427643670   -0.6117229473   -1.1991410627
 C    1.2058388551   -1.9433258281   -0.6819804635
 O    1.3505200899   -2.9499750195   -1.3326743166
 C    1.4628792950   -1.8212646383    0.7908142722
 C    1.5804855566   -3.0857023901    1.6028202087
 C    2.2552587404   -0.5698547956    1.1647709126
 C    0.7609429614   -0.5419795336    1.2284389520
 H    1.0820199283    1.9729138530   -0.0521742472
 H   -0.4907464580    1.9915988881   -0.8648440538
 H   -0.4068148469    2.0287537228    0.9020680704
 H   -1.0284650407   -0.2473005098    0.1069661188
 H   -0.0640509363   -0.7916498419   -2.0113305988
 H    1.4636476953   -0.0165968048   -1.6198488177
 H    2.4184287211   -3.6931584472    1.2475468470
 H    1.7424659217   -2.8617296548    2.6613586998
 H    0.6756077200   -3.6955893153    1.5160937517
 H    2.7975016165   -0.6333988864    2.1021502999
 H    2.7773339781   -0.0154770245    0.3917439693
 H    0.2894442254   -0.4951355099    2.2048751656