15

 N    0.5392550720    0.1850872505    1.9105610575
 C   -0.0106127884   -0.1825310692    0.8311065132
 C   -1.3250689225   -0.9443918678    0.9008295861
 O   -2.1174124869   -0.7463033880   -0.2766788145
 C   -3.1757355850    0.0983403926   -0.1968416393
 O   -3.8340637472    0.3815751692   -1.1477681272
 N    0.4628045830   -0.0198641360   -0.4819515539
 C    1.6485976818    0.5710401681   -0.8489073006
 O    2.4791624307    1.0097493769   -0.0868620107
 H    1.4398961895    0.6292059279    1.7271590070
 H   -1.1292144490   -2.0191135262    0.9610560616
 H   -1.8544387367   -0.6348004566    1.8054023034
 H   -3.3485725515    0.4663479500    0.8315295830
 H   -0.1640661797   -0.3093540203   -1.2203430973
 H    1.7644412200    0.5986571788   -1.9484267083