23

 C   -0.1408053275    1.5543271989    0.2319605439
 C   -0.0617904318    0.0365962249    0.0472395771
 C   -1.4378530682   -0.6356421228   -0.0046878069
 C   -1.3664654919   -2.1552743898   -0.1896962970
 C   -2.7463529111   -2.8202733797   -0.2430061302
 C   -2.6564109507   -4.3298885978   -0.4302798066
 O   -3.9633972300   -4.9059159068   -0.5698324124
 C   -4.4651026679   -5.5967082896    0.4683275604
 O   -5.5581556984   -6.0776018844    0.4616518962
 H    0.8557784971    2.0052408053    0.2653276663
 H   -0.6918484440    2.0250570868   -0.5897832222
 H   -0.6548891745    1.8135929198    1.1641861573
 H    0.4875635205   -0.1927899670   -0.8755007539
 H    0.5246321921   -0.4027029120    0.8652089245
 H   -1.9890144428   -0.4076044843    0.9181518089
 H   -2.0259757588   -0.1980912983   -0.8231542623
 H   -0.8156661867   -2.3829999967   -1.1128476132
 H   -0.7785494980   -2.5929575652    0.6292677168
 H   -3.3020540307   -2.6082316745    0.6794260981
 H   -3.3371378061   -2.4012756180   -1.0660803137
 H   -2.1133812008   -4.5811823487   -1.3465911681
 H   -2.1301041245   -4.8005989363    0.4111953368
 H   -3.7535414453   -5.6740350239    1.3152274003