15

 O    0.0768743616    1.3843189276   -0.1373776938
 C    0.0531918334   -0.0273277198   -0.0491616461
 C    0.6909699053   -0.5416759018    1.2359314209
 C   -0.1603117889   -1.2709156473    1.9739859148
 C    0.1338480821   -1.9015791941    3.2648483900
 O   -0.6605090585   -2.5756884015    3.8810966924
 C   -1.4982248912   -1.3336445731    1.2961290378
 O   -2.0880469984   -0.0183483681    1.1329349193
 C   -1.3698002381   -0.5968930836    0.0356104062
 H   -0.5476628902    1.6980511593    0.5310924250
 H    0.5834373405   -0.3995975500   -0.9332414710
 H    1.7009997285   -0.2663421908    1.5208524205
 H    1.1637103822   -1.7246840268    3.6446914344
 H   -2.1965262468   -2.1412303444    1.4794752469
 H   -1.9499247815   -0.8010940654   -0.8587465073