23

 C   -0.0028119739    1.3980178781    0.1008561264
 O   -0.0077514403   -0.0056143086    0.1853513906
 C   -1.2788185978   -0.5666358437   -0.0601412308
 C   -1.1751113240   -2.0807382424    0.0577361137
 C   -2.5077584816   -2.7890631111   -0.2153028993
 C   -2.4208083449   -4.2977407699   -0.0783877201
 O   -1.5461251496   -4.9186686026   -0.9883659457
 C   -2.5755197600   -4.9433801320    1.2780941211
 C   -3.6514667796   -5.0961165555    0.2170809646
 H    1.0166869425    1.7361275052    0.3025036459
 H   -0.3020477439    1.7500792884   -0.8996159602
 H   -0.6808953111    1.8560818049    0.8391279400
 H   -2.0170794407   -0.1748723218    0.6623347717
 H   -1.6363180877   -0.2831650882   -1.0659912482
 H   -0.4142011523   -2.4252872513   -0.6528330165
 H   -0.8130912195   -2.3306679192    1.0623828237
 H   -3.2737811982   -2.4150029010    0.4754128227
 H   -2.8514895560   -2.5508611325   -1.2303730194
 H   -0.6441745354   -4.7319651038   -0.7066154619
 H   -1.9605260688   -5.8119923056    1.4854488225
 H   -2.7810256651   -4.3139258532    2.1376386986
 H   -4.5908535134   -4.5708010696    0.3512799640
 H   -3.7307392787   -6.0593466246   -0.2730281234