22

 C   -0.0981064507    1.6379583613   -0.1938913341
 C   -0.0101915264    0.1204069007   -0.0296891508
 C    0.9280101890   -0.7061648746   -1.0067730679
 C    1.7993452193   -0.9318541484    0.2426412531
 C    2.3585968504   -1.8191823740    1.3946776002
 C    1.9214601787   -0.4073091250    1.9835841360
 C    2.6404703129    0.2830668698    0.8097792772
 C    4.1571073847    0.3781785172    0.6992249850
 N    0.6514785104   -0.6241670657    1.1470224741
 H    0.8435115238    2.1172049122   -0.4690942536
 H   -0.8230596183    1.8710225671   -0.9828587892
 H   -0.4610457187    2.1006474045    0.7299880658
 H   -1.0370134899   -0.2554943022   -0.0368417565
 H    0.4370148102   -1.6030935781   -1.3900784939
 H    1.3952095590   -0.1598584702   -1.8300489469
 H    1.7102264274   -2.6477154291    1.6778735663
 H    3.4174712625   -2.0761263618    1.4362555998
 H    1.8982599603   -0.1242460870    3.0402231551
 H    2.2064998936    1.2525729864    0.5750310935
 H    4.6746819033   -0.5609042885    0.9067385763
 H    4.4454950523    0.6975189956   -0.3087936412
 H    4.5435426062    1.1290821900    1.3983820517