18

 C   -0.0953227574    1.3368903547    0.1480070217
 O   -0.0103536153   -0.0647783324    0.0299829790
 C    0.6518710004   -0.4739565708   -1.1446918264
 C    0.6731166759   -1.9962224478   -1.1470928326
 C    1.3623762464   -2.5781748036   -2.3646946501
 O    1.8399388659   -1.9048155967   -3.2409214785
 C    1.4100983285   -4.1204547374   -2.4024867973
 C    2.0707166372   -4.6570733755   -3.5850922182
 N    2.5900542612   -5.1031760478   -4.5144621235
 H    0.9011323296    1.8043623470    0.1809701239
 H   -0.6558032619    1.7831673776   -0.6881976151
 H   -0.6194247816    1.5541033988    1.0815576823
 H    0.1367033852   -0.0991116937   -2.0427206211
 H    1.6790773792   -0.0789680970   -1.1801839716
 H    1.1711380189   -2.3661250492   -0.2410648762
 H   -0.3521281479   -2.3859942178   -1.0947142486
 H    1.9190887357   -4.4807492808   -1.4999248537
 H    0.3858222399   -4.5087040576   -2.3434392240