14

 C    0.0249588046    1.4781777965   -0.1588692783
 C    0.0023897468   -0.0537422589    0.0872369780
 C    0.6998609755   -0.4090832964    1.3272777753
 C    1.2877640797   -0.6757619568    2.3395091564
 C   -1.3704825543   -0.5643084843    0.0713051750
 C   -2.5102851141   -0.9589996098    0.0245662862
 C   -3.8639125828   -1.4529079534    0.0142219332
 O   -4.6398868491   -1.3063010173   -0.9018714526
 H    1.0592724590    1.8279005808   -0.1880503204
 H   -0.4625605723    1.7105835754   -1.1082678066
 H   -0.4991574989    1.9986839680    0.6451465006
 H    0.5327205694   -0.5306879477   -0.7503053799
 H    1.8031100913   -0.9214326421    3.2351795884
 H   -4.1533980849   -1.9952399040    0.9370984347