16

 C    0.0083027089    1.4686981264   -0.1235042081
 C    1.2868898407    0.7059796420   -0.0181862319
 C    2.1226881693    0.7972229053    1.2616442274
 O    1.7425819829   -0.1463611648    2.2487737169
 C    0.3519585225   -0.0783081854    2.5065081680
 C   -0.4264437032   -0.5737509307    1.2848043856
 N   -0.0112159672    0.0171119075    0.0087557386
 H   -0.2702907375    2.0843381349    0.7309138624
 H   -0.3343626340    1.8496311739   -1.0822469522
 H    1.8562407005    0.5227044756   -0.9269788618
 H    3.1713083293    0.5886131725    1.0349149393
 H    2.0675187500    1.8145308254    1.6851266415
 H    0.1540712229   -0.7239956752    3.3672614116
 H    0.0648219296    0.9502178639    2.7856358862
 H   -0.2663276824   -1.6544256896    1.1962003591
 H   -1.5018233023   -0.4066831317    1.4144683774