15

 O   -0.3150258648    0.4502338970    0.7764703322
 C    0.2510540625    0.8334625561   -0.2154242224
 C    1.4153875374    1.7615160089   -0.2051688858
 N    2.2695471071    1.7045054517   -1.4211803435
 C    1.4931831048    2.8900950580   -1.1800627752
 C    0.4650232037    3.4923478422   -2.1354577862
 O    0.9475235265    4.8204268030   -1.8279523713
 C    1.9587126433    4.3235314965   -0.9291980043
 H   -0.0598398538    0.5208360526   -1.2372848197
 H    1.8742993290    1.9152810202    0.7688828669
 H    3.2474950512    1.8363039841   -1.1729361913
 H    0.6131122234    3.2251146422   -3.1886053065
 H   -0.5906611368    3.3687635248   -1.8671982975
 H    1.8328897492    4.7049307919    0.0915716993
 H    2.9756346372    4.5501603006   -1.2790265546