14

 C   -0.0875403415    1.5251224647    0.0575468119
 C    0.1295241127    0.0502044683    0.0158621428
 O   -0.7973249764   -0.8228530270    0.6638210980
 C    0.5901747525   -0.9432294942    0.9890956580
 C    1.3124249058   -1.7509901633   -0.1482029740
 N    0.2907520344   -2.1360855923   -1.1509356269
 C    0.8427939453   -0.7606758254   -1.1407273583
 H    0.8284281434    2.0603637059   -0.2146215055
 H   -0.8726288039    1.8220259039   -0.6472893478
 H   -0.3912724058    1.8368303215    1.0603382082
 H    0.8815515707   -0.8628567881    2.0298382358
 H    2.2634328712   -2.2593692593   -0.0641406326
 H    0.7889781421   -2.6382723733   -1.8873235944
 H    1.3509655494   -0.3335786112   -1.9955692951