18

 C   -0.0909812837    1.5831084675    0.1289119189
 C   -0.0089043739    0.0575709828    0.0207319897
 O    0.6587273516   -0.4067687629    1.1892359461
 C   -1.3794797902   -0.5093699799   -0.0179991833
 N   -2.4301486057   -0.9896974261   -0.0029348077
 C    0.7444520708   -0.4220391780   -1.2467020128
 O    0.0612083574    0.0789055324   -2.3734268401
 C    2.2120779199    0.0021079369   -1.2798979171
 O    2.7084365568   -0.5096948031   -2.5148086711
 H    0.9040405446    1.9860813399    0.3304195141
 H   -0.4728300928    2.0000653531   -0.8035844503
 H   -0.7487019763    1.8637470804    0.9533670177
 H    0.5761447756   -1.3668952138    1.2302612363
 H    0.7242328647   -1.5261789025   -1.2420089882
 H    0.6444115538   -0.0824816514   -3.1262846557
 H    2.2889518918    1.0968801845   -1.2522007029
 H    2.7497952204   -0.4121301513   -0.4185376161
 H    3.5648643252   -0.1114781386   -2.6924274872