17

 O   -0.4603360051    0.2866607176   -0.1075188520
 C   -0.0654289420    1.4092545638    0.0697236067
 C    1.4109662519    1.8146850597    0.0422987066
 C    1.6844158175    2.5219210159   -1.2658096111
 C    2.2495761776    3.7214076977   -1.3758891113
 C    2.7315643236    4.5521752003   -0.2200273678
 C    2.3707896090    3.9824991030    1.1310745229
 O    0.9752620884    3.8596857653    1.4189921066
 C    1.7426863684    2.6582756804    1.2592471982
 H   -0.7598902243    2.2577535634    0.2419285222
 H    1.9859207249    0.8807991200    0.0828027570
 H    1.3854899917    1.9801498868   -2.1591877295
 H    2.4091506794    4.1416480678   -2.3656769065
 H    3.8247186144    4.6571063509   -0.2757043739
 H    2.3359976247    5.5744338750   -0.2971659554
 H    2.9596570152    4.3519909964    1.9708965505
 H    1.8854855744    2.0998110459    2.1843202967