19

 C   -0.1258599921    1.5411302625   -0.0098705006
 C   -0.0559340700    0.0202692982   -0.0306659510
 O   -1.3280549580   -0.5727622750   -0.2042827927
 C    1.1146220872   -0.5328553720   -0.9198836749
 C    1.9460165391   -0.6435595095    0.3595448503
 C    3.2776981423   -1.1630196673    0.6503714286
 O    3.0235308844    0.2496512248    0.5986398024
 C    0.6771038895   -0.5769465452    1.2118196477
 O    0.7808196800    0.1530769832    2.4008078596
 H    0.8566661431    1.9778602682    0.1852063310
 H   -0.4818083245    1.9200729542   -0.9759938427
 H   -0.8106334532    1.8797611762    0.7725909941
 H   -1.7655369045   -0.1407036834   -0.9457559691
 H    0.8602383750   -1.5047559427   -1.3504927455
 H    1.5157120694    0.1290380129   -1.6902916018
 H    3.4984118734   -1.5565528526    1.6419004770
 H    3.8952384894   -1.5558791115   -0.1566629260
 H    0.2857572347   -1.5919006343    1.3763595336
 H   -0.0255341953    0.0181262733    2.9082398101