19

 C   -0.1918851955    1.4914437858   -0.1115661263
 C    0.0757732154    0.0054479357    0.0622679128
 O    1.0028483758   -0.4712828119   -0.9619652386
 C    2.1106579309   -1.0568406421   -0.2365689523
 C    1.5117429489   -1.8237363553    0.9479008316
 C    2.3930413966   -1.2158361756    2.0791649683
 C    1.1565169628   -0.5684436559    2.7847770859
 C    0.8863759584   -0.4192992801    1.2719204437
 C    2.4027978195   -0.1375595360    0.9543765904
 H    0.7278590264    2.0706964512    0.0103178709
 H   -0.5912018785    1.6903105645   -1.1100368602
 H   -0.9241640355    1.8376836683    0.6258723728
 H   -0.8589244087   -0.5627313811   -0.0315083850
 H    2.8344396162   -1.4352501041   -0.9579399238
 H    0.9588303548   -2.7635817859    0.9647565526
 H    3.2609244539   -1.6741522711    2.5528196955
 H    0.4961752888   -1.2413051383    3.3406703433
 H    1.3348411885    0.3520105582    3.3490872054
 H    2.8732378112    0.8456035937    0.9815604831