19

 C   -0.4905533813    1.3203517465   -0.0121633356
 N    0.0192103606   -0.0402833307    0.0639371567
 C    1.4165638305   -0.2681713916   -0.2775046309
 C    0.9381681092   -0.4465424785    1.1230920494
 C    1.3979456352    0.4937587180    2.2345440294
 C    0.4048465466    0.5097870120    3.4264848513
 O    0.8046681381    1.3829896733    4.4542675387
 C    2.7200563268    0.0913199505    2.7246995206
 N    3.7399824476   -0.2362831759    3.1603294214
 H    0.2461929733    2.1060099629    0.2197080651
 H   -0.8465309920    1.4952590105   -1.0318585867
 H   -1.3433649199    1.4318558096    0.6649373960
 H    1.6292781746   -1.1290861743   -0.9050126410
 H    2.0414606316    0.6035971505   -0.4734219953
 H    0.7599869654   -1.4604858425    1.4789047588
 H    1.4899220558    1.5188045711    1.8620012138
 H   -0.5606034940    0.8736530876    3.0643572031
 H    0.2621347234   -0.5205183748    3.7853374772
 H    1.6117583487    1.0340543055    4.8500868782