19

 O    0.0179474307    1.3694103399   -0.4731876991
 C    0.0142138423    0.0400337902   -0.0028896055
 C    0.4122185123   -1.0354628296   -1.0641361449
 C   -1.0415674262   -1.5850347745   -1.0509259460
 C   -1.4177244336   -0.5635154564    0.0745662237
 C   -1.5322134919   -1.2082953633    1.4493565810
 O   -2.5444225337   -1.6088468484    1.9640984520
 C   -0.1281822907   -1.2669311343    2.0697190955
 C    0.6423617144   -0.1179883868    1.3991718163
 H    0.9349482846    1.6519217224   -0.5658500354
 H    0.7205722319   -0.5945444751   -2.0143855188
 H    1.1799320796   -1.7434252297   -0.7388017022
 H   -1.5915198811   -1.4107589491   -1.9767881216
 H   -1.1541517982   -2.6373320834   -0.7795643242
 H   -2.2562813741    0.0983290656   -0.1405519873
 H   -0.1783771362   -1.2150140066    3.1588581772
 H    0.3065160163   -2.2427210729    1.8134083668
 H    1.7239305313   -0.2858783665    1.3587217910
 H    0.4662743224    0.8164360285    1.9433740516