20

 C    0.1844698605    1.4939046202    0.4346883038
 C   -0.0010568965    0.0063349136    0.1059290884
 C    0.6116281862   -0.3799205279   -1.2068163638
 C    0.9943142868   -1.6753257330   -1.8067995261
 C   -0.0086683421   -1.4796759333   -3.0198725450
 C    0.1666579395    0.0003398610   -2.6494754431
 C    1.1835167462    0.6192064966   -3.2804966301
 C    2.4318410348    0.4336623143   -2.4248166207
 N    2.0279061391   -0.6040017670   -1.4341907726
 H    1.2466126640    1.7431396458    0.5233110669
 H   -0.2460497194    2.1255095439   -0.3490419737
 H   -0.3011015885    1.7506304085    1.3809125800
 H    0.4496679631   -0.6113093252    0.8910600205
 H   -1.0711904160   -0.2368610712    0.0842240034
 H    1.1584766955   -2.6231657885   -1.3032434274
 H    0.2873994171   -1.7733979061   -4.0299458561
 H   -0.9563188309   -1.9593468106   -2.7485346727
 H    1.2658844013    0.6569696120   -4.3635648714
 H    3.2462399657    0.0847984940   -3.0711769489
 H    2.8088278036    1.2943505330   -1.8572333814