16

 C   -0.7541447474    1.1694011547    0.1382872521
 N   -0.0608656429   -0.0941930966   -0.0140866250
 C   -0.4030524484   -1.1750696517   -0.7531076487
 C    0.6190259323   -2.0717657641   -0.5352089402
 N    1.5225552398   -1.4959046630    0.3063770021
 N    1.1088300032   -0.3020214232    0.6233686231
 C    0.8043861469   -3.4294637423   -1.0805233615
 C   -0.2219287322   -4.4791752572   -0.9433929115
 O   -0.0425185855   -3.7859713712   -2.1776457929
 H   -0.8565858765    1.6712969512   -0.8275937901
 H   -1.7457449974    1.0153871145    0.5723012190
 H   -0.1548863702    1.7860822965    0.8077219048
 H   -1.2901258518   -1.2167893200   -1.3612342463
 H    1.8432120436   -3.7425773880   -1.1729501549
 H    0.0760864501   -5.5267320891   -0.9460235702
 H   -1.1413260836   -4.2513014406   -0.4065684600