20

 C   -0.2116991948    1.2923512454   -0.1279000305
 N    0.1617538386   -0.1100911636   -0.0084700896
 C    1.5905900235   -0.4299450612   -0.0806586715
 C    0.8425502290   -0.5295213010    1.1938989789
 C    1.0678897555    0.2173720816    2.5125114513
 O    0.7415091540   -0.9795041162    3.2572142923
 C    0.4606413217   -1.7067586108    2.0552285064
 C   -0.6986315536   -2.6337942051    1.9173861297
 C    0.7307288759   -3.1646372237    1.9066431607
 H    0.5250996843    1.9859575018    0.3102882969
 H   -0.3259623142    1.5422517265   -1.1869513521
 H   -1.1741824592    1.4558135105    0.3669106782
 H    1.8513909928   -1.3201567237   -0.6477246763
 H    2.2969486892    0.3954496463   -0.1769704634
 H    2.0899646442    0.5570193930    2.7144709266
 H    0.3639400817    1.0329638789    2.7205913588
 H   -1.2920171929   -2.8208800570    2.8057864034
 H   -1.2518275457   -2.6049059898    0.9846168267
 H    1.1505591556   -3.5233705286    0.9720832572
 H    1.0719887442   -3.6922390231    2.7909846364