15

 C   -0.0263292846    1.4225310111    0.0759154596
 N    0.0236999532   -0.0223046291    0.0471556719
 C   -0.0137302292   -0.7673335836   -1.1331856046
 O   -0.0795077758   -0.3392629149   -2.2703261609
 N    0.0324708923   -2.0897838202   -0.7086924022
 C   -0.0117693445   -2.1462049660    0.7025286708
 O   -0.0546558352   -3.3127820850    1.4042038792
 C    0.0079413641   -0.8767711624    1.1463409962
 O    0.0472742645   -0.3417187590    2.3882712146
 H    0.8494945235    1.8392974444    0.5824101231
 H   -0.0398983455    1.7534521699   -0.9636053656
 H   -0.9281363409    1.7787292987    0.5840180249
 H   -0.2837963233   -2.8296503959   -1.3134500003
 H    0.8167496250   -3.7313597116    1.3891376361
 H   -0.0705791536   -1.0608577864    3.0195805571