18

 C    0.3538539338    1.4833757625    0.1267554072
 O    1.1199145936    0.3453213890   -0.2675858582
 C   -0.2589555363    0.1474627689    0.0756971298
 C   -0.5310515871   -0.6474557547    1.3071622167
 C   -1.8180495553   -0.8045670934    2.1147383743
 N   -0.8824055508   -1.6997961507    2.9176806483
 C   -0.2004176464   -2.1532483733    1.5984103252
 C    1.1923009322   -1.8564140157    2.1620595898
 C    0.2887709675   -0.7155432921    2.6376575828
 H    0.6191112578    1.9132707149    1.0913503448
 H    0.1442981604    2.2025400259   -0.6636209742
 H   -0.8973041676   -0.0817961626   -0.7801314722
 H   -2.1836258213    0.0624537495    2.6756840248
 H   -2.6534608511   -1.3457305344    1.6573666304
 H   -0.5737350925   -3.0272638292    1.0609308767
 H    1.5428903138   -2.5396646223    2.9399462370
 H    1.9722388724   -1.5974800125    1.4460733687
 H    0.4918330369    0.1020351403    3.3325295481