21

 C   -0.0264166870    1.4205319400   -0.1075387084
 O    0.4473517257    0.0907258138   -0.1267735687
 C   -0.0421567421   -0.6600180302   -1.2282803812
 C    0.3964464398   -2.1006408535   -1.0638733747
 C    0.0021589273   -2.7376712649    0.2617157867
 O    0.8134775953   -2.2940814998    1.3321960625
 O    0.1722279654   -2.9078801763   -2.2272908790
 C    1.5295437484   -2.6774956883   -1.8066126279
 C    2.4405184825   -1.9390967893   -2.7512652719
 H    0.2809632379    1.9676384318   -1.0109865412
 H   -1.1237307119    1.4573550597   -0.0358452646
 H    0.4060807537    1.9092369317    0.7680860644
 H   -1.1447273422   -0.6282511866   -1.2460844997
 H    0.3120898356   -0.2353836518   -2.1767180171
 H   -1.0675141511   -2.5465733142    0.4543100309
 H    0.1305246543   -3.8211636163    0.1798795090
 H    0.8029911952   -1.3289999575    1.2896654636
 H    1.9867218341   -3.5543626627   -1.3438482680
 H    1.9538669659   -1.0739470769   -3.2055387041
 H    3.3364675295   -1.5997000873   -2.2208464411
 H    2.7609310239   -2.6053019814   -3.5590331294