18

 C   -0.0166740251    1.5552777780    0.0390004411
 O    1.3158749927    2.0887792605    0.0399652848
 C    2.2968763511    1.0670635964    0.0023462433
 C    2.0737850360    0.1349810441    1.2065983579
 O    0.7657990822   -0.4498659176    1.1235123049
 C    0.0427537835    0.0292791886   -0.0223286272
 C    0.8030802918   -0.4262555096   -1.2634190231
 N    1.1533922675    0.6287439400   -2.2389678262
 C    2.1491972686    0.1933622623   -1.2476376729
 H   -0.5199618971    1.8583759466    0.9658164520
 H   -0.5585232280    1.9623902552   -0.8204034216
 H    3.2681570416    1.5643269322    0.0617722531
 H    2.8249556977   -0.6668184735    1.2317156762
 H    2.1482180726    0.7108081804    2.1373963051
 H   -0.9570885079   -0.4034515072    0.0563226375
 H    0.6599138319   -1.4464264454   -1.6044965042
 H    1.3651420409    0.1943720104   -3.1337895194
 H    3.0211554399   -0.3660576815   -1.5744116713