20

 C    0.1214656137    1.5003950581    0.0791677315
 C    0.1600943184   -0.0144449460   -0.0169110973
 O    0.7459196016   -0.5199720519    1.1777477518
 C    0.7507812947   -1.9008932448    1.2675729483
 O    1.6060138975   -2.4666339636    0.2733390656
 C    2.2999442035   -3.5972149015    0.7880597661
 C    2.2724089911   -3.4502630360    2.2965734178
 N    2.7503734557   -2.1229079915    2.7252632605
 C    1.3017883701   -2.3764778271    2.5958975108
 H    1.1325617531    1.9012920995    0.1922521023
 H   -0.3223884827    1.9268489057   -0.8255231252
 H   -0.4714696393    1.8188713902    0.9415105539
 H   -0.8569066990   -0.4253318375   -0.1328882311
 H    0.7480165970   -0.3379651278   -0.8848602671
 H   -0.2764261787   -2.2897204230    1.1207727033
 H    1.8026991341   -4.5348116920    0.4939054854
 H    3.3122365660   -3.5902612391    0.3701576192
 H    2.4042480972   -4.3177273666    2.9340587288
 H    2.9979643315   -2.1585829113    3.7115007937
 H    0.6616210145   -2.3757125638    3.4704222820