23

 C    0.0102704172    1.5792178027    0.0174208951
 C   -0.0091195612    0.0491535215    0.0297088290
 C   -1.4242170379   -0.5347229407   -0.0084093075
 O   -2.1266505366   -0.1428609686   -1.1859659348
 C   -1.4313651196   -2.0714959427    0.1505667241
 O   -0.7300384310   -2.4651026468    1.3307226290
 C   -2.8451053323   -2.6526612369    0.1110982557
 C   -2.8634035262   -4.1754949890    0.1087536273
 O   -4.2214707710   -4.5923168453    0.1226449482
 H    1.0346667420    1.9618120165   -0.0180384973
 H   -0.5331929622    1.9692243171   -0.8476532987
 H   -0.4660330718    1.9855937277    0.9167219356
 H    0.5462591190   -0.3405468985   -0.8376031816
 H    0.5025418098   -0.3413265228    0.9142989175
 H   -2.0134069401   -0.1069304186    0.8167054563
 H   -1.5865831859   -0.3965612063   -1.9434129722
 H   -0.8382558162   -2.4976888568   -0.6727123446
 H   -1.2675732971   -2.2014883731    2.0866775843
 H   -3.4096017247   -2.2937188948    0.9840134435
 H   -3.3671575513   -2.2741993933   -0.7718747714
 H   -2.3409868106   -4.5490315625   -0.7880560706
 H   -2.3156937580   -4.5535438556    0.9840009598
 H   -4.2387823044   -5.5529340733    0.1601149734