18

 C    0.0002185133    1.4610929663    0.2044507756
 N   -0.0369619943    0.0215151759   -0.0301380483
 C    0.6619441823   -0.5003803630   -1.1866338074
 C   -0.0495786037   -0.0999336558   -2.5004444297
 C   -1.4292012486   -0.5750293814   -2.5596557346
 N   -2.5157194549   -0.9600452488   -2.6312738735
 C    2.1710218243   -0.1084307116   -1.3047438769
 C    2.9027803928   -0.4552141128   -0.0918501018
 N    3.4413910088   -0.7409121760    0.8899731383
 H    1.0085967245    1.8885729708    0.3266413776
 H   -0.5000768443    1.9941055997   -0.6103853094
 H   -0.5624787938    1.6750570933    1.1162501850
 H    0.2541748350   -0.4781190951    0.8009787007
 H    0.6187324820   -1.5914060748   -1.1070734142
 H   -0.0458875284    0.9891090096   -2.6204203788
 H    0.4965563530   -0.5098420890   -3.3571996935
 H    2.6283647557   -0.6235079779   -2.1567188013
 H    2.2777356562    0.9667635204   -1.4866057880