12

 C   -0.0326945904    1.4393259430   -0.0160031109
 N   -0.0087715686   -0.0198684277    0.0004804596
 N   -0.0537709302   -0.6241870955   -1.1781761775
 N   -0.0355240085   -1.9062823267   -1.2237335368
 C    0.0307637801   -2.5739779347   -0.0201838559
 N    0.0778553894   -2.0662048172    1.1696372930
 C    0.0601472163   -0.6852758716    1.2605520009
 O    0.0968046905   -0.0376167864    2.2768693054
 H    0.8687611313    1.8231767180    0.4663039667
 H   -0.0853640502    1.7547285082   -1.0567407744
 H   -0.8980393550    1.7951699785    0.5471638214
 H    0.0433875053   -3.6572005579   -0.1207214515