16

 C   -0.0307635358    1.1770043911   -0.2500849514
 C    1.4558384148    1.5132180558   -0.0265311339
 C    1.4853038451    0.1950191153    0.7906576447
 O    0.0967159614   -0.0678255173    0.4750283939
 C    2.3987984258   -0.8859783503    0.3336293914
 C    3.2271299418   -1.7417206660    0.9928634239
 C    3.8078370087   -2.5109628346   -0.0493582076
 N    3.3705924286   -2.1513507040   -1.2310838013
 O    2.4748941673   -1.1159887380   -0.9910046816
 H   -0.7462316657    1.8538418739    0.2317211081
 H   -0.3360747866    1.0114120473   -1.2887590488
 H    2.0721054491    1.4936561170   -0.9248009269
 H    1.6660940034    2.4167180613    0.5462086468
 H    1.6265586016    0.3289291408    1.8701813938
 H    3.3912278881   -1.8154035657    2.0548150428
 H    4.5279688524   -3.3140413765    0.0197961862