17

 C   -0.1317452920    1.5607746525   -0.0031046814
 C    0.0824533439    0.0559373101    0.0296764879
 C    1.2293935022   -0.5697451600   -0.8417998007
 O    2.4007186325    0.2312428939   -0.7023317533
 C    2.9267237690    0.1097368071    0.6029334913
 O    1.9361234951    0.2153625963    1.6042885175
 C    0.8042738160   -0.5842775496    1.2688331679
 C    1.2055092144   -1.6869533189    0.2438770571
 O    1.1603558139   -2.8795973348    0.2265698466
 H    0.7994080341    2.0948126524    0.1879382325
 H   -0.5125714147    1.8723271651   -0.9807292128
 H   -0.8618905244    1.8604253324    0.7551439549
 H   -0.8509761871   -0.4853678952   -0.1620588227
 H    1.0792249681   -0.8011703396   -1.8957530361
 H    3.4308781164   -0.8677774650    0.6977482531
 H    3.6376890513    0.9236460434    0.7517377120
 H    0.2584309315   -0.8292277102    2.1793170264