19

 C   -0.2796087894    1.4971972822    0.0334744920
 C    0.1427825767    0.0209804922    0.0557162637
 C    0.7779437253   -0.4020140022   -1.2382854781
 C    0.0218578355   -0.9238353938   -2.3963737842
 N    0.9199911627   -1.8571050995   -1.6879797795
 C    2.2917595423   -1.5246122764   -2.2111307190
 C    2.2042100659   -0.0737862111   -1.6587762406
 O    2.3052842391    1.0258284793   -2.5389962809
 H    0.5728146450    2.1475063597   -0.1869942307
 H   -1.0356878877    1.6768194732   -0.7374354838
 H   -0.6982627945    1.8005494835    0.9976975016
 H    0.8460582538   -0.1521320269    0.8807782470
 H   -0.7248868797   -0.6198839080    0.2497002886
 H   -1.0293295797   -1.1434388605   -2.2335585989
 H    0.2731919456   -0.6097746658   -3.4064814940
 H    3.0480774266   -2.1467130212   -1.7274519230
 H    2.3825440878   -1.6120282349   -3.2990678454
 H    2.8547116281    0.0611377653   -0.7841312654
 H    3.2372993366    1.1878582548   -2.7175703491