18

 C    0.1371446473    1.3111345473    0.2420480476
 O   -0.0794916213   -0.0488287989   -0.1381696537
 C   -1.3354334259   -0.5120530997    0.0152436369
 N   -2.2736644694    0.2087782419    0.4611282432
 C   -1.3732337929   -1.9727529997   -0.4251116539
 C   -2.6910761424   -2.5820025547   -0.3477933874
 C   -3.7865062295   -3.0752169689   -0.2752638281
 C   -5.1098411607   -3.6836050999   -0.2167428780
 O   -5.3939960573   -4.0824514939    1.1180098931
 H    1.1942324991    1.5055635645    0.0558189331
 H   -0.4887087408    1.9833940433   -0.3512413769
 H   -0.1022252191    1.4603833941    1.2984378748
 H   -3.1373469923   -0.3304704912    0.5024952716
 H   -0.9825335427   -2.0267428565   -1.4490654332
 H   -0.6545049259   -2.5291662116    0.1899146729
 H   -5.8544223255   -2.9591786864   -0.5849804958
 H   -5.1363747847   -4.5435227266   -0.9060353495
 H   -6.2765131262   -4.4671275329    1.1210068634