20

 C   -1.0217666193    1.0317452457    0.0521166012
 C    0.0912616942    0.0011713805    0.1546823227
 C    1.1930079313   -0.0230579319   -0.9476510709
 C    2.2250404048   -0.2877903783    0.1602331392
 C    1.2204498788    0.2209603086    1.2064414039
 C    2.9262007609   -1.6550108550    0.3061807253
 C    4.1948345473   -0.8383733819    0.1975048635
 N    5.4212448311   -1.0981126783    0.2112984851
 O    3.5317891610    0.3650946144    0.0696254736
 H   -0.6114445327    2.0408097272   -0.0674179886
 H   -1.6710342855    0.8311890102   -0.8072381322
 H   -1.6486422316    1.0303192025    0.9506079569
 H   -0.3364703897   -1.0001330242    0.2735603757
 H    1.1134623869   -0.7528573711   -1.7572199439
 H    1.3462937977    0.9722347097   -1.3767318302
 H    1.3816426573    1.2865659868    1.3980551081
 H    1.1633720160   -0.3090575984    2.1604642925
 H    2.7900763643   -2.1621963270    1.2633015043
 H    2.7674848965   -2.3630325226   -0.5095159657
 H    5.9782328107   -0.2479011470    0.1078884294