21

 C   -0.0070754918    1.5410777735    0.0211188631
 C    0.0548689648    0.0287885707   -0.0150175738
 C   -0.8385824987   -0.7470820712    0.9513003801
 C    0.6412495783   -0.7359731637    1.1766792528
 C    1.4612212767   -2.0117549649    0.9746271402
 C    1.8594895871   -2.2594558184   -0.4878287985
 C    0.6745829338   -2.0240796666   -1.4411283074
 C    0.2461869872   -0.5632872113   -1.3768472192
 O    0.1238851530    0.1104921246   -2.3789633745
 H    0.9205659508    1.9821862341   -0.3565672335
 H   -0.8215888593    1.9088029443   -0.6085411355
 H   -0.1670584439    1.8980368558    1.0430331881
 H   -1.4749205261   -0.1489672020    1.5948758006
 H   -1.2963599315   -1.6691943381    0.6086988582
 H    0.9839050562   -0.0908179851    1.9802720326
 H    2.3640829980   -1.9602132288    1.5914991714
 H    0.8883208459   -2.8715672756    1.3445246543
 H    2.6741699658   -1.5799929899   -0.7681028346
 H    2.2463774567   -3.2769887565   -0.6070453216
 H    0.9307226234   -2.2436689187   -2.4800205234
 H   -0.1629955363   -2.6766991122   -1.1615223495