19

 C   -0.0291483823    1.5548389230    0.1067957496
 C    1.5125659487    1.3012208159   -0.0306833746
 O    1.8628423483    0.6678172300    1.2012324949
 C    1.0478342874   -0.4883684138    1.0391535063
 C    1.5480926193   -1.2780095056   -0.1915881574
 C    0.3244440741   -2.1859598334   -0.5114565107
 C   -0.8920511648   -1.1920198625   -0.3152866055
 C   -0.0624532195    0.0240006596    0.0261436826
 C    1.1965708744    0.0346886196   -0.9151787784
 H   -0.3714329266    2.0637064371    1.0117267700
 H   -0.4470650369    2.0253083594   -0.7873468124
 H    2.2254152352    2.0796069317   -0.2973883032
 H    0.8192458394   -0.9594233020    1.9954666910
 H    2.5313519178   -1.7514848517   -0.2166901940
 H    0.3639414657   -2.5808748375   -1.5304391304
 H    0.2735393179   -3.0404978610    0.1704071172
 H   -1.4806948413   -1.0724484186   -1.2291752639
 H   -1.5672006526   -1.5163710736    0.4827167657
 H    1.1002770560    0.1366847636   -1.9957431467