14

 C   -0.1353637226    1.2712276581   -0.3389595124
 C    1.2597941765    1.0493908212    0.1388620633
 N    0.2934383120   -0.0466845624    0.1204004262
 C   -0.1957428902   -0.5593051334    1.3040459512
 C   -1.4619331523   -0.7886565134    1.7664892931
 C   -1.2324234277   -1.4348790043    3.0063634506
 N    0.0403113984   -1.5826495366    3.2804181280
 O    0.7109308501   -1.0168734011    2.1820015857
 H   -0.8030747086    1.8324470909    0.3097173163
 H   -0.3469534251    1.3421826601   -1.4010124820
 H    2.0733146847    0.9535893809   -0.5725822927
 H    1.5336661020    1.4583065045    1.1070627595
 H   -2.3956633921   -0.5472367023    1.2891976058
 H   -1.9605454551   -1.7997299422    3.7180725875