19

 C    0.0835728871   -1.2403723474    0.0253951417
 C   -0.0200828758   -0.0381543549    0.0221703247
 C   -0.0824598311    1.3817256467    0.0115531429
 C   -1.2880414493    1.9930141256    0.0944135783
 C   -1.6129342834    3.4090816902    0.0590680284
 C   -0.8254198819    4.4973024072    0.1123935416
 C    0.6613784446    4.5944160113    0.2860152156
 C    1.3867106495    3.3447688482    0.7913178799
 C    1.2470986977    2.1044120158   -0.1067718266
 H    0.1563011391   -2.2994265901    0.0282041613
 H   -2.1513264710    1.3364104768    0.1607146551
 H   -2.6798580188    3.6003561961   -0.0372053058
 H   -1.3274391647    5.4598384260    0.0292731575
 H    1.1055989757    4.9199833642   -0.6675887447
 H    0.8664062010    5.4212899521    0.9806503755
 H    2.4512393248    3.5873811343    0.8848360344
 H    1.0342604055    3.0978450114    1.7990780339
 H    2.0412909111    1.3929424260    0.1359236246
 H    1.4091161099    2.3886808206   -1.1559570082