21

 C   -0.0190017621    1.5645035021   -0.0092451107
 C    0.0424909317    0.0354940167   -0.0096630888
 C    0.7405940336   -0.5233226514   -1.2574592230
 C    0.6316881450   -2.0451464656   -1.3125943103
 O    1.5180811643   -2.4989581017   -2.3341427918
 C    0.9610251285   -2.6661256408    0.0243322213
 C    0.9787313609   -1.9931701251    1.1744536232
 C    0.7186514043   -0.5104596920    1.2672555415
 O    1.9360002744    0.1735895400    1.5912814920
 H    0.9864158637    1.9929017411    0.0065599018
 H   -0.5410656316    1.9336387794   -0.8978213761
 H   -0.5489532029    1.9374133420    0.8738064503
 H   -0.9867807000   -0.3531456697    0.0004970966
 H    0.3205212654   -0.0903530535   -2.1705044386
 H    1.8062886518   -0.2595446645   -1.2475678412
 H   -0.4065582874   -2.3152221067   -1.5783207115
 H    1.4128911779   -3.4517803431   -2.4225916876
 H    1.1842050884   -3.7326381190    0.0132401120
 H    1.2440317344   -2.4942061750    2.1022221741
 H    0.0642510656   -0.3020369244    2.1227669766
 H    2.6227216739   -0.1762030488    1.0132806802