17

 O   -0.9702778170    1.5100956772   -0.1047369495
 C    0.1174041468    1.0750921228    0.1678266764
 C    1.3749316224    1.8981709136    0.2410508972
 N    2.4512423769    1.2397579903    0.4274895255
 C    3.7246131768    1.9469097057    0.3870452308
 C    3.6602181459    3.4288906883    0.7910767831
 C    2.4109265543    4.1088032151    0.2776019392
 C    1.8551560524    3.9036066903   -1.0819811341
 N    1.1951211606    3.2965910073    0.1010183233
 H    0.3122167279    0.0023962010    0.3719391363
 H    4.4320715271    1.4100946647    1.0268508225
 H    4.1139165542    1.8428462063   -0.6349899567
 H    3.6503284154    3.4980291812    1.8851739811
 H    4.5587934082    3.9557473746    0.4519091899
 H    2.1898463617    5.0635432877    0.7508115111
 H    1.2843990771    4.6897359672   -1.5662747260
 H    2.3714652396    3.2292875069   -1.7600194802