20

 C   -0.2452457276    1.4972141161    0.4295697388
 C   -0.1736244831   -0.0057278850    0.3688555147
 O    0.9799054099   -0.5734556010   -0.2778409090
 C    0.8140800977   -0.7963914890    1.1121118095
 C    1.7995715332   -0.3533139834    2.1969851059
 C    1.3622895870   -1.6041654186    3.0286880337
 C    0.4183399293   -1.2904080328    4.1844286973
 C    0.6570833583   -2.1757291201    1.7552187179
 H    0.7150990448    1.9225574393    0.7316398869
 H   -0.5082290009    1.9096390492   -0.5502144680
 H   -1.0115531730    1.8174926300    1.1444193023
 H   -1.1081676834   -0.5049501006    0.1019823934
 H    2.8344416101   -0.4128138962    1.8480531122
 H    1.6389771618    0.6260575821    2.6574480298
 H    2.1965358598   -2.2134481800    3.3850357835
 H   -0.4267515484   -0.6772662099    3.8499695123
 H    0.0096899215   -2.2076780267    4.6221802738
 H    0.9338353181   -0.7395139881    4.9786767451
 H   -0.3591737416   -2.5609830921    1.8804662729
 H    1.2590791864   -2.9284030230    1.2378743469