14

 C   -0.0169368460    1.3799139257   -0.1725217981
 O   -0.0097972144    0.0109051571    0.2000281640
 C   -1.2766778712   -0.6075936067    0.0769575975
 C   -1.7220471471   -0.7481037117   -1.3195772718
 C   -2.0806598814   -0.8381852270   -2.4619059841
 C   -1.2024574612   -1.9186759272    0.7296152023
 C   -1.1735988639   -2.9932635686    1.2761189558
 C   -1.1352499597   -4.2111489934    1.8931926482
 N   -1.1054126842   -5.2463008543    2.4187204700
 H    0.9967623219    1.7476457513   -0.0066004966
 H   -0.2840715157    1.5114986483   -1.2285523631
 H   -0.7174316413    1.9589960104    0.4475213671
 H   -2.0348304410   -0.0104524388    0.6173293310
 H   -2.3985236148   -0.9288786452   -3.4719962821