17

 O    0.0071174318    0.2071566897    0.6495976409
 C    0.0279517678    1.3405411743    0.2529758688
 C   -1.1541509609    2.3126892871    0.2136467317
 O   -0.6872107230    3.4820636811   -0.4274928892
 C    0.7373360253    3.5666360588   -0.2894770794
 C    1.1429666502    4.3107516173    1.0029214684
 C    0.6219547409    5.6684757606    1.0696778276
 C    0.1995887315    6.7923692323    1.1103913542
 C    1.2270625137    2.1128439010   -0.3019209518
 H   -1.9934579708    1.8957231538   -0.3521576355
 H   -1.5016944614    2.5023862094    1.2416078569
 H    1.0890042380    4.1404596168   -1.1499547406
 H    0.8053415610    3.7364360661    1.8764079275
 H    2.2393788797    4.3296243646    1.0571137272
 H   -0.1795691280    7.7832545812    1.1510969605
 H    2.1276560496    1.9178366238    0.2839008011
 H    1.4095096046    1.7675304722   -1.3256850184