17

 O    0.1674204366    0.6092755830   -1.1720952414
 C    0.0192915066    1.3092599043   -0.2014914478
 C   -1.3231948927    1.9712150473    0.1239225561
 O   -1.2691138094    2.7627721350    1.2921725282
 C   -0.2450621853    3.7384126739    1.2078541287
 C    1.1404586640    3.0906174243    1.1833372341
 C    2.3344276823    3.9148619787    0.9617351247
 O    2.0151811742    3.4171718912    2.2658662441
 C    1.1106607470    1.6123602747    0.8123429855
 H   -1.6410608523    2.5585021955   -0.7537558838
 H   -2.0724028493    1.1911797581    0.2906572752
 H   -0.3917416401    4.3602809943    0.3091910153
 H   -0.3289511238    4.3757974120    2.0909982436
 H    3.2145333817    3.4770592465    0.4923672062
 H    2.2337581131    4.9932254186    0.8373952046
 H    0.8565437994    1.0560744556    1.7256156285
 H    2.0731234782    1.2504495770    0.4479587682