15

 C   -0.1399242521    1.3858048805    0.0472277639
 N    0.4163674049    0.0522272714    0.1532246421
 C    0.5203839667   -0.6200640929   -0.8970046818
 O    0.9885113627   -1.9040316087   -0.8367958570
 C    1.3486695643   -2.4963392401   -2.0057703851
 C    1.9731752625   -2.0010721746   -3.1101279071
 O    2.1430021304   -2.9895638170   -4.0054563579
 N    1.6392986661   -4.1751038140   -3.4870271520
 C    1.1671491210   -3.8743317353   -2.3041869592
 H    0.5769710086    2.1094557805    0.4494795472
 H   -0.4003559296    1.6835871585   -0.9806834340
 H   -1.0415369598    1.4521833017    0.6656112549
 H    0.2472772044   -0.3015227194   -1.9127076816
 H    2.3471466562   -1.0293077776   -3.3871171413
 H    0.7139528837   -4.6369463830   -1.6881448910