16

 C   -0.0170209592    1.4834545215    0.0831580028
 C   -0.0011647576   -0.0031007697   -0.0505585189
 C   -0.0437960615   -0.7840328604   -1.1949813299
 C   -0.0013079601   -2.1289698927   -0.7386649310
 C    0.0646632397   -2.1271458649    0.6447284566
 N    0.0646878126   -0.8214893124    1.0697263895
 N    0.1096121884   -3.3740677172    1.1924120611
 C    0.0715312877   -4.1604692060    0.1309540651
 N    0.0034297140   -3.4723206523   -1.0624983086
 H    0.8871937665    1.8650498709    0.5747244774
 H   -0.0748313738    1.9449954621   -0.9052013513
 H   -0.8774315808    1.8379161052    0.6652727261
 H   -0.0978403002   -0.4023843410   -2.2023883393
 H    0.1055526417   -0.5018672481    2.0212749922
 H    0.0895464919   -5.2394745283    0.1574394383
 H   -0.0338930393   -3.8870333366   -1.9768118200