17

 C   -0.0147997100    1.6269734194    0.0467080659
 C    0.0559559630    0.1007814419   -0.0382930159
 N    0.8557112598   -0.4174875289   -1.1367079261
 C    0.5205813871   -0.2581735848   -2.5332134903
 C    1.8387306051   -1.2753906763   -0.7152370027
 O    2.6258604541   -1.9018659835   -1.3847486489
 N    1.7614574958   -1.2910777258    0.6922598856
 C    0.7524924912   -0.5027179499    1.1927876247
 O    0.4737984400   -0.3104827751    2.3500984197
 H    0.9891694677    2.0612097217    0.0496447576
 H   -0.5736059813    2.0435948248   -0.7955034652
 H   -0.5200326664    1.9073731165    0.9740985261
 H   -0.9658864605   -0.3071683416   -0.0780276172
 H    0.5599835182    0.7937181501   -2.8355144936
 H    1.2522570687   -0.8218020244   -3.1138938016
 H   -0.4835314837   -0.6457883898   -2.7494552319
 H    2.4081962512   -1.8193403542    1.2561384637