25

 C   -0.1298245911    1.5117345454   -0.2132982366
 C    0.0850229596    0.0051217859   -0.0283659757
 C    0.7753131926   -0.4472973398    1.2865941448
 C    2.2134156404    0.1057551396    1.3397853388
 C    0.0140934157    0.0450712572    2.5450958667
 C   -1.4253102480   -0.4543498627    2.7169235564
 C    0.8175026302   -2.0081608190    1.2405261204
 C    1.3557887903   -2.6587021560    2.4928030492
 O    0.6794583509   -3.2613238186    3.2900917946
 H    0.8091357755    2.0722915810   -0.1795081303
 H   -0.5889571241    1.7066200884   -1.1876039551
 H   -0.7956259784    1.9283478304    0.5483651521
 H   -0.8849195233   -0.4994251096   -0.1096619312
 H    0.6847285964   -0.3725258591   -0.8672214685
 H    2.2147786515    1.1993602594    1.3567078562
 H    2.7421834725   -0.2273093294    2.2382447417
 H    2.7957282954   -0.2156685315    0.4689308725
 H    0.5910112586   -0.2459813554    3.4320578518
 H    0.0214192928    1.1412932683    2.5410957295
 H   -2.0558592062   -0.2008160027    1.8586075613
 H   -1.4580058475   -1.5378166593    2.8589089403
 H   -1.8789231033    0.0044924893    3.6009923669
 H   -0.1842745772   -2.4097845247    1.0660304521
 H    1.4566221999   -2.3081210445    0.3987817815
 H    2.4525855067   -2.5539386525    2.6558392107