20

 C    0.7575363729    1.5245048367   -0.0214689208
 C    0.0824497855    0.1501787460    0.0144209831
 N    0.4652695434   -0.7104115974   -1.0931659921
 C    1.3605941702   -1.7043946450   -0.7979081816
 O    1.8840857164   -2.4467400961   -1.6000869703
 C    1.5872236886   -1.6832773584    0.7186565850
 C    3.0286515419   -1.2637284895    1.0423033860
 C    0.4812612821   -0.7420699995    1.2395077684
 O    0.9195303331   -0.0196923789    2.3723594630
 H    1.8465711220    1.4359277479   -0.0246915274
 H    0.4551543996    2.0709645689   -0.9209337489
 H    0.4701319429    2.1199781011    0.8493636911
 H   -1.0058033251    0.2981205542    0.0068399701
 H    0.2639239238   -0.4894549952   -2.0567054967
 H    1.4360535498   -2.6982803862    1.0969775366
 H    3.2626609086   -0.2663146336    0.6598621538
 H    3.1908690681   -1.2541419083    2.1217559313
 H    3.7182727571   -1.9741249416    0.5794574795
 H   -0.3949250339   -1.3530490490    1.4967750327
 H    0.1560726529    0.3960508037    2.7844169871