14

 C   -0.1133998617    1.4333428783    0.1328649055
 N   -0.0527901205    0.0435930031   -0.3113748280
 C   -1.1575938935   -0.7653700037   -0.1168898804
 C   -1.3058754434   -2.1007616909    0.1308988023
 C   -2.7220116207   -2.3427811489    0.1144175383
 C   -3.3193958031   -1.1525405176   -0.1259203870
 O   -2.3652807534   -0.1711378192   -0.2729340839
 H    0.8205981458    1.9280423238   -0.1432829383
 H   -0.9325213334    1.9415123966   -0.3791516603
 H   -0.2662868952    1.5433751484    1.2172602684
 H    0.7969096842   -0.4268156504   -0.0351216025
 H   -0.5171188381   -2.8151187697    0.3034726545
 H   -3.2201285644   -3.2869358209    0.2718037882
 H   -4.3392123626   -0.8201326388   -0.2113531669