19

 C    1.0118261474    1.0268624237   -0.5358324322
 C    0.0296449296    0.0638527347    0.0755931588
 O    0.5390147648   -1.1555960351    0.6290669499
 C   -0.0639499643   -0.2129264384    1.5232817599
 C    0.8422569612    0.4250000500    2.5176263654
 N    0.4691287395    1.3519647223    3.3178917060
 C    1.6507413242    1.6660165700    4.1448174066
 C    2.8540622366    0.9552015847    3.4595483301
 N    2.1434589325   -0.0242873585    2.6347423800
 H    1.8908834992    1.1610014747    0.0979972850
 H    1.3417320365    0.6638466595   -1.5146511846
 H    0.5382311634    2.0033745902   -0.6798577915
 H   -0.8899106222   -0.0772576498   -0.4950642203
 H   -1.0333727790   -0.5040332812    1.9237935598
 H    1.7915467323    2.7472377329    4.2278975204
 H    1.4905884964    1.2806008102    5.1606079944
 H    3.4426768357    1.6519964605    2.8451982789
 H    3.5299739541    0.4706299769    4.1691535182
 H    2.5760504021   -0.4859969171    1.8503725352