17

 N   -0.0914545124    1.4831557589    0.1340056187
 C   -0.0491824147    0.0703832980    0.0876552922
 C    0.7511302213   -0.8185175649    1.0502092283
 C   -0.4541702445   -1.8244611709    1.0905806584
 C   -1.1871003644   -0.9144185281    0.1004411814
 O   -2.5291363844   -0.6181118222    0.1187125089
 C   -0.3487004200   -0.8014920834   -1.1783804127
 C   -0.9509866481   -0.1218250705   -2.2817413747
 N   -1.4371520175    0.4331213180   -3.1747711130
 H    0.6130201975    1.9099467133   -0.4598622834
 H   -0.9980386897    1.8283627590   -0.1648585719
 H    1.7012663009   -1.2069376606    0.6739649793
 H    0.9146569992   -0.3227677291    2.0081111342
 H   -0.2687996183   -2.8541724474    0.7703008742
 H   -0.9458891053   -1.8314507699    2.0650947778
 H   -2.9884550847   -1.1478190380   -0.5430498132
 H    0.3220672750   -1.6123700920   -1.4542490746