16

 C   -0.0240177244    1.5122325930    0.0725530840
 C    0.2890257995    0.0282121937    0.0099591603
 O    0.9564590698   -0.5462787206    0.8489624598
 N   -0.2480936124   -0.6266432685   -1.0718918771
 C   -0.2164696200   -2.0687787961   -1.1431578467
 C   -1.6233798186   -2.6248272258   -1.4124216608
 O   -2.5819580406   -1.9247190960   -1.5967598792
 C    0.6758994239   -2.6077138151   -2.1744821507
 C    1.3555260595   -3.0842031352   -3.0431583366
 H   -0.1767856579    1.9514257028   -0.9166147358
 H   -0.9354475382    1.6634679173    0.6609066573
 H    0.7947099300    2.0224188826    0.5807769716
 H   -0.9690788743   -0.1772668389   -1.6168042976
 H    0.1194692306   -2.4298028589   -0.1596658652
 H   -1.6750747336   -3.7310451623   -1.4516641910
 H    1.9821293664   -3.4908308919   -3.7986078623