12

 O   -0.0175605290   -0.0503635771   -0.0037267033
 C    0.0192506159    1.1533714205    0.0061395370
 C    1.2524904178    1.9665277816   -0.0001256618
 N    2.4751943482    1.4114689417   -0.0178564363
 N    3.3120693494    2.4363007216   -0.0181253561
 C    2.6839117236    3.6537557980   -0.0011726212
 C    1.3291862297    3.3766325406    0.0111924415
 C    3.3988937681    4.8739703739    0.0014678540
 N    3.9982747851    5.8644905355    0.0034226125
 H   -0.9084525391    1.7672503737    0.0209035461
 H    4.3072017195    2.2681727888   -0.0302569496
 H    0.5236211208    4.0921627612    0.0259803171