17

 C    0.0350073293    1.3906611482    0.1028531948
 N    0.0389774479   -0.0500972722    0.2437256928
 C   -1.0325338393   -0.6591464203    0.0027594416
 O   -1.0930892816   -2.0061150762    0.0979146383
 C   -2.3761676072   -2.5886541269   -0.1107506053
 C   -2.1894321048   -4.1030261824   -0.1574599713
 C   -3.5123023396   -4.8370354602   -0.1196933152
 O   -3.8700697648   -5.6494491613   -0.9310610994
 H    0.7839811495    1.6887994647   -0.6394965592
 H   -0.9384011736    1.8101251319   -0.2006053048
 H    0.3279789754    1.8525827534    1.0523855284
 H   -1.9771807016   -0.1805469944   -0.3018062746
 H   -3.0540956062   -2.3091500396    0.7089601917
 H   -2.8135215936   -2.2246555438   -1.0500062151
 H   -1.6287301282   -4.4070689799   -1.0438850180
 H   -1.6175441595   -4.3956747442    0.7338700458
 H   -4.1596864823   -4.5729054868    0.7498223095