18

 O   -0.0374079542   -0.0818425860    0.1591551005
 C   -0.0346644008    1.1201100269    0.0392013820
 C   -1.3207861639    1.9503099067    0.0259947266
 N   -1.3450044574    3.0248619841   -0.9722218623
 C   -0.1463194002    3.8505939475   -0.9355813164
 C    1.1665526100    3.0453023373   -1.1434023909
 C    1.2536752608    1.9305607362   -0.0665948119
 C    1.2090759286    2.4830761340   -2.4914003536
 C    1.1992595243    2.0131904859   -3.5984768215
 H   -2.1693377273    1.2784859330   -0.1220736153
 H   -1.4314937060    2.4044562275    1.0230686702
 H   -1.4333996580    2.6171311931   -1.8987740270
 H   -0.2286787959    4.6282541135   -1.6999110544
 H   -0.0973892763    4.3494480089    0.0413752756
 H    2.0218997977    3.7222605570   -1.0179228777
 H    1.4111160418    2.4138608737    0.9080683688
 H    2.0887015418    1.2504009267   -0.2446518721
 H    1.2153754151    1.5988266640   -4.5764004206