16

 O   -0.2118675950    1.4633029214   -0.0420300331
 C   -0.1123298180    0.0773580816    0.0756465181
 C    0.1329875748   -0.6300707798    1.4093545320
 C   -1.1829201884   -0.8846727876    2.0720780244
 N   -0.6874171030   -1.8192773570    0.9895247128
 C   -1.3738262417   -0.8159225381    0.0027070969
 C   -2.2375645949   -0.3414439246    1.1610306334
 C   -3.6842785008   -0.2767507029    1.3032266881
 O   -2.8835927399    0.9240897623    1.2564366253
 H   -0.9740990603    1.7602148745    0.4699805949
 H    0.6341589503   -0.2545267036   -0.6506092603
 H    1.0682674566   -0.7570148301    1.9425650474
 H   -1.2697754280   -1.2008924581    3.1043055244
 H   -1.7965885818   -1.1640573411   -0.9367177618
 H   -4.3232918167   -0.4435503129    0.4376270350
 H   -4.1441598430   -0.4807347240    2.2687730627