15

 O    0.0254418111   -0.0101797695    0.1758231820
 C   -0.0244573982    1.1878980072    0.0435862603
 C   -1.2937152389    2.0586799920   -0.0055803822
 C   -0.7879369893    3.4974894969    0.0076917983
 C    0.0601382958    3.9507515689    1.1954710295
 C    0.7383590342    3.4268238424   -0.0378818378
 N    1.0562191266    2.0351780498   -0.0787727085
 C   -1.4945546664    4.4923848199   -0.7451169335
 N   -2.0739123605    5.2914898741   -1.3487311453
 H   -1.8488958554    1.8373478596   -0.9210865411
 H   -1.9393152452    1.8119643297    0.8404446693
 H    0.0930124489    5.0185116992    1.3785563546
 H    0.0529973580    3.3243465117    2.0813832004
 H    1.3092191472    4.0849764032   -0.6817257128
 H    1.9876265521    1.6833354450    0.0812099767