17

 C   -0.0141109033    1.5599615226   -0.0087047888
 C    0.1159895075    0.0526885866   -0.0728252715
 C    0.7287470853   -0.7293606623   -1.1936597914
 C    1.9518537015   -0.0093812922   -1.7959883970
 C    2.5652832349   -0.0355769687   -0.3998673565
 N    3.7027852604    0.2263175929    0.0941327381
 O    4.5482590201    0.8009810785   -0.8798911558
 C    1.3948077932   -0.7200912306    0.2111219586
 H    0.8732329539    2.0700729581   -0.3908839919
 H   -0.8771420220    1.9010101170   -0.5910662959
 H   -0.1585696853    1.8875235843    1.0261329700
 H   -0.7402913635   -0.4678496992    0.3536916925
 H    0.2158552495   -1.5564484852   -1.6679530048
 H    2.5302859789   -0.6362446152   -2.4806492557
 H    1.7880654646    0.9633186304   -2.2678871359
 H    5.3652426501    0.9254130318   -0.3858576165
 H    1.4418161542   -1.4908830987    0.9699546024