17

 C   -0.0862834748    1.5646010871   -0.0082998599
 C    0.0353316026    0.0347028118    0.0423982919
 C    0.8445559251   -0.4977853887   -1.1591063794
 O    0.6715272791   -0.2681820203   -2.3349330270
 N    1.8361477023   -1.2883454844   -0.6154782176
 C    1.7804210889   -1.2825554974    0.7905229719
 C    0.7640751310   -0.5391791792    1.2429789513
 C    0.3645457877   -0.3092132010    2.6626197846
 H    0.8923027834    2.0384755117    0.1166383081
 H   -0.4916744962    1.8671306176   -0.9773320118
 H   -0.7480356790    1.9340593923    0.7801013543
 H   -0.9734127312   -0.3965683548   -0.0348866043
 H    2.5468697545   -1.7306125870   -1.1738174172
 H    2.5079126064   -1.8523214935    1.3522824358
 H    1.0355598188   -0.8306227277    3.3518469555
 H    0.3811770235    0.7565405235    2.9235794104
 H   -0.6563698619   -0.6627915698    2.8586759934