17

 O   -0.0066790009    1.4297576503    0.0609782192
 C   -0.0087959957    0.0312269167   -0.0331935117
 C   -1.4037993807   -0.5656935080    0.0434270150
 C   -2.4517808709   -0.2220052963   -0.9908724477
 C   -1.8201213465   -1.5830262871   -0.9946631967
 O   -0.9546188766   -1.8739163322   -2.0617393134
 C    0.4279881765   -1.8467086961   -1.7277350962
 C    0.7492613251   -0.4313952863   -1.2753465780
 O    1.5087380998    0.3176011949   -1.8465962777
 H    0.6928484053    1.7253188779   -0.5427544239
 H    0.5720309644   -0.4123739597    0.8016686750
 H   -1.7655469832   -0.7337393504    1.0524381581
 H   -3.4785034715   -0.1146328480   -0.6610541682
 H   -2.1561742973    0.4434191500   -1.7942436773
 H   -2.3977225066   -2.4467669643   -0.6726945605
 H    0.6712695333   -2.5759461927   -0.9394431547
 H    0.9853415653   -2.0881684988   -2.6340529011