21

 C    0.2350827576    1.6289379820    0.1997567221
 C    0.1545697683    0.1007801191    0.1173063945
 C    0.6537245933   -0.4715761633   -1.2092298366
 C    0.6068284557   -2.0063667430   -1.3173883716
 C    0.5985301684   -2.2597501836   -2.8377559275
 O    0.3147971405   -1.0044499137   -3.4716222119
 C   -0.1237940330   -0.0707206714   -2.4897300868
 C   -1.5838569940   -0.1043480821   -2.3224325204
 C   -2.7790531733   -0.1399052460   -2.1927671908
 H    1.2568514643    1.9853690257    0.0266344027
 H   -0.4159636477    2.1022541521   -0.5423427983
 H   -0.0779792588    1.9855627410    1.1857290237
 H    0.7485738748   -0.3404280622    0.9274120745
 H   -0.8801510166   -0.2224335455    0.2794296593
 H    1.6858358864   -0.1374894784   -1.3775076400
 H    1.4509209379   -2.4866192075   -0.8166667177
 H   -0.3124433853   -2.3815844214   -0.8563364124
 H    1.5700212888   -2.6011100629   -3.2122265750
 H   -0.1561457860   -3.0019757423   -3.1253062336
 H    0.1679602339    0.9212950729   -2.8497929112
 H   -3.8359804352   -0.1667566096   -2.0908977130