22

 C   -0.0887736270    1.5915628659    0.0578464333
 C    0.0046082624    0.0600265271   -0.0136638058
 C    0.7135388921   -0.4076740765   -1.2980466492
 C   -0.0941544900   -0.2002302405   -2.5755006073
 O    0.6807292314   -0.7121355199   -3.6483394948
 C    0.7248771358   -0.5109047464    1.2448850240
 C    0.1190044714   -0.0527627802    2.5880279682
 C    0.7370846471   -1.9786993614    1.2068474516
 N    0.7263626579   -3.1347246183    1.1942976136
 H    0.9073389637    2.0400131894    0.1548847137
 H   -0.5435873638    1.9963306697   -0.8496758433
 H   -0.6963045925    1.9305113773    0.9003470560
 H   -1.0145751844   -0.3511320326   -0.0100490238
 H    1.6738551610    0.1140154291   -1.4028746907
 H    0.9424415036   -1.4764243230   -1.2329246003
 H   -1.0580030470   -0.7287814321   -2.4896835907
 H   -0.3196106032    0.8663606849   -2.7300426576
 H    0.1780429233   -0.6064325779   -4.4611228457
 H    1.7733600326   -0.1838556438    1.2080426826
 H    0.6110671463   -0.5588298538    3.4220309409
 H    0.2456749837    1.0230337663    2.7217988368
 H   -0.9488189543   -0.2871630736    2.6323947484