20

 C    0.0322311238    1.5754985713    0.2234806431
 C   -0.0068491346    0.0629850497   -0.0201753280
 C    0.7512574050   -0.4273707800   -1.2714251839
 C    2.2165961222    0.0406560693   -1.3200502329
 C    0.7065962399   -1.9719479042   -1.2778777266
 O    1.3067080566   -2.4462677464   -2.4750487865
 C    0.0430278160    0.0303063130   -2.5501261503
 O   -1.1026011108    0.4014972182   -2.6023295631
 H    1.0491483352    1.9376943897    0.4019778877
 H   -0.3839230745    2.1228357802   -0.6265062244
 H   -0.5642528167    1.8302152564    1.1047767691
 H    0.4041943154   -0.4565560561    0.8551112495
 H   -1.0513230345   -0.2507582255   -0.1156937903
 H    2.7331965053   -0.2324925626   -0.3937700752
 H    2.7415116026   -0.4345341823   -2.1521705355
 H    2.2939979396    1.1250220006   -1.4392629935
 H    1.2414030571   -2.3426968836   -0.3886522582
 H   -0.3408628995   -2.2999073492   -1.2025106621
 H    1.2365194401   -3.4047913918   -2.4914643823
 H    0.6692632619   -0.0146809767   -3.4666387066