21

 C    0.0868678124    1.5229960613    0.1953290167
 C   -0.0244192279   -0.0125073360    0.2068341928
 C   -1.3815001148   -0.4902793440   -0.0389005635
 C   -2.5112609130   -0.8575755156   -0.2367682034
 C   -3.8666015784   -1.3435386267   -0.4822324424
 C   -3.9496641915   -2.8619635119   -0.4490815435
 O   -4.0936773820   -3.4881434827    0.8258050106
 C   -5.1675666643   -3.6185647653   -0.1150398513
 C   -6.4983244476   -3.0120632147    0.2518723380
 H    1.1191801376    1.8326792502    0.3840281549
 H   -0.2233357499    1.9280793889   -0.7718227905
 H   -0.5517858710    1.9643239054    0.9653141438
 H    0.6528723225   -0.4332824577   -0.5476828159
 H    0.3270855236   -0.3974200876    1.1727901960
 H   -4.5543419582   -0.9226854359    0.2581976060
 H   -4.2120049122   -0.9979929000   -1.4669431641
 H   -3.2202528522   -3.3484427881   -1.0992754897
 H   -5.2420301916   -4.6197186233   -0.5464523262
 H   -6.3923435330   -2.0123347972    0.6772332935
 H   -7.1449896949   -2.9509282312   -0.6303487752
 H   -7.0044207138   -3.6396761078    0.9928621432