15

 N   -0.0295600288    1.3652833132    0.0100055575
 C    1.2709530031    1.8328091134   -0.0000672765
 C    2.1451868132    0.7816816931   -0.0143159856
 C    1.3537665333   -0.4133468193   -0.0131888095
 C   -0.0125779228   -0.0086185330    0.0023602117
 C   -1.0255573761   -0.9602730669    0.0070331472
 C   -0.6140765801   -2.2858114919   -0.0042410065
 C    0.7576516201   -2.5971116385   -0.0193257166
 N    1.7381141016   -1.6997829924   -0.0239783230
 H   -0.8516411997    1.9427019286    0.0211913532
 H    1.4621298159    2.8949139278    0.0038899441
 H    3.2216998768    0.8385063563   -0.0244713518
 H   -2.0763149757   -0.6884636669    0.0187609230
 H   -1.3428135309   -3.0884115665   -0.0015328076
 H    1.0642364902   -3.6407661170   -0.0280317196