17

 C   -0.1596026955    1.6543475161    0.1400120173
 C   -0.0021358128    0.1481882174   -0.1196095148
 C   -1.3163941728   -0.5814396580   -0.1132060779
 C   -1.8226844759   -1.2022535629   -1.1913672797
 O   -3.0167897660   -1.8546238255   -1.1800196599
 C   -3.7605887559   -1.8904845318   -0.0146877007
 N   -4.8817335951   -2.4789784993    0.0595999817
 C   -3.1534295525   -1.1984468843    1.1244342737
 N   -2.0242595151   -0.5877941625    1.0938726190
 H    0.8174875142    2.1433340632    0.1939050319
 H   -0.7373084807    2.1320351032   -0.6578273282
 H   -0.6820918759    1.8245451508    1.0851806237
 H    0.5026071519   -0.0209954169   -1.0771286909
 H    0.6385290256   -0.2853201689    0.6584197426
 H   -1.3484399486   -1.2536364285   -2.1632627094
 H   -5.1359386614   -2.9013832044   -0.8343329928
 H   -3.7264704134   -1.2248227176    2.0482484944