15

 N    0.2106251458    1.4778692904   -0.0200696678
 C    0.1205297437    0.0512030227   -0.0258771651
 C   -0.0846281535   -0.6202426908    1.3554023054
 O   -1.4869807562   -0.1471525172    1.3597111972
 C   -1.2809406421   -0.6744378916   -0.0080796049
 C   -0.6085814086   -1.9135270549    0.6330673617
 O    0.2236089601   -2.6652632709   -0.1984437259
 C   -1.4772516127   -2.7584714824    1.4570658035
 N   -2.0907150953   -3.5130827540    2.0815199023
 H    0.1832775352    1.8531494961   -0.9612830302
 H   -0.5642949442    1.8699466666    0.5063709706
 H    0.8762598445   -0.3965227100   -0.6711115984
 H    0.4823734142   -0.5266755307    2.2815583552
 H   -2.1257723124   -0.6453831317   -0.6960186277
 H    0.6243333915   -3.3752828717    0.3156151542