13

 C   -0.0607219131    1.5327114559    0.0109273838
 C    1.4240838242    1.8772186251   -0.0015789423
 C    2.1969338226    0.7691389352   -0.0148674136
 C    1.2854248622   -0.3600700422   -0.0120009607
 C   -0.0216106457    0.0339606362    0.0026852786
 C   -0.7197786162   -1.1914815393    0.0030039992
 N    0.1017993891   -2.2251480565   -0.0103581188
 O    1.4092316610   -1.6839723604   -0.0201633547
 H   -0.5547698826    1.9535218530    0.8961493978
 H   -0.5717098772    1.9627451464   -0.8601329833
 H    1.7843355476    2.8978455603    0.0003061565
 H    3.2762921230    0.7218843959   -0.0255399120
 H   -1.7818389749   -1.3942308296    0.0121982894