17

 O   -0.6633766912    1.4046307864   -0.1270528942
 C   -0.2654010442    0.0634960777   -0.1736442549
 C   -0.1635407044   -0.7186283495    1.1327016771
 C   -1.3233549968   -0.9081966328    0.2077780071
 N   -2.7113439225   -0.5262935346    0.4683464952
 C   -3.1890670590   -1.4096552783   -0.5037201527
 N   -4.2382734984   -1.5710073017   -1.1891857645
 C   -1.8334384602   -2.1160657611   -0.6111158483
 O   -1.3345453483   -2.3048266493   -1.9043684052
 H    0.0825722648    1.9310345870    0.1787001731
 H    0.4015008589   -0.2054133643   -0.9917726837
 H    0.5788689414   -1.5069317337    1.2104079407
 H   -0.3464243483   -0.1622732371    2.0470873566
 H   -2.9940333687    0.4440682788    0.5384072199
 H   -4.9476036274   -0.8644695481   -0.9868228356
 H   -1.7767061498   -3.0533158952   -0.0451435226
 H   -2.0375910161   -2.0533979341   -2.5154845880