19

 C    0.0315162595    1.6061657396   -0.0193130149
 C    1.5367830929    2.0339937085   -0.0522645005
 C    2.0756201530    0.8727581412    0.7603134788
 N    3.1537724828    0.7616441608    1.7344271972
 C    1.7504947355    0.8744359771    2.2093129355
 C    0.7754461901   -0.2754014017    2.4497882706
 N    0.4316402170   -0.8463394385    1.1309476538
 C    0.0524487731    0.0558097291   -0.0114797574
 C    1.4491285490   -0.3919065226    0.1847716365
 H   -0.4694283298    2.0234454900    0.8606679533
 H   -0.5220705447    1.9512461776   -0.8970511237
 H    1.9110823294    2.0507668770   -1.0820846203
 H    1.7251804001    3.0114931959    0.3984374594
 H    3.4878382947   -0.2008788632    1.7618920820
 H    1.5645130240    1.8126944274    2.7237036752
 H    1.1887148538   -1.0920496256    3.0551142037
 H   -0.1186496465    0.0903560411    2.9664794224
 H   -0.6251322114   -0.4516106679   -0.6897482984
 H    2.0080146774   -1.1066271856   -0.4132152731