21

 C   -0.0074938269    1.4588567125    0.0733676964
 C   -0.0308437282   -0.0302294621    0.0275672176
 C   -0.0174246955   -0.8876043320   -1.0027293190
 C    0.0037832039   -2.2733350630   -0.3465739746
 C    0.0468984496   -3.5206579726   -1.1960714217
 C   -1.0469677506   -2.0532954063    0.8018590561
 C   -0.0189041881   -0.9640612878    1.2419729166
 C    1.0914407376   -1.9805631483    0.7529974625
 O    1.3304343988   -3.1047491518    1.5647924173
 H    0.8750635648    1.8305847302    0.6102976392
 H    0.0049794767    1.8879215236   -0.9329023467
 H   -0.8821717992    1.8589369449    0.6024070352
 H    0.0164473961   -0.6866238096   -2.0656687426
 H    0.8807316252   -3.4882093441   -1.9068857371
 H    0.1741656177   -4.4086633962   -0.5703024884
 H   -0.8775508756   -3.6379448588   -1.7724842809
 H   -2.0413166547   -1.7098811793    0.5058611052
 H   -1.1016923876   -2.8961430364    1.4940744179
 H   -0.0097309263   -0.5280203075    2.2422826088
 H    2.0267706696   -1.5289176102    0.3954394683
 H    1.9524368026   -2.8544863352    2.2547508898