21

 C    0.0599927875    1.4961970352    0.0750724994
 C   -0.0063940680   -0.0070480839    0.0757237062
 C    1.1757368580   -0.8867318352   -0.2496922937
 C    0.5380045965   -1.0208808411    1.1135427655
 C    1.2887871382   -0.7618894707    2.3879823910
 O    2.1739738347   -1.8193025921    2.7486169702
 C   -0.7444505095   -1.8204103376    0.9973790521
 C   -1.9434751224   -0.9653148451    1.3179260467
 C   -1.2825874133   -0.8156769922   -0.0281809030
 H    1.0364250427    1.8567924341    0.4144050110
 H   -0.1007193129    1.8941381806   -0.9342838918
 H   -0.7054995158    1.9312701537    0.7270385625
 H    1.0830946903   -1.6894962449   -0.9766629852
 H    2.1417796435   -0.3889121673   -0.2614103270
 H    1.9253995538    0.1228759574    2.2787301918
 H    0.5788886389   -0.5530044460    3.2046551605
 H    1.6448133496   -2.6174677273    2.8452712987
 H   -0.8132838431   -2.9018442382    0.9407866449
 H   -2.9003081007   -1.4795665815    1.3147247653
 H   -1.8683899176   -0.1718953381    2.0572862405
 H   -1.8107358303   -1.0395097798   -0.9489585654