18

 C   -0.0106416786    1.3620226696    0.0250362298
 O   -0.0197991926   -0.0455505791   -0.0102875183
 C    0.6454075355   -0.5706098039   -1.1370892157
 C    0.5722920185   -2.1050201611   -1.0753929807
 C   -0.8826813024   -2.5958114587   -1.1267138997
 O   -0.8783901486   -3.9878723830   -0.8660383249
 C    1.3828227599   -2.6825953643   -2.1439044447
 C    2.0515067194   -3.1124453851   -3.0452200412
 H    1.0148865283    1.7617950804    0.0604435190
 H   -0.5172412504    1.7959018927   -0.8514961049
 H   -0.5415009235    1.6698332432    0.9289689006
 H    0.1819029627   -0.2081955706   -2.0703196088
 H    1.6997445780   -0.2541138969   -1.1520350286
 H    0.9799409818   -2.4172074525   -0.1052676576
 H   -1.4561726979   -2.0405822926   -0.3733667602
 H   -1.3035639955   -2.3695011611   -2.1190390880
 H   -1.7869232479   -4.3007710920   -0.8952273938
 H    2.6427494232   -3.5157707551   -3.8294407721