15

 C    0.2103245024    1.6907841994    0.2101010435
 N    1.4948441788    1.8535706202   -0.4815464607
 C    1.9367077171    0.6788031074   -0.6405251021
 O    1.2042829081   -0.3800881955   -0.1928727921
 C   -0.0424628733    0.1696054584    0.2602494493
 C   -0.5068286086   -0.5183634822    1.5608120767
 N   -1.6073876386   -1.4055969387    1.1652699864
 C   -1.8156531394   -1.1507654379   -0.0563202823
 O   -1.0524336344   -0.2131452950   -0.6859654811
 H    0.2729335495    2.1255697847    1.2137237317
 H   -0.5949015158    2.1959001695   -0.3289934224
 H    2.8795206496    0.4081796637   -1.1012281962
 H    0.3136254584   -1.0834441592    2.0099147486
 H   -0.8642109758    0.2076894821    2.2992846784
 H   -2.5744974180   -1.6046234969   -0.6828575878