18

 C   -0.0255138560    1.5329542623    0.0167863305
 C   -0.0023554752   -0.0023691672    0.0016861696
 C    0.7587739619   -0.5186739693    1.2418653535
 C   -1.4483712703   -0.5418439107    0.0086894301
 C    0.7254982224   -0.4642986663   -1.2820139124
 N    0.7998099085   -1.8171052649   -1.4684828032
 O    1.1985925166    0.3111797511   -2.0907908299
 H    0.9874944826    1.9410666442   -0.0002056372
 H   -0.5484264815    1.9260411667   -0.8580873621
 H   -0.5333047594    1.8906076359    0.9186216123
 H    0.2814801929   -0.1473870846    2.1549323017
 H    0.7705422209   -1.6121030083    1.3010102249
 H    1.7970572416   -0.1723658288    1.2404279536
 H   -1.9974946759   -0.2094958770   -0.8777541746
 H   -1.4865302320   -1.6355644454    0.0339987010
 H   -1.9805818245   -0.1737480231    0.8923026628
 H    0.4953511331   -2.4806358267   -0.7797471097
 H    1.3212011142   -2.1510165179   -2.2621262508