22

 C    0.1396753582    1.5369677801   -0.0634900360
 C   -0.0307999619    0.0140782640   -0.0658774641
 C   -1.4930791765   -0.5161298173    0.0306547168
 C   -2.1628216952   -0.0592053949    1.3474899329
 C   -2.3376981930   -0.0356761581   -1.1723303966
 C   -1.4364603231   -1.9845365534    0.0130167392
 C   -1.3819948848   -3.1880481105   -0.0019935206
 C   -1.3198472815   -4.6433685872   -0.0198756585
 H    1.2014659503    1.7934289158   -0.1347900966
 H   -0.3662381421    2.0100639474   -0.9105565779
 H   -0.2437678676    1.9935882662    0.8539843947
 H    0.4144958457   -0.3987873207   -0.9785122725
 H    0.5357534491   -0.4150989366    0.7686725705
 H   -2.2708499571    1.0292837536    1.3752344820
 H   -3.1592013039   -0.4999522549    1.4420171231
 H   -1.5726641433   -0.3708484058    2.2144315626
 H   -1.8733416012   -0.3303862895   -2.1181180822
 H   -3.3381491592   -0.4758800678   -1.1365060831
 H   -2.4471233642    1.0530000168   -1.1646512919
 H   -1.8834852934   -5.0571247605   -0.8636900895
 H   -0.2868241916   -4.9982476518   -0.1082450446
 H   -1.7381064637   -5.0725478951    0.8976039023