19

 C    0.3778136325    1.4296153769   -0.2008811719
 C   -0.1538987460    0.0130506581    0.0240817990
 O   -1.5750958082    0.0000723824    0.0711609614
 C    0.4174481516   -0.9728452057   -1.0170846335
 O    1.7042825987   -1.3112345756   -0.5282681201
 C    1.5779982250   -1.4953795260    0.8914096952
 C    0.3749628004   -0.6118135461    1.3359743330
 C    1.3999252971   -2.9090814246    1.2318227771
 C    1.2521982413   -4.0680837206    1.5141921688
 H    1.4705719004    1.4263503130   -0.2531000642
 H    0.0027394191    1.8396310460   -1.1471677363
 H    0.0642964409    2.0934361259    0.6100432466
 H   -1.9034258376    0.5156936248   -0.6728553535
 H   -0.2421099462   -1.8513308554   -1.0800876070
 H    0.5445999004   -0.5446531744   -2.0156748291
 H    2.5191107257   -1.1437051713    1.3267987892
 H    0.6787342042    0.1434875166    2.0633348804
 H   -0.4163931176   -1.2173504129    1.7787413998
 H    1.1273029482   -5.0933610011    1.7614005549