20

 C    2.3743529042   -3.3062793102   -2.4345017532
 N    1.4867668843   -2.7043142250   -1.4609631817
 C    1.6718502146   -2.9961294083   -0.2533074953
 O    0.8581709707   -2.4742040978    0.7035828975
 C    1.1907889629   -2.8062352923    2.0418736732
 C    2.3981790438   -2.0886537658    2.5914241203
 C   -0.0362534740   -3.0324236424    2.8958961741
 C    0.7996947636   -4.2094599321    2.4517144716
 O    0.3368378040   -5.1228320067    1.5066471214
 H    3.1410101468   -3.9659792764   -1.9964563169
 H    1.7889878121   -3.8909201026   -3.1533023644
 H    2.8813032261   -2.5191835014   -3.0041509945
 H    2.4494841877   -3.6710890202    0.1291005113
 H    2.2415781135   -1.0049446067    2.5707441406
 H    2.5789731056   -2.3882110753    3.6277234272
 H    3.3014067142   -2.3146445339    2.0149745164
 H   -0.0087159093   -2.7204836190    3.9344350358
 H   -0.9927465532   -2.8914528388    2.4029518924
 H    1.4127086693   -4.7171152918    3.1894001381
 H   -0.1839551565   -4.6416080132    0.8535026262