16

 C   -0.1922685098   -1.2463500855   -0.1777059052
 C   -0.1335363434   -0.0495638540   -0.0751004322
 C   -0.0504103305    1.3882828231    0.0616853507
 C    0.0396821496    1.9812217025    1.4966297556
 O    1.2805167859    2.6464974333    1.1923624452
 C    1.3365719182    2.0868201687   -0.1281925557
 C    2.5460311796    1.1690512727   -0.3287699902
 C    3.8032269605    1.9119984307   -0.3080011867
 N    4.7941699525    2.5057425581   -0.3036396349
 H   -0.2540318325   -2.3027887928   -0.2710790900
 H   -0.8251471893    1.8701500804   -0.5397629910
 H   -0.7532157356    2.6880571858    1.7618081601
 H    0.1513274741    1.2373003158    2.2924128806
 H    1.3361923543    2.8719056291   -0.8930269746
 H    2.5621271194    0.4014627363    0.4509205133
 H    2.4516006069    0.6506549358   -1.2899555549