15

 O    0.0111190486    0.0663548702   -0.2106298984
 C    0.0416699893    1.2494572425   -0.0231633466
 C   -1.1695997624    2.2559607635    0.0735036515
 N   -0.5564843487    3.6067190876    0.2988519810
 C    0.6636062284    3.5462407972   -0.5917965637
 C    1.7210354959    3.9869634986    0.4532361479
 N    2.5445215914    2.7004254456    0.3859409567
 C    1.1284197331    2.2592203833    0.1744495561
 C    0.5894328151    3.2775405978    1.2258606848
 H   -1.7569542667    2.2416879982   -0.8492932483
 H   -1.8270892126    1.9826204602    0.9040819974
 H    0.6308095323    3.7056620080   -1.6714854337
 H    2.1864452246    4.9573876723    0.6255430048
 H    3.0675446124    2.6534840641   -0.4921935297
 H    0.4813762194    3.1136427611    2.2977620804