15

 O    0.0869641340    1.1986670735   -0.5280872450
 C    0.0803384573   -0.1264641915   -0.0459534530
 C   -1.3604198823   -0.5813172999    0.2152679876
 N   -2.2021391520   -0.5109211208   -1.0183363533
 C   -2.6277598899   -1.9327670204   -0.9265801912
 C   -2.4013987374   -2.7368280136   -2.1200911702
 N   -2.2037736617   -3.3873273287   -3.0546368916
 C   -1.6171984552   -2.0903960971    0.2655416719
 O   -1.2236709542   -3.0094625076    0.9051096997
 H   -0.3764236686    1.1793931033   -1.3745068559
 H    0.5612734997   -0.8190553162   -0.7520295469
 H    0.6514414280   -0.1409200825    0.8866915684
 H   -1.7737966758   -0.0463163150    1.0795764868
 H   -2.9778369038    0.1373245353   -0.9584215912
 H   -3.6558775182   -2.0891964386   -0.5730096161