20

 C    0.0691171725    1.4984038355    0.1235534482
 C   -0.0270721662   -0.0270147111    0.0441052441
 C   -1.4678819549   -0.5167604159    0.0050516261
 O   -1.4664218626   -1.9289508757   -0.0728934363
 C   -2.7572632307   -2.4869411268   -0.1183961425
 C   -2.6151803031   -4.0044327872   -0.2426157143
 C   -3.9356657587   -4.7165335610   -0.0633174820
 O   -4.4152099806   -5.4915795523   -0.8493062316
 H    1.1126620518    1.8243613753    0.1513442168
 H   -0.4040061842    1.9745573726   -0.7423268693
 H   -0.4227708792    1.8841904408    1.0233523989
 H    0.4889314650   -0.3953292997   -0.8498580748
 H    0.4731050741   -0.4856441213    0.9047427541
 H   -2.0117416692   -0.1849465937    0.9068823300
 H   -1.9966666982   -0.0875817038   -0.8637235394
 H   -3.3238242445   -2.2297795206    0.7943999911
 H   -3.3265531683   -2.0855020199   -0.9734806778
 H   -2.1777517879   -4.2845891266   -1.2034215743
 H   -1.9410919516   -4.3397105063    0.5580854913
 H   -4.4620063136   -4.4726441523    0.8902673315