20

 C    0.0567667196    1.7315557135    0.0052288430
 C   -0.0445506621    0.2082210265    0.0424554625
 C   -1.4859008416   -0.2995578410    0.2644899470
 C   -2.4483121842   -0.0675739726   -0.8973826942
 O   -2.0643175698   -0.9216899809   -1.9734625885
 N    0.7114994062   -0.4723971106   -1.0596137956
 C    1.4927604621   -1.3182987698   -0.1231035534
 C    0.9237221392   -0.4818733122    1.0310637569
 O    1.1378332431   -0.3790242081    2.2022248053
 H    1.0949907395    2.0363393963   -0.1469755162
 H   -0.5324371296    2.1503628020   -0.8168174879
 H   -0.3007467601    2.1643952284    0.9452349467
 H   -1.4718180737   -1.3773969009    0.4694187132
 H   -1.8920970774    0.1854804987    1.1594344205
 H   -3.4718651850   -0.3013445741   -0.5672360536
 H   -2.4371399975    0.9868161349   -1.2082090626
 H   -2.5829786244   -0.6905462906   -2.7493242084
 H    0.0991587812   -0.9843090170   -1.6839094202
 H    1.1954490081   -2.3748441755   -0.0577480075
 H    2.5795819067   -1.2749985369   -0.2582725671