19

 C   -0.0103356669    1.6628316897    0.0487117841
 C    0.0541164533    0.1547607416   -0.0835364839
 C    0.6134745182   -0.6150149959   -1.2356568535
 C    1.3026737893   -0.7083470073    0.1198650803
 C    2.6401482436   -0.0549149308   -0.0107463173
 O    3.5313326207   -0.0933434480    0.8011784612
 C    2.7348731858    0.6136307286   -1.3934081646
 C    1.5470796359    0.0808644619   -2.2254594871
 O    1.9476063824   -0.9289857614   -3.1453505877
 H    0.8316084481    2.1796779506   -0.4149609435
 H   -0.9248510315    2.0417253545   -0.4206614351
 H   -0.0340356220    1.9537938939    1.1038068935
 H   -0.8165399354   -0.3277828443    0.3552413118
 H    0.0538419054   -1.4499412523   -1.6408073642
 H    1.2327728190   -1.5641330744    0.7795857527
 H    2.7369747295    1.7026363173   -1.2795206209
 H    3.6892093695    0.3395303436   -1.8521190312
 H    1.0287041591    0.8913357269   -2.7587884955
 H    2.5203287861   -0.5217256642   -3.8029069594