19

 C    0.1439414918    1.6168468612    0.0522270515
 C    0.0899816747    0.0905192648   -0.0059328042
 C    0.7854143916   -0.5842036159   -1.1855101799
 C    2.2942304411   -0.6212153310   -1.1636474504
 C    1.5197872083   -1.8304427292   -0.7088760254
 C    1.2906048066   -1.9687696137    0.7808755074
 O    2.4200172201   -2.3196641088    1.5386992690
 C    0.7612597882   -0.5842431422    1.1886866895
 O    0.9630371984   -0.1104291674    2.2801333884
 H    1.1756865977    1.9723180912   -0.0250494562
 H   -0.4301040583    2.0591137703   -0.7668629068
 H   -0.2646665276    1.9764425439    1.0002664510
 H   -0.9632506107   -0.2317725557    0.0080127568
 H    0.2825636963   -0.5812536346   -2.1457062191
 H    2.8065830236   -0.6891596615   -2.1162559484
 H    2.8307847423   -0.0428507431   -0.4168637591
 H    1.5406054249   -2.7275917432   -1.3152996143
 H    0.4706732356   -2.6932710598    0.9466040998
 H    2.3607269156   -1.7946991451    2.3511185102