16

 O   -0.3964931617    0.5468453834   -0.7309046022
 C    0.1359194792    1.0843527862    0.2144526538
 C    1.2996919217    1.9710811947    0.1066407651
 N    1.7763814177    2.8622830693    1.1751224637
 C    2.5634516461    3.6226645801    0.0827061483
 C    3.9457655496    3.0186150204    0.1635427361
 C    3.8752507084    1.7625033213   -0.2930470749
 C    2.5143753168    1.5083925903   -0.8259261020
 C    1.8195384335    2.8105941627   -1.0293046476
 H   -0.2260154265    0.9291937697    1.2557262520
 H    0.9877604232    3.4604923054    1.4196617306
 H    2.4646448371    4.7046032580    0.1368281355
 H    4.7690955627    3.4722256192    0.6987747001
 H    4.6424383963    1.0020589555   -0.2246572823
 H    2.2614380276    0.6603075055   -1.4491619987
 H    1.3318104285    3.1458957185   -1.9367820374