16

 O    0.0179397119    1.3794399621   -0.1456238666
 C    0.0137610270   -0.0095175149    0.0681062612
 C    0.5981651768   -0.4919439390    1.4028847943
 C   -0.0928099338   -1.8348766702    1.6565143887
 O    0.2614886306   -2.6875950549    2.4234196889
 C   -1.3206869103   -1.9277183070    0.7340635869
 C   -1.4535607115   -0.5244606864    0.0971919359
 C   -2.3067589702    0.3468846712    0.9096549797
 N   -2.9975559482    0.9981675521    1.5681586578
 H    0.9276258300    1.6930002433   -0.1300523731
 H    0.5158948068   -0.5370613592   -0.7590442549
 H    1.6853713800   -0.5912331610    1.4271687622
 H    0.2990017993    0.2033798222    2.1985692622
 H   -1.1073771050   -2.6784239725   -0.0355325808
 H   -2.2053845864   -2.2596922304    1.2793375711
 H   -1.8707602769   -0.5567972254   -0.9124755635