19

 C   -0.3346921521    1.1464371114    1.0104663466
 C   -0.0231746732   -0.1137409583    0.2262078342
 O    0.7278518549   -0.9868143606    1.0897973619
 C    1.1063045697   -2.1736440168    0.5793247893
 N    0.8151039561   -2.5111536747   -0.6088219108
 C    1.8976576506   -2.9564217258    1.6071748021
 C    1.1361698982   -3.0957271997    2.9451210078
 C    1.9091995355   -3.8309797889    3.9420883518
 N    2.5350723268   -4.4155225937    4.7178782974
 H    0.5842295735    1.6474153261    1.3278183952
 H   -0.9063197543    1.8390690306    0.3858513115
 H   -0.9276382228    0.9180939860    1.9008786405
 H   -0.9297602398   -0.6329286730   -0.1007691932
 H    0.5711798094    0.0929732214   -0.6693833903
 H    1.1779808364   -3.4375443751   -0.8216506702
 H    2.1365727277   -3.9433838999    1.2053064503
 H    2.8446093916   -2.4381020833    1.7927869069
 H    0.8973656038   -2.1024742732    3.3346029175
 H    0.1842224978   -3.6145766726    2.7864907815