21

 C    0.1987830485    1.5440757429    0.0159235128
 C    0.0701318813    0.0315079818   -0.0016367655
 O   -1.2907701834   -0.3765515359   -0.0880008231
 C    0.9843859588   -0.7785540021   -0.9791300632
 C    1.4093615752   -1.7140221144    0.1923289871
 C    2.8732552070   -1.6614004248    0.6336365125
 C    2.9510931176   -0.3066320220    1.3544436228
 O    1.6723864000   -0.1067163374    1.9542839063
 C    0.6792044488   -0.7699072807    1.1931423803
 H    1.2311907171    1.8599119278    0.1844201272
 H   -0.1315136440    1.9672764177   -0.9415399006
 H   -0.4219572839    1.9657545803    0.8116843893
 H   -1.6473489580   -0.0383035836   -0.9167718431
 H    0.4429799928   -1.2616065418   -1.7958667915
 H    1.8127328872   -0.1987208674   -1.3991061301
 H    1.0147909867   -2.7271083956    0.1194906243
 H    3.0854907816   -2.4749741223    1.3348376351
 H    3.5811207311   -1.7336846021   -0.1972359168
 H    3.7016655474   -0.2721031095    2.1490572002
 H    3.1770621335    0.5028655329    0.6426888002
 H   -0.0749804352   -1.1722947536    1.8731106358