16

 C   -0.0481774953    1.3996237743    0.0119921636
 O    0.0383471130   -0.0300728660    0.0154525774
 C    0.6521609023   -0.5976264905    1.0604983052
 C    0.7498527641   -2.0052376987    1.0858531130
 N    1.3431591822   -2.6053226917    2.0888454414
 C    1.8351876650   -1.7965459091    3.0598352757
 C    2.5203818791   -2.4509379094    4.2228866137
 N    1.7552361188   -0.4716334172    3.0591051029
 N    1.1489474904    0.1412334508    2.0338303686
 H    0.9479638395    1.8499841081    0.0227939050
 H   -0.5742442846    1.6542078888   -0.9082528928
 H   -0.6022020281    1.7582272337    0.8835977724
 H    0.3363862307   -2.6043907453    0.2777817633
 H    3.3809934038   -3.0337663649    3.8791534703
 H    2.8548805642   -1.6956270557    4.9342429954
 H    1.8405749049   -3.1483177874    4.7225010149