16

 C    0.0095169857    1.3492148399    0.0416044927
 O   -0.2150034318   -0.0430776734   -0.1987740578
 C    0.5349140828   -0.5942530213   -1.1547665382
 N    1.4267889931    0.0788532392   -1.8468875390
 O    1.9725667192   -0.8652027767   -2.7307920576
 C    1.3887807518   -2.0576075199   -2.5199638991
 C    1.8445604446   -3.2017939567   -3.3734126720
 O    0.9038211166   -4.2554181220   -3.3958742468
 C    0.4588504543   -1.9662178225   -1.5363774697
 H    1.0447737272    1.5264780039    0.3483352291
 H   -0.1956143847    1.9352211613   -0.8594308492
 H   -0.6774233066    1.6270598579    0.8411943306
 H    2.0869411615   -2.8237808321   -4.3780469414
 H    2.7672576082   -3.6293860813   -2.9643715247
 H    0.0891723533   -3.9142673308   -3.7803898729
 H   -0.1686498852   -2.7388462756   -1.1285587039