21

 C   -0.2227988925    1.3848182401   -0.1929061482
 C    1.2316575685    1.1131324337    0.1028002723
 C    0.2490143293   -0.0288318891    0.0505385711
 C   -0.1478802376   -0.7640854941    1.3103249128
 C   -1.5511846495   -1.4200197362    1.2195085252
 O   -1.5383980825   -2.5696997076    2.0622401330
 C   -0.2091619194   -3.0124470676    2.1690761198
 C    0.5836658151   -3.2323528946    0.9065984311
 C    0.7347856017   -1.9444773906    1.7052464865
 H   -0.8140861289    1.8625930443    0.5818343863
 H   -0.5003398661    1.6722724668   -1.2008917285
 H    1.9495108648    1.2137449096   -0.7035869001
 H    1.6137659214    1.4090331265    1.0745560331
 H    0.3122372905   -0.6659014857   -0.8284836007
 H   -0.1402201181   -0.0529174225    2.1471614862
 H   -2.3581416731   -0.7639436854    1.5562603485
 H   -1.7664933921   -1.7077102001    0.1796725980
 H   -0.0567818335   -3.6312683275    3.0452866694
 H    1.4061806458   -3.9379579490    0.9530267764
 H    0.0688663884   -3.2149353480   -0.0483165413
 H    1.6737728878   -1.7453139530    2.2079204793