21

 C    0.1048608343    1.5494467721   -0.0818537319
 C    0.0271288667    0.0094783054   -0.0029926623
 C    0.6653425325   -0.4859970276    1.3159408002
 O    2.0124956153   -0.0949094257    1.4692733180
 C   -1.4333384700   -0.5082697934   -0.0597843422
 C   -2.3145451594    0.0019270099   -1.1985501733
 O   -3.5890339033   -0.5962979058   -1.0167903889
 C    0.8066159099   -0.5496158533   -1.1836675994
 O    1.8161092861   -1.2103813175   -1.1032581113
 H    1.1085497464    1.8774819840    0.1977453247
 H   -0.1201238837    1.9281155206   -1.0842018047
 H   -0.6115702700    1.9981622205    0.6143107304
 H    0.1141495436   -0.0528117131    2.1580769163
 H    0.5548841972   -1.5792107398    1.3767914241
 H    2.4992735106   -0.5752010830    0.7871006742
 H   -1.4361656648   -1.6045219935   -0.0951825952
 H   -1.9245157410   -0.2319314015    0.8815639823
 H   -2.3838855072    1.0992157826   -1.1653218916
 H   -1.8903866737   -0.2696761986   -2.1779043129
 H   -4.1755577296   -0.2740201618   -1.7073609588
 H    0.3915244003   -0.2982005405   -2.1852247276