19

 O   -0.0814661126    1.4507797656    0.0479877164
 C   -0.0119066192    0.0346169236   -0.0011608450
 C    0.6896057523   -0.5952982084    1.2263941732
 C    0.0078933997   -1.9615211889    1.4432548604
 C   -1.4110084366   -1.7688380444    0.9256471234
 C   -2.1477971289   -0.5269123198    1.3330726091
 C   -1.4211524890   -0.5559044233   -0.0045025442
 C   -2.1711045761   -0.5285252715   -1.2234090563
 C   -2.7875894457   -0.5061316730   -2.2565993856
 H    0.8041971744    1.7980348577   -0.0965056000
 H    0.4847408308   -0.2883150255   -0.9284170113
 H    1.7705927268   -0.6821880213    1.0850036742
 H    0.5297216260    0.0673274637    2.0824784799
 H    0.5045346358   -2.7397186751    0.8524617293
 H    0.0403095734   -2.2826277204    2.4901989165
 H   -1.9952181327   -2.6424672595    0.6606988374
 H   -3.2294827292   -0.5529508707    1.2822729489
 H   -1.7495739715    0.1101090896    2.1147849748
 H   -3.3369342578   -0.4797560084   -3.1643688912