25

 C    0.1319734985    1.5091988951    0.0673785363
 C   -0.0524224091   -0.0178941322    0.0759779065
 C    0.6194787229   -0.5993856089    1.3300777123
 C   -1.5441543719   -0.4692187985   -0.0909042988
 C   -2.1246166549    0.0975916368   -1.4021937631
 C   -1.6791579239   -2.0318512116   -0.0718265441
 C   -2.2999720060   -2.4218418828    1.2956577651
 C   -2.8080210746   -1.1053517780    1.8299204995
 C   -2.4026979586   -0.0711549084    1.0971153169
 H    1.1920511963    1.7616049113    0.1752439600
 H   -0.2196521283    1.9701466057   -0.8587978684
 H   -0.3989523435    1.9806601488    0.9021881337
 H    0.4774985076   -0.4174888751   -0.8013707756
 H    0.1333513446   -0.2362152320    2.2412213455
 H    0.5914771768   -1.6921761624    1.3503200777
 H    1.6716043429   -0.2987844941    1.3701699374
 H   -1.5140544429   -0.1987848800   -2.2635497372
 H   -3.1392811252   -0.2797732113   -1.5629345721
 H   -2.1807876081    1.1898104643   -1.3924986519
 H   -2.3517128211   -2.3415463770   -0.8772101409
 H   -0.7238874162   -2.5296959351   -0.2572358662
 H   -3.0976500366   -3.1668977405    1.1907173074
 H   -1.5632412718   -2.8632531280    1.9803927059
 H   -3.4171027100   -1.0349685281    2.7253673729
 H   -2.6420116473    0.9664860721    1.3068345612