20

 C    0.0818078145    1.4367467723   -0.0620446896
 N   -0.0119353926    0.0047622042    0.1130741880
 C   -1.3610831351   -0.5331975010    0.0823122756
 C   -1.2128510870   -1.9083801722    0.7167368413
 O   -1.9801957081   -2.8337492723    0.6526397455
 C    0.1566647827   -1.9538267865    1.4410936420
 C    0.0512823825   -2.5004158375    2.8594120903
 O    1.0149956804   -2.7631304823    0.6358348605
 C    0.6325678598   -0.5053818489    1.3249917959
 H    1.1337219900    1.7397217206   -0.0710642573
 H   -0.3616338406    1.7274674942   -1.0197161512
 H   -0.4314513362    2.0059540008    0.7384125117
 H   -2.0840265652    0.0434952666    0.6998247476
 H   -1.7712576097   -0.5909805675   -0.9307387256
 H   -0.4127772458   -3.4915424383    2.8386509019
 H    1.0475504929   -2.5861062152    3.3025672272
 H   -0.5633454418   -1.8558940213    3.4958020367
 H    0.5775255429   -3.6167572884    0.5279672547
 H    1.7211353871   -0.4449199366    1.2374446217
 H    0.3260146091    0.0579546496    2.2277468330