25

 C    0.1965471208    1.4841284960   -0.0607353836
 C   -0.0462330312   -0.0212827154    0.0774783474
 O    0.6190454239   -0.5179740018    1.2394784368
 C   -1.5400331543   -0.4792639881    0.0331261339
 C   -2.2911694442    0.0117929559    1.2858273921
 C   -2.2129690339    0.0894293269   -1.2310406978
 C   -1.5181541643   -2.0281097506   -0.0259000105
 C   -2.8540579657   -2.7464887970    0.1380767928
 O   -2.6095210870   -4.1291359378   -0.0923182885
 H    1.2694703786    1.6784803597    0.0212593648
 H   -0.1463171363    1.8711009666   -1.0232777867
 H   -0.3082446732    2.0534524231    0.7287423232
 H    0.4620119196   -0.5239769779   -0.7555292586
 H    0.3451821963    0.0233631451    1.9871466804
 H   -2.2382841746    1.1009018912    1.3870458779
 H   -3.3524876770   -0.2488915785    1.2368685076
 H   -1.8867210338   -0.4382927651    2.1986895281
 H   -1.6276628610   -0.1430066799   -2.1281580688
 H   -3.2115525085   -0.3345325883   -1.3721603507
 H   -2.3298940629    1.1757523859   -1.1764704202
 H   -1.0980694628   -2.3395071228   -0.9909174084
 H   -0.8353813784   -2.3979850073    0.7443358495
 H   -3.2563155938   -2.5859666956    1.1497885875
 H   -3.6008879865   -2.3610282572   -0.5743221019
 H   -3.4331525300   -4.6050950472    0.0477361634