15

 O    0.1778953246    0.0121631329    0.0426141378
 C    0.0818178589    1.2019626303   -0.0161289231
 N   -1.0458980420    2.0536387186   -0.0601084151
 C   -0.2091707789    3.2596616868   -0.0406783108
 C   -0.5651277215    4.4388010256   -0.9096728993
 C   -1.7095249935    5.1845873202   -0.3774450486
 N   -2.6153405700    5.7535402276    0.0585436966
 C    0.6948685811    3.2775831765    1.1503282164
 C    1.0351894191    2.3900500139   -0.0555156287
 H   -1.8580431496    1.9273948576    0.5353280541
 H    0.2901758765    5.1182859978   -0.9876381616
 H   -0.8090327326    4.0942602971   -1.9204914358
 H    1.3392939000    4.1452370026    1.2640421743
 H    0.3758899073    2.8258131639    2.0845197163
 H    1.9529417106    2.4942346786   -0.6167487624