20

 N    0.0205938857    1.1588280318    0.4701016613
 C    0.1676401742   -0.1294754142    0.0432769998
 O    1.2591433978   -0.6209475328   -0.1719246989
 C   -1.1411839809   -0.8924258382   -0.1688732255
 C   -0.9677886530   -2.3915322607    0.0199416962
 C   -0.8259540620   -2.9580273224    1.4614343457
 C   -1.6837881818   -4.1611935416    1.0253785650
 O   -2.6018356000   -4.5963247191    2.0016998704
 C   -2.1994204676   -3.3180793933   -0.1753778643
 H    0.8466474383    1.7219844374    0.5884192950
 H   -0.8778247259    1.5672158945    0.6555754993
 H   -1.9250976099   -0.5058416629    0.4945238163
 H   -1.4727800975   -0.6823008761   -1.1957377501
 H   -0.1261033367   -2.7210348638   -0.5934744798
 H    0.1759699811   -3.1454556177    1.8506376765
 H   -1.3888471360   -2.3570296449    2.1838758865
 H   -1.0511968456   -4.9901404850    0.6765316220
 H   -3.0786887503   -5.3555909763    1.6517388415
 H   -3.1294141138   -2.8131530305    0.1074764308
 H   -2.3336262058   -3.8078035141   -1.1437578478