21

 C    0.2157139540    1.4471059901   -0.1059224570
 C    0.0886075902   -0.0525609903    0.0316172965
 C   -1.1749167761   -0.7204421056   -0.4072303160
 C   -1.5288877953   -1.7247332528    0.3977943725
 C   -0.5582795222   -1.8937726640    1.5484481223
 C    0.5181311416   -0.8422343661    1.2674947484
 C    1.3392999414   -0.9224203369   -0.0001957336
 C    1.4976524174   -2.1631481377   -0.8344539356
 O    1.8686569809   -1.7548383442   -2.1487162996
 H    1.1516445310    1.8049994198    0.3346256939
 H    0.2133217769    1.7475143890   -1.1601775760
 H   -0.6109912233    1.9662717216    0.3924110415
 H   -1.7118131685   -0.4080764309   -1.2966487243
 H   -2.3849067788   -2.3750923216    0.2545369799
 H   -1.0454064803   -1.7109214672    2.5157017478
 H   -0.1562152756   -2.9145717696    1.6022948043
 H    0.9684176781   -0.3352295340    2.1140186801
 H    2.2596090318   -0.3428354594    0.0398808692
 H    2.2780762555   -2.8008013899   -0.3868857942
 H    0.5660936443   -2.7439857539   -0.8520652309
 H    1.9990694970   -2.5473063464   -2.6779538391