14

 O   -0.0205894299    1.4435561419    0.2967166259
 C   -0.0329493567    0.0648781335    0.1525007320
 C   -0.4865182298   -0.7733063756    1.3117934467
 O   -1.2628832424   -0.1063100340    2.2833890768
 C   -2.3758593310    0.3400430021    1.6290344461
 N   -2.5247344079    0.0075370855    0.4001442625
 C   -1.3385476208   -0.7115607431    0.0321841230
 C   -3.2801461661    1.1174469328    2.3996532193
 C   -4.0412081728    1.7727926230    3.0587128888
 H   -0.5632277651    1.8268669690   -0.4016507442
 H    0.7936360805   -0.3610805407   -0.4159129349
 H    0.0738517574   -1.6082182172    1.7113769550
 H   -1.4449309411   -1.4966920457   -0.7065858130
 H   -4.7186227743    2.3523431786    3.6367927460