21

 C   -0.0494198148    1.5919747147   -0.0093742430
 C    0.0461867450    0.0664455800    0.0371826537
 C    1.1784721661   -0.7242932060   -0.7057113485
 C    2.1588357646   -0.4073918995    0.4873882360
 O    2.7849167800    0.8371346578    0.6664923751
 C    0.7953138997   -0.7523273284    1.1579716131
 C    0.7546194074   -1.9252638572    0.1587135773
 C   -0.2328955021   -3.0154118418   -0.0582411538
 C    1.2341188962   -3.3312609256    0.2412313216
 H    0.9033101120    2.0882762420   -0.2019026934
 H   -0.7225546014    1.8903102718   -0.8203517407
 H   -0.4750608476    1.9933707566    0.9183487082
 H   -0.9470634911   -0.3535216716   -0.1520848157
 H    1.4007721517   -0.7249632027   -1.7741768979
 H    2.9384898966   -1.1631484592    0.6147844327
 H    2.1640075120    1.4519920565    1.0622194165
 H    0.5672078114   -0.7884713554    2.2261357852
 H   -0.9605481728   -3.2278017792    0.7191252157
 H   -0.5934987320   -3.2040979738   -1.0647897883
 H    1.8390582473   -3.7273995472   -0.5686740635
 H    1.4689320919   -3.7507721920    1.2147503495