16

 C    0.1719949761    1.5852273687    0.0671317982
 C    1.3040796448    0.6176368132   -0.1590421416
 C   -0.1087865500    0.1032584898    0.0395118870
 C   -0.4810209029   -0.6349750499    1.2682687952
 C   -1.0166172286   -0.1394850957    2.4179429342
 O   -1.2231667875   -1.1288131312    3.3293342825
 C   -0.8174585212   -2.2872651937    2.7464380086
 C   -0.3558791339   -2.0532551109    1.4929018852
 H    0.1324894108    2.0943479236    1.0234302688
 H   -0.1731282145    2.1838182673   -0.7682435934
 H    1.7377737182    0.5488439080   -1.1505671531
 H    2.0063647020    0.4667004721    0.6530400266
 H   -0.5883387159   -0.2646269398   -0.8643306537
 H   -1.3059344768    0.8503424149    2.7292088466
 H   -0.9200539171   -3.1747443643    3.3489977977
 H    0.0334361865   -2.7852901123    0.8021601012