19

 C    0.2175861995    1.2466911391    0.2863485433
 O   -0.2446074817   -0.0254965923   -0.1560719695
 C    0.4589833961   -0.5603230885   -1.2212012116
 C    1.8141594076   -1.2245910982   -0.9575697493
 C    0.6148117229   -2.0739716378   -1.2358086644
 C   -0.0189288723   -2.8914010722   -0.1388992782
 O    0.7350358167   -4.0908604963   -0.0161638446
 C    0.2866500788    0.0906267577   -2.5477957004
 O   -0.3683293700    1.0814627046   -2.7534397469
 H    1.2778860825    1.2063847185    0.5722305334
 H    0.0758581522    2.0098384845   -0.4840266312
 H   -0.3785382624    1.5006346567    1.1653060361
 H    2.5945020963   -1.1426339773   -1.7061103259
 H    2.1552598974   -1.1681604286    0.0702163113
 H    0.5702165609   -2.5405899565   -2.2163537405
 H   -0.0247040187   -2.3131371390    0.7937535416
 H   -1.0666158618   -3.1044777390   -0.4009859269
 H    0.3032224644   -4.6447686157    0.6411079554
 H    0.8360276217   -0.4270916797   -3.3694587817