14

 C   -0.0270583729    1.5151822334    0.0503751013
 C   -0.0114686727    0.0265744192   -0.0324326480
 C   -0.0306456988   -0.8186355174   -1.0996283605
 N   -0.0037292006   -2.1502458118   -0.7011503337
 C    0.0313992631   -2.1217647773    0.5964847921
 N    0.0292371911   -0.8212774276    1.0853395869
 C    0.0618217792   -0.4650224832    2.4331962687
 O    0.0958793224   -1.2605486071    3.3336497718
 H    0.8662512868    1.9172209185    0.5426150178
 H   -0.0589426953    1.9265821273   -0.9609791972
 H   -0.9022349229    1.8960539508    0.5897747572
 H   -0.0624656637   -0.5504154392   -2.1450619165
 H    0.0599281884   -2.9630780517    1.2704203531
 H    0.0526170060    0.6282276760    2.5792555970