20

 C   -0.1475433466    1.3128032589   -0.0627429536
 N    0.1166615438   -0.1202217972    0.0343171762
 C    1.5296590088   -0.4695399020   -0.1559042382
 C    0.9158730609   -0.4784389427    1.2142199856
 C    1.0457436432   -2.0313626956    1.2739582562
 C    1.7101902206   -2.6027698895    2.4979599367
 O   -0.1083478467   -2.7759709997    0.8321354085
 C    0.3792718347   -2.8147297193   -0.5342518619
 C    1.6437963368   -2.0111082987   -0.1583186588
 H    0.6736987713    1.9478208900    0.3110823550
 H   -0.3296341130    1.5712523315   -1.1104804402
 H   -1.0496511814    1.5474769804    0.5104456775
 H    2.2148145141    0.2405874225   -0.6038182583
 H    1.0148906562    0.2246178657    2.0348641989
 H    1.0294106473   -2.5463134149    3.3551939670
 H    1.9754473857   -3.6521054485    2.3416910831
 H    2.6174542313   -2.0421597894    2.7467314768
 H    0.5775115358   -3.8459811688   -0.8500109984
 H   -0.3117349151   -2.3294317069   -1.2279541264
 H    2.6247049723   -2.4275500959   -0.3828515957