16

 C    0.0171362568    1.5029505289    0.0067763485
 C   -0.0302673491    0.0048093997    0.0010899622
 C   -1.1873819553   -0.6943106862   -0.0990515846
 C   -1.1768759310   -2.1319597238   -0.1042197070
 N   -2.1838443269   -2.8951340740   -0.1983038313
 O    0.1171263726   -2.7007306532    0.0085284483
 C    1.1977930146   -1.9018403287    0.1093916932
 N    2.3361044332   -2.6247714456    0.2597398646
 N    1.2063293973   -0.6119839686    0.1036867422
 H    0.6387212856    1.8610654502   -0.8210849655
 H   -0.9792795201    1.9404712944   -0.0791542684
 H    0.4869974469    1.8599752119    0.9297554930
 H   -2.1520934335   -0.2137374017   -0.1813265639
 H   -1.9051460464   -3.8755849763   -0.1752641076
 H    2.3176269954   -3.5984698716    0.0081558649
 H    3.1995924901   -2.1203641354    0.1496350313