20

 C   -0.3947791262    1.3968013471    0.1241018930
 N   -0.1007651064   -0.0229806741    0.1501002163
 C    0.3631320215   -0.6614508218    1.2623332345
 O    0.6017813052   -0.0850979058    2.3108761311
 C    0.5451597853   -2.1714523138    1.1075534411
 C    1.4911347751   -2.7339152951    2.1577170626
 C    0.9958043881   -2.7742054832    3.6185748463
 O    1.1948016786   -4.2059709913    3.6918361936
 C    1.5679474313   -4.2702268695    2.3036367254
 H   -0.1387801201    1.7978253593    1.1053113609
 H    0.1982027779    1.9123541233   -0.6392956464
 H   -1.4567416119    1.5831093997   -0.0722740296
 H   -0.2748830281   -0.5677969382   -0.6779822439
 H   -0.4429656716   -2.6424180512    1.2064801413
 H    0.9001191999   -2.4096466309    0.0964741634
 H    2.4725661254   -2.2641045031    2.0649449977
 H    1.6013085197   -2.2330984653    4.3517585206
 H   -0.0565407169   -2.4974117603    3.7558865357
 H    0.8331137541   -4.8283442002    1.7043255603
 H    2.5553204590   -4.7263901058    2.1603461161