20

 C    0.0093590794    1.6063705144    0.1319481503
 C    0.0684210645    0.0949061580    0.1806111373
 N    1.2120160293   -0.7279847288   -0.2831598593
 C    2.4696514101    0.0053624540    0.1064622295
 C    2.0742011369   -0.0579327935    1.5798234080
 C    2.9088392443   -0.2599330054    2.7612239615
 O    2.2088781805    0.9753955502    2.5462406541
 C    0.7755867938   -0.7279538913    1.1938441974
 C    0.1792347209   -1.9187171561    1.8843222251
 H    0.8423081630    2.0899751199    0.6436488073
 H   -0.0155845275    1.9562049911   -0.9062807127
 H   -0.9114480649    1.9462198550    0.6169577510
 H   -0.8536197653   -0.3709077743   -0.1656103002
 H    3.3420565324   -0.6028432301   -0.1437013159
 H    2.5828359081    0.9979042578   -0.3378682639
 H    2.5437913574   -0.8606349212    3.5935604760
 H    3.9934171026   -0.2069837517    2.6698399575
 H   -0.2870917536   -1.6234427961    2.8316711382
 H   -0.5909148458   -2.3805354355    1.2602763789
 H    0.9395841639   -2.6761844463    2.1020510100