18

 N    0.0182214566    1.5247966473   -0.0222550834
 C   -0.0000437490    0.0666943123   -0.0573562285
 C   -0.0076255766   -0.5539288569    1.3734229171
 N   -1.4488887852   -0.8722660525    1.2449013047
 C   -1.4356455895   -0.5627903988   -0.2091915336
 C   -2.6087924358    0.3284378773   -0.6079287086
 O   -3.8176424063   -0.2875908990   -0.2000638107
 C    1.0042503771   -0.4968760596   -0.9676469196
 N    1.8031224510   -0.9067265761   -1.6974713478
 H    0.9127723329    1.8444244911    0.3399008879
 H   -0.0628702920    1.9042163323   -0.9619659209
 H    0.6524507172   -1.4221983177    1.4667371772
 H    0.2198511331    0.1646286971    2.1671957151
 H   -1.6714770003   -1.8377802904    1.4552914054
 H   -1.4104751667   -1.4556748796   -0.8438696906
 H   -2.4868549254    1.3198510711   -0.1553070294
 H   -2.6608609944    0.4422438360   -1.6961002493
 H   -3.7562816067   -0.3564100539    0.7612019651