18

 C   -0.5985419451    1.3036824375   -0.0690194499
 C    0.0852039123   -0.0535353274   -0.0280360903
 C    1.4251815451   -0.2533134866   -0.7439070827
 O    1.9096966344    0.2203848499   -1.7321707080
 C    1.9573996164   -1.1527224487    0.3794001756
 C    0.7673101528   -0.6282781401    1.2606949470
 C    1.1930168731    0.4133020153    2.2888941465
 O   -0.0561754108   -1.6224217773    1.8396875504
 H    0.0638045665    2.1020313244    0.2781795134
 H   -0.8899463451    1.5436867686   -1.0956808442
 H   -1.5005192439    1.3117469511    0.5506193695
 H   -0.5973593686   -0.8383859576   -0.3811390787
 H    1.8279919646   -2.2129954267    0.1406556575
 H    2.9822198579   -0.9732085412    0.7137721518
 H    1.8071962893    1.1998556376    1.8394566025
 H    0.3186684890    0.8787394988    2.7526175813
 H    1.7929594066   -0.0558039595    3.0785009618
 H    0.3825498355   -1.9573749582    2.6293498665