18

 C    0.0210443662    1.5637456384    0.0104056188
 C   -0.0052489137    0.0331376509    0.0015903579
 C   -1.4299138170   -0.5315021317    0.0128455853
 C   -1.4337146799   -2.0627127176    0.0052166736
 N   -2.7878244522   -2.6093890376    0.0149417774
 N   -3.4787898692   -2.8598112005    1.1154732282
 N   -4.6375620679   -3.2763116132    0.7016157299
 N   -4.6479233180   -3.2747422290   -0.6447033865
 N   -3.4957634533   -2.8570028000   -1.0754048391
 H    1.0481113527    1.9398546225    0.0023214746
 H   -0.4918974766    1.9737444183   -0.8661255899
 H   -0.4741738325    1.9631140256    0.9018729423
 H    0.5264172042   -0.3387528578   -0.8839506024
 H    0.5443561020   -0.3491857187    0.8716388451
 H   -1.9683154522   -0.1807770319    0.9010413105
 H   -1.9857315977   -0.1718383006   -0.8609693843
 H   -0.9486877999   -2.4584838754   -0.8896281627
 H   -0.9320984951   -2.4673370216    0.8869150913