20

 C   -0.2445606784    1.5468014708   -0.1242378809
 C   -0.0711498740    0.0333310233   -0.0597420770
 O   -1.2870919204   -0.6359303431   -0.3367017750
 C    1.1928138555   -0.4890005457   -0.8170553589
 C    1.9348527624   -0.5372885751    0.5459109136
 C    0.5590394647   -0.4772595846    1.2609175952
 N    2.8068222645   -1.6522690961    0.8234617525
 C    4.1115477937   -1.5173870099    1.1875680140
 O    4.6984745601   -0.4647991058    1.3237112066
 H    0.6807235584    2.0700018670    0.1368185809
 H   -0.5234490985    1.8619782341   -1.1377948803
 H   -1.0305640762    1.8685723968    0.5658935916
 H   -1.6653188974   -0.2555393388   -1.1370680148
 H    0.9995320562   -1.4947888321   -1.2016892769
 H    1.6228146857    0.1288893969   -1.6096140159
 H    2.5307588037    0.3587091198    0.7201857390
 H    0.4685383784    0.1474340997    2.1524976867
 H    0.1782073515   -1.4788180713    1.4811194353
 H    2.4334062191   -2.5855762450    0.7419228181
 H    4.5929781010   -2.5022873809    1.3513743461