16

 C   -0.3318341485    1.6278850875   -0.1537753584
 C    0.0596471997    0.1712818277    0.0074513312
 C    0.8200472483   -0.5390079005   -1.1935309000
 C    1.9706844045   -0.7083475247   -0.2100034937
 C    3.1774139240   -1.1127756826    0.3311217371
 C    3.0810274976   -0.6446836809    1.6717736096
 N    1.9238778061   -0.0174599259    1.9510732615
 N    1.3025209321   -0.0812718280    0.7672426259
 H    0.5015416966    2.2147030200   -0.5513062166
 H   -1.1807681239    1.7150937717   -0.8393438446
 H   -0.6260696355    2.0566620018    0.8086509016
 H   -0.7761614973   -0.4228936789    0.3911284540
 H    0.3518741380   -1.4614116392   -1.5449898090
 H    1.0122997271    0.1167868556   -2.0465409304
 H    3.9974414296   -1.6428906182   -0.1229814889
 H    3.8246139816   -0.7410007254    2.4502514207