15

 C    0.0045171246    1.5073083869    0.0075076048
 C   -0.0562532755    0.0168475235    0.0201234951
 C   -1.1010321652   -0.8159617435   -0.1024059867
 C   -0.6394397951   -2.2291613412   -0.0759351468
 C    0.2699579827   -2.6949463417   -1.1695255128
 N    0.8126044962   -2.2041717104    0.1133652335
 C    1.1902120134   -0.8070634226    0.0718466682
 O    2.3276039280   -0.4138029543    0.0564592829
 H    0.6866436856    1.8541695238   -0.7760649309
 H   -0.9790296845    1.9544085374   -0.1547807079
 H    0.4082854390    1.8843251627    0.9536799974
 H   -2.1431501713   -0.5334537100   -0.1933382012
 H   -1.1943854586   -2.9648022478    0.4997240638
 H    0.4039016680   -3.7583592253   -1.3467579539
 H    0.3789488327   -2.0559539575   -2.0422644755