15

 N   -0.3643167716   -0.7849388717   -1.1898538141
 C   -0.1841938815    0.1438792293   -0.5268992266
 C    0.0519690365    1.3320326398    0.2916316812
 C    1.4427922316    1.9238434057    0.1283389287
 C    2.0283890467    2.6095180101    1.1944143862
 N    3.2217415201    3.2000204314    1.1406688544
 C    3.8933349927    3.1192420496   -0.0109046564
 C    3.4097345013    2.4535356240   -1.1336758818
 C    2.1621630425    1.8450435709   -1.0624407646
 H   -0.7117060101    2.0765132946    0.0297168557
 H   -0.1238537820    1.0730725187    1.3414737039
 H    1.5019368971    2.6819279949    2.1452979631
 H    4.8653114623    3.6055968395   -0.0344592985
 H    3.9997532171    2.4096060054   -2.0421573346
 H    1.7571511174    1.3072672680   -1.9136432166