23

 C   -0.8826981109    1.2688855180    0.0374063914
 C    0.0813457053    0.0933906172    0.0754936015
 C    1.3414533524    0.1408888370   -0.8442581912
 C    2.1796686130   -0.3329136301    0.3522707496
 C    3.0859268596   -1.5309165868    0.3784214092
 C    3.6471490169   -0.1398307744    0.5878180175
 C    4.4938596004    0.4993752332   -0.4785992973
 O    4.3086003166    1.9103164105   -0.4050759627
 C    1.0193825448   -0.0521773162    1.3144689956
 H   -0.3533713113    2.2148539564    0.1997314021
 H   -1.3933717111    1.3351129446   -0.9301487375
 H   -1.6512321958    1.1794173125    0.8137295804
 H   -0.4654596388   -0.8409904250   -0.0893993182
 H    1.3257205563   -0.4967722819   -1.7329516735
 H    1.6011970089    1.1612270905   -1.1456816996
 H    3.0438469152   -2.1976279143    1.2342055638
 H    3.3006343741   -2.0299244737   -0.5629323109
 H    3.9408795434    0.1188480140    1.6025332394
 H    5.5533200336    0.2341871372   -0.3325775912
 H    4.1942169805    0.1131022535   -1.4661547399
 H    4.9075203613    2.3224812259   -1.0350633108
 H    1.1421861733    0.8947795540    1.8522967703
 H    0.7678942922   -0.8335876519    2.0377523719