19

 C    0.0223719581    1.4672552496   -0.0282965096
 C    0.0430820913   -0.0314172386   -0.0771878655
 C    0.5680430624   -0.9781359684   -1.1648504177
 O    1.9636881966   -0.8753179639   -1.3597502964
 C    0.0639841463   -1.9797544708   -0.1014511212
 C    0.0702433839   -3.4797948300   -0.0843007229
 C    0.4916383514   -1.0152510846    1.0577967375
 O   -0.8120045492   -1.0381312501    1.7154469523
 C   -1.1108289060   -1.0233613496    0.2868347310
 H    1.0351333641    1.8729581814   -0.1172827437
 H   -0.5791883980    1.8843969243   -0.8433122981
 H   -0.4044050174    1.8066200720    0.9210366901
 H    0.0237863857   -0.9689569139   -2.1209347880
 H    2.2372883276   -1.5629684307   -1.9743760739
 H    1.0897460917   -3.8709989193   -0.1757379027
 H   -0.3498847992   -3.8470457206    0.8577413815
 H   -0.5238287827   -3.8935372696   -0.9069071719
 H    1.3892782872   -1.0119472842    1.6738409650
 H   -2.1541086540   -1.0286157231   -0.0299577358