16

 N   -0.1419030432    1.3858995881    0.0316657007
 C    0.0161180997   -0.0151071411   -0.0565036286
 C    0.9186165694   -0.9106046518   -0.9218042078
 C    0.0420585638   -2.0735104503   -0.3982887059
 N    0.4609720298   -2.1423256711    1.0495869475
 C   -0.3016297416   -0.8781213961    1.1980194648
 C   -0.6578229499   -0.3083149960    2.4522082174
 N   -0.9435020380    0.1248261013    3.4868020535
 C   -1.1060000881   -1.0326907429   -0.0766697774
 H    0.6556237152    1.8335105318    0.4712579628
 H   -0.2827103625    1.8057970922   -0.8807476331
 H    0.7437017120   -0.7126290796   -1.9831902400
 H    1.9882436145   -0.9718426606   -0.7042023546
 H   -0.0569348001   -3.0141289505   -0.9325166162
 H   -0.0982576813   -2.8704147175    1.4952472208
 H   -2.1641740596   -0.9438525159   -0.2815876539