20

 C   -0.0669109699    1.5606917811    0.1046584100
 C    0.0182053140    0.0347635051   -0.0116865998
 C    0.6685875482   -0.5695600060    1.2415003451
 O   -1.3054744116   -0.5355205608   -0.0415099590
 C    0.7559153507   -0.3794653346   -1.2627708050
 C    1.7421860999    0.2137090036   -2.0238548422
 C    2.0851431493   -0.6910401342   -3.0680917229
 C    1.2970264780   -1.8085629809   -2.9178592974
 N    0.5030450939   -1.6103324585   -1.8187903440
 H    0.9282026719    2.0075457443    0.1849272274
 H   -0.5557410054    1.9911125735   -0.7754997563
 H   -0.6414733508    1.8313680411    0.9947526749
 H    0.0936612646   -0.2988871909    2.1322576394
 H    0.6975996857   -1.6597319642    1.1660803431
 H    1.6929826167   -0.2054909877    1.3514883959
 H   -1.7719268685   -0.1316791710   -0.7824989408
 H    2.1778509443    1.1854332328   -1.8489906439
 H    2.8211212212   -0.5346722206   -3.8418583774
 H    1.2266857395   -2.7129518510   -3.5006862400
 H   -0.2202407718   -2.2198141411   -1.4761020473