18

 C   -0.2206808499    1.7989358235   -0.3312117459
 C   -0.0095300841    0.3002634854   -0.2091830821
 C   -1.2910778119   -0.4720964206    0.1149009889
 C   -1.9018064288   -0.0661928165    1.4433002703
 O   -3.0479333986    0.2731572765    1.5879377591
 C    0.9032161542   -0.3526943378   -1.2782269553
 C    1.8439523718   -0.5902245580   -0.1180585141
 N    2.9690523654   -1.1259451297    0.0107490459
 O    1.0207774078    0.0057568346    0.8167133061
 H    0.7270502677    2.3050187471   -0.5321952714
 H   -0.9143433293    2.0182766211   -1.1492707982
 H   -0.6432326604    2.2127907990    0.5893557191
 H   -2.0354675864   -0.3316163833   -0.6743703133
 H   -1.0464118746   -1.5409455428    0.1772195000
 H   -1.1983990894   -0.1127340882    2.3024836703
 H    0.5175629387   -1.2578267705   -1.7505341444
 H    1.2863159800    0.3231771956   -2.0448629975
 H    3.2887518878   -1.0924318151    0.9803623824