12

 C   -0.0193003824    1.4640581427   -0.0031934429
 N    0.0038483417   -0.0060208625    0.0072876252
 C    0.1121275182   -0.6414917196   -1.2284371478
 O    0.1843699864   -0.0458380250   -2.2632182678
 O    0.1316762346   -1.9975202148   -1.1953101901
 N    0.0427224975   -2.7442484650    0.0810071325
 N   -0.0497032342   -2.1247188895    1.1190015306
 C   -0.0806830055   -0.6731725845    1.2102542200
 O   -0.1745866560   -0.1574095227    2.2876200186
 H    0.8996901367    1.8409265252   -0.4548299436
 H   -0.8683186846    1.8121539052   -0.5935902287
 H   -0.1057404724    1.7969336607    1.0282627738