17

 O    0.1025385049    1.3859805535    0.1851189983
 C    0.0854381283    0.0312354670    0.0180796562
 C    0.1010940891   -0.7357738287   -1.1330708771
 C    0.0709027656   -0.6942233898   -2.6298063997
 C    0.3941161475   -2.1784279699   -2.9962998016
 C   -0.0052244164   -3.0188266617   -1.7571084744
 N    0.0843756843   -2.0267636364   -0.7028506093
 N    0.0456307826   -2.1685590556    0.6216350099
 C    0.0555107956   -0.9071871943    1.0747863302
 H    0.1197564246    1.8077767563   -0.6786190583
 H   -0.9176274986   -0.4006233011   -3.0067839514
 H    0.7982891278   -0.0055227353   -3.0710815712
 H   -0.1216260810   -2.5077216684   -3.9002084886
 H    1.4686738181   -2.2804999614   -3.1700102979
 H   -1.0270686202   -3.4115631647   -1.8309429140
 H    0.6699965899   -3.8562925588   -1.5664343700
 H    0.0500363279   -0.7038285009    2.1350058189