19

 C   -0.2165897981    1.5522843407   -0.0330140046
 C   -0.0126855005    0.0373698511   -0.0318417528
 C   -1.3173003371   -0.7086151321   -0.2880642889
 C    1.2035653458   -0.3789642922   -0.9270927478
 C    2.0571726229   -0.4670912526    0.3402578352
 O    3.2280783638   -0.4461404962    0.5661507097
 C    0.7917741624   -0.4591311246    1.2450924856
 C    0.7832253188    0.2908132781    2.4764444030
 C    0.7837276264    0.9368252751    3.4908904033
 H    0.7217249653    2.0861617709    0.1490520976
 H   -0.6102819196    1.8807984112   -1.0007972967
 H   -0.9224156146    1.8544725094    0.7462495251
 H   -1.7486703811   -0.4217089194   -1.2535120556
 H   -1.1631373467   -1.7930871094   -0.2992935245
 H   -2.0574138993   -0.4816085117    0.4869884903
 H    1.0798770577   -1.3636378245   -1.3915362503
 H    1.5430325511    0.3283359307   -1.6875227866
 H    0.5318131717   -1.5100510667    1.4353578066
 H    0.7916101210    1.5012100722    4.3903148514