15

 O    0.1041078937    0.0624974927    0.3388456022
 C    0.0254455307    1.2153815524    0.0363891759
 C   -1.1511499410    2.1973822825   -0.1164507000
 C   -0.1568521919    3.2021263803   -0.7791989264
 C   -0.1468478190    4.6196896586   -0.1943871653
 C    0.9196573309    5.4478238649   -0.7561439672
 N    1.7705225258    6.0826603058   -1.2123679103
 C    1.0450308800    2.2732959587   -0.4175209192
 H   -1.9935314152    1.8456486577   -0.7169385362
 H   -1.5346566394    2.5291027049    0.8554589700
 H   -0.3037041845    3.2570641431   -1.8599071545
 H   -1.1073836342    5.1144970265   -0.3794228116
 H   -0.0178186933    4.5787181139    0.8943350995
 H    1.6549662565    2.6413191100    0.4155474742
 H    1.7170145409    1.9757032581   -1.2256312310