22

 C   -0.1513928055    1.0987220595    0.2112493884
 O    0.6361078383   -0.0741342016    0.1905461784
 C    0.8712059391   -0.5601548992   -1.0956089068
 C    1.4671838279   -1.9275362251   -1.1789492858
 C    0.0434511973   -1.7016644001   -1.6562711378
 C   -1.1236597463   -2.3082780859   -0.8942982619
 C   -2.4575131433   -1.6858920606   -1.3357428680
 C   -1.1637796971   -3.8349179412   -1.0619713666
 H    0.3243640656    1.9115917573   -0.3586681268
 H   -1.1563014489    0.9319694745   -0.1999976966
 H   -0.2408241326    1.4070469008    1.2556503178
 H    1.2221436628    0.2015806826   -1.7940173063
 H    2.2547522464   -2.1199128268   -1.8989328002
 H    1.5857663394   -2.4423924790   -0.2306295600
 H   -0.0916649418   -1.6855622641   -2.7368914234
 H   -0.9736837347   -2.0820667445    0.1685970865
 H   -2.6564565569   -1.9001588071   -2.3928733177
 H   -3.2927062719   -2.0909097749   -0.7547236131
 H   -2.4587482463   -0.5986134828   -1.2138764565
 H   -0.2331050218   -4.2986123727   -0.7217624574
 H   -1.9897081559   -4.2722290786   -0.4905873443
 H   -1.3070702839   -4.1089744205   -2.1142142119