15

 O   -0.2665574760    1.4924378274    0.3760609226
 C   -0.0837530361    0.1289627871    0.1147705926
 C   -0.4992579991   -0.8871505537    1.1485194521
 O   -1.1702783998   -0.3622317423    2.2750898674
 C   -2.3643133753    0.2061146582    1.8994330079
 O   -3.0435449714    0.8160700641    2.6644401502
 C   -2.6249365458   -0.0550537444    0.3923140469
 O   -3.0533800487    1.0959301760   -0.2847077204
 C   -1.3346632361   -0.6943106064   -0.0934532350
 H    0.2274732946    1.7290724819    1.1694104833
 H    0.7787525531   -0.1119479053   -0.5035988669
 H    0.0886815983   -1.7658694578    1.3799228626
 H   -3.4477358398   -0.7752077783    0.3238281279
 H   -2.3446289009    1.7466476486   -0.1966808605
 H   -1.3677717771   -1.4256862849   -0.8902627006