18

 C   -0.2065024051    1.5578150909    0.1474034495
 C    0.0738789797    0.0814527247    0.0018524975
 C   -0.7699455537   -0.9216547312    0.7535813812
 C    0.6819681948   -0.7419510185    1.1323091749
 C    1.6627224606   -1.7442025713    0.5617187889
 C    1.4458567746   -1.6948076260   -0.9597012747
 O    1.8300346095   -2.5174189092   -1.7484609070
 C    0.6609394216   -0.4204809844   -1.3070987991
 H    0.6899728159    2.1548667880   -0.0583148259
 H   -0.9889641941    1.8867379525   -0.5465538752
 H   -0.5426382344    1.7979900665    1.1613068055
 H   -1.5169270065   -0.5303330548    1.4359480437
 H   -1.0671204131   -1.8419457120    0.2566531899
 H    0.9082686168   -0.2698987903    2.0820943858
 H    2.7018387541   -1.4519025422    0.7638723649
 H    1.5434646690   -2.7699618935    0.9241792503
 H   -0.0726755506   -0.6313442020   -2.0916211612
 H    1.3712327008    0.3081732728   -1.7226190687