18

 C   -0.1210737013    1.4832735920    0.0357809158
 C    1.4116038020    1.4960724217   -0.2193960301
 C    1.4850094502    0.1302510583    0.5136458058
 C   -0.0342084804   -0.0525207825    0.2552611675
 N    2.4178198973   -0.8793619772    0.0613065606
 C    2.5921915962   -1.4185337868   -1.1646745537
 N    3.5601781035   -2.3172391073   -1.1489098664
 C    3.9597056217   -2.2895661720    0.1515320774
 N    3.3030693463   -1.4413031079    0.9253685928
 H   -0.3841361806    2.0109465385    0.9560510189
 H   -0.7668393206    1.8398591465   -0.7678272759
 H    1.6409011281    1.3868616725   -1.2832085711
 H    2.0070810541    2.3157171284    0.1871687175
 H    1.6945946179    0.2599742006    1.5752863835
 H   -0.6271203477   -0.5057507883    1.0519690319
 H   -0.2142880261   -0.6002023586   -0.6741576492
 H    2.0043839440   -1.1338345770   -2.0238861504
 H    4.7531405152   -2.9110975208    0.5391063949