14

 C   -0.0795148360    1.5412018525    0.0460499240
 C    0.1317955866    0.0553283638    0.0083918961
 O   -0.7246096579   -0.7565010284    0.8437729816
 C    0.6967481804   -0.7658742419    1.0854939170
 C    1.4026297622   -1.9455238307    0.4182958676
 O    2.0688646981   -2.7884762997    0.9660449969
 C    1.1395045170   -1.7959121805   -1.0455297674
 C    0.4604647188   -0.6665000545   -1.2785422301
 H    0.8055438367    2.0687712491   -0.3238737810
 H   -0.9296140426    1.8251547674   -0.5838943305
 H   -0.2852218787    1.8701920263    1.0668939931
 H    1.0295117266   -0.3936643806    2.0493803321
 H    1.4581773641   -2.5345489603   -1.7694793806
 H    0.1351371848   -0.3027189223   -2.2468028188