16

 C   -0.0364088003    1.5686476464   -0.0697633611
 C    1.5300077399    1.3801302505   -0.0091119707
 C    1.1985975254    0.1677683327    0.9463885447
 C   -0.0519510929   -0.0086655026   -0.0010457760
 C    0.6704160277   -0.3091994186   -1.2933628622
 N    0.7183079026   -1.0523957810   -2.3794835388
 N    1.8052009620   -0.5461523044   -3.0046531380
 N    2.4514647120    0.4692163781   -2.3883535341
 C    1.7270219323    0.6184129891   -1.2987592323
 H   -0.4340551408    2.0268871993    0.8399379218
 H   -0.4572147151    2.0428170472   -0.9590698465
 H    2.2044357915    2.1828031338    0.2779118876
 H    1.9185326273   -0.6520138256    0.9957864358
 H    0.9148943250    0.4967571596    1.9498420257
 H   -0.9335237799   -0.5720025481    0.2939130034
 H    2.1197449752   -0.9095742850   -3.8877736295