16

 N    0.3163921474    1.3848953796   -1.2820444059
 C   -0.2010148587    0.3941178828   -0.6823871037
 C   -1.6017250921   -0.0655647354   -1.0586651638
 N   -2.5900048625    0.0928251226    0.0072467005
 C   -2.7344109493   -0.7968443723    1.0120297697
 O   -2.0196085138   -1.7732013582    1.1808501612
 N    0.3769808783   -0.3948921763    0.3297763149
 C    1.6225732257   -0.2188601291    0.8741556572
 O    2.4245069986    0.6316585731    0.5530167690
 H    1.2598882651    1.5595247423   -0.9313431880
 H   -1.9146329882    0.5266260104   -1.9172917678
 H   -1.5827509346   -1.1242448960   -1.3391119437
 H   -3.1811341534    0.9085594664   -0.0045728195
 H   -3.5803791645   -0.5573447830    1.6803690885
 H   -0.2118643952   -1.1347165504    0.7094919996
 H    1.8266948172   -0.9649582666    1.6648403817