16

 O    0.3332010640    1.0708935694   -0.1872006382
 C    0.0990682434    0.0838758704    0.8085772942
 C   -1.2948333474   -0.4917861501    0.6739443479
 C   -1.6575092392   -1.6894767368   -0.1197722308
 C   -0.5967555714   -2.7883477806   -0.0587888573
 C   -0.7246020638   -2.6964447946    1.4814339362
 N   -1.8237744152   -1.6634726508    1.3991258638
 H    0.2216044017    0.6467197372   -1.0445696465
 H    0.8726579048   -0.6947864686    0.7821026041
 H    0.1939264217    0.6025940601    1.7686268684
 H   -2.0463598793    0.2958201820    0.6534997018
 H   -2.5205094129   -1.6989046117   -0.7790824167
 H   -0.9531438854   -3.7416626549   -0.4522181442
 H    0.3739825949   -2.5685405065   -0.5146751741
 H   -1.1275028927   -3.6029258546    1.9367335001
 H    0.1537897067   -2.3822552598    2.0523617014