19

 C   -0.3052535024    1.1112780988    0.0777604447
 O    0.1086626873   -0.2447351495   -0.0852667902
 C    0.7184812510   -0.5417868346   -1.2513888426
 N    0.9490580924   -1.9021223157   -1.3222565268
 N    0.9677432249    0.3479660451   -2.1265923913
 C    1.5818185699   -0.0554014750   -3.3598050226
 C    1.7355766791    1.0452140615   -4.4304018904
 O    3.1402462656    0.7499772402   -4.5977719179
 C    3.1366749897   -0.1084713170   -3.4447374878
 H    0.5533574442    1.7867953834    0.0444493732
 H   -1.0049025994    1.4013170023   -0.7104875812
 H   -0.7889865547    1.1531785101    1.0546680191
 H    0.8732416737   -2.3917025769   -0.4439429233
 H    1.7234507410   -2.1944835418   -1.8950861872
 H    1.1254850348   -0.9635864903   -3.7793217505
 H    1.1777874681    0.9264121456   -5.3659297117
 H    1.5681937644    2.0499168757   -4.0223085402
 H    3.6242721842    0.3557346927   -2.5761853744
 H    3.6071016062   -1.0784275947   -3.6528718887