16

 C   -0.0251450562    1.5195674694    0.0156716852
 C   -0.0099795230    0.0224835864    0.0160038048
 C   -0.0257101171   -0.8050856159   -1.0625159930
 O   -0.0039879677   -2.1096071243   -0.6817741920
 C    0.0265131433   -2.1178358705    0.6783284354
 C    0.0245991313   -0.8501371209    1.1651997789
 C    0.0525742646   -0.4435017932    2.6025252207
 O    0.0863148783   -1.6132452774    3.4040975456
 H    0.8630830072    1.9346262119    0.5072047439
 H   -0.0520832063    1.9126089551   -1.0043228987
 H   -0.8985575591    1.9168207791    0.5468620532
 H   -0.0513251911   -0.6237785591   -2.1249792920
 H    0.0470809031   -3.0834213166    1.1521235704
 H    0.9321437569    0.1956124528    2.7934218863
 H   -0.8335428859    0.1726194040    2.8343269319
 H    0.1006604816   -1.3436138106    4.3264606696