19

 O   -0.1507976031    1.4086079878    0.0107876987
 C   -0.0840077155    0.0239992668    0.0148755990
 C   -0.3887741648   -0.7950720247   -1.2060311434
 C   -1.2545791042   -0.9485258799    0.0265504279
 C   -0.5349969539   -1.8032222367    1.1038960850
 C    0.1095413604   -3.1042276075    0.7161080493
 C    1.4259159677   -2.9761437578    0.5309118203
 C    1.9380282103   -1.5684530038    0.7739454564
 C    0.6520704659   -0.7786849080    1.1064938838
 H    0.5380466763    1.7429356083   -0.5738492342
 H   -0.8604984799   -0.2227852078   -1.9989440883
 H    0.2548899530   -1.6020235383   -1.5448651643
 H   -2.3171908072   -0.7407848512   -0.0014679619
 H   -1.1086389362   -1.8557462790    2.0335814705
 H   -0.4449617660   -4.0281071342    0.5881767333
 H    2.0892747063   -3.7832171938    0.2346565848
 H    2.6670095091   -1.5455567734    1.5940192917
 H    2.4587049255   -1.1697738007   -0.1076334495
 H    0.7219878463   -0.1925842162    2.0240097511