21

 C    0.0113196169    1.5650383090    0.0336771356
 C   -0.0253124778    0.0407709980    0.1610349834
 C   -1.4317216727   -0.5451565254   -0.0565978886
 C   -1.4610121829   -2.0400907311    0.0057823620
 C   -2.0861036774   -2.8514557080    0.9150256182
 N   -1.7843586601   -4.1430760355    0.5287119737
 C   -0.9981302757   -4.0665838272   -0.5860376468
 C   -0.4718026351   -5.2671964240   -1.2998131278
 N   -0.7873089197   -2.8127095430   -0.9225118804
 H    1.0221471751    1.9546924325    0.1909877266
 H   -0.3180384471    1.8872707537   -0.9607296008
 H   -0.6469408414    2.0432476306    0.7684505798
 H    0.6549598105   -0.4157310887   -0.5661777312
 H    0.3369693578   -0.2605902259    1.1520465722
 H   -2.1232546756   -0.1363588088    0.6904904708
 H   -1.8011915661   -0.2171123266   -1.0374616686
 H   -2.7011050329   -2.6421276071    1.7747561757
 H   -2.0952476216   -4.9852115724    0.9826384391
 H   -1.2786147667   -5.9068905624   -1.6764456157
 H    0.1254264762   -4.9320861673   -2.1485709150
 H    0.1630796462   -5.8833802504   -0.6524024321