21

 C   -0.3734459441    1.4396483257   -0.0816824425
 C    0.1086094894   -0.0134236844   -0.0659573548
 C   -1.0827786128   -0.9771154811   -0.2003322412
 C    1.1476931312   -0.2997327507   -1.1669444475
 O    1.8749088670   -1.4448168497   -0.7346785055
 C    1.9224312268   -1.4419165840    0.6922521869
 C    0.9540455115   -0.3487912588    1.1876825897
 C    1.5812646229   -2.8477331639    1.1682835591
 O    1.1597463542   -3.1101917571    2.2645348785
 H    0.4638916658    2.1394333539    0.0119724675
 H   -0.9026681902    1.6704119962   -1.0129854795
 H   -1.0654470354    1.6322049694    0.7447775837
 H   -1.6571080396   -0.7615083533   -1.1078909791
 H   -0.7530086624   -2.0190729154   -0.2581538223
 H   -1.7592183179   -0.8862374157    0.6554214510
 H    0.7031106057   -0.5346579056   -2.1388834463
 H    1.8246008593    0.5606952978   -1.2933251770
 H    2.9523576056   -1.2396065395    1.0305295108
 H    1.5121647408    0.5323858156    1.5161776691
 H    0.3618584681   -0.7072944214    2.0328952234
 H    1.7667963141   -3.6292729080    0.3985083261