16

 C    0.1990501592    1.1119320384   -0.2371739569
 O   -0.7520983427    0.2987747321    0.4432365579
 C   -1.0268308358   -0.8817029765   -0.1298980943
 N   -1.8555516967   -1.6707604316    0.3972601424
 C   -2.1297412811   -2.9013889460   -0.2941414553
 C   -3.3750438983   -2.8062596831   -1.1650109391
 O   -3.8470288846   -1.7790991198   -1.5862153222
 C   -4.0354939830   -4.1328235719   -1.5667903472
 O   -3.6339921494   -5.2108208462   -1.2157510889
 H    0.3131599893    2.0147799703    0.3631636394
 H    1.1702627118    0.6095417623   -0.3189772002
 H   -0.1547964631    1.3873171626   -1.2374665707
 H   -0.4672564635   -1.0833051812   -1.0575620175
 H   -1.3207063691   -3.2324983086   -0.9746129676
 H   -2.2695403247   -3.7213139860    0.4178219268
 H   -4.9196222481   -3.9887859948   -2.2232250768