17

 C    0.1296033403    1.5235207545   -0.3389643878
 C    0.0763237595    0.0821664428   -0.1389753210
 C    0.0331123403   -1.1084207757    0.0326116537
 C   -0.0294744150   -2.5571140471    0.2242963446
 C   -1.4300846926   -3.1157465342    0.1823386596
 C   -1.9877023136   -4.0538542995    1.0267875295
 N   -3.2509062863   -4.2703918359    0.5835935451
 N   -3.5660726575   -3.5317389686   -0.4962235344
 C   -2.4631599292   -2.8313345362   -0.7416814143
 H    0.7202386622    2.0129322146    0.4435206147
 H    0.5838715545    1.7775606954   -1.3031753942
 H   -0.8732319599    1.9644717648   -0.3195551996
 H    0.5894094970   -3.0434579874   -0.5436217706
 H    0.4347929334   -2.8213893088    1.1828328343
 H   -1.5894629849   -4.5675242571    1.8879997789
 H   -3.9434463158   -4.8876989720    0.9713820493
 H   -2.4394922124   -2.1341580295   -1.5662055679