16

 C    0.0815437537    1.4476800017    0.0032512780
 N    0.0384849637   -0.0028089774   -0.0049883500
 C    0.0160908251   -0.7550333895   -1.1826643358
 O   -0.0157074218   -0.2840945715   -2.2928824205
 C    0.0307522770   -2.2040924822   -0.7817465052
 C    1.2360892517   -2.6226894415    0.0287716878
 C   -0.0417592189   -2.2170846758    0.7274569371
 C   -0.0957849419   -0.7766173521    1.1539664417
 O   -0.2330684629   -0.3347688683    2.2680431818
 H    1.0192253880    1.8073064061   -0.4290531297
 H   -0.7469440244    1.8534321651   -0.5825103367
 H   -0.0003541434    1.7712885378    1.0412350585
 H   -0.4739600203   -2.9155890240   -1.4204387667
 H    1.4741490145   -3.6803329849    0.0319692257
 H    2.0953059156   -1.9626671129    0.0755943137
 H   -0.6035174259   -2.9394431707    1.3032294502