15

 C   -0.1529704465    1.5494196654   -0.0271952304
 C   -0.0214621382    0.0336293516   -0.0433569232
 C    1.1996085985   -0.5097164435   -0.8360515152
 N    1.9433641679   -0.6341483272    0.4392693009
 C    0.6836098452   -0.5991421382    1.2081488088
 C    0.7262236268    0.1666225329    2.4551301732
 N    0.7355259374    0.7708335469    3.4404888709
 H    0.8045031581    2.0234650403    0.2078832747
 H   -0.4823614341    1.9103690723   -1.0069089007
 H   -0.8837977709    1.8770570842    0.7182435303
 H   -0.9762441573   -0.4376510966   -0.2828156998
 H    0.9866740654   -1.4644007590   -1.3361004991
 H    1.6625497937    0.1728992748   -1.5561223375
 H    2.5046791673   -1.4694215062    0.5614460260
 H    0.2600986770   -1.5882132377    1.4351837812