18

 C   -0.0707696088    1.4479465350   -0.0609952585
 C   -0.0214928032   -0.0059835212   -0.0230343976
 C    0.0281441828   -1.2093727718    0.0064094348
 C    0.0754335891   -2.6524569573    0.0239744959
 C   -0.4664915337   -3.3467541393    1.2467821105
 N   -1.2291269132   -3.3909660542    0.0034743052
 C    1.1473586148   -3.2626953760   -0.7263998217
 C    2.0559730122   -3.7630457193   -1.3368633224
 C    3.1462871893   -4.3703896684   -2.0848948514
 H    0.7913242377    1.8539714470   -0.6014164732
 H   -0.9752005754    1.8038592803   -0.5668467577
 H   -0.0621815633    1.8763921066    0.9473474930
 H   -0.0153137911   -4.2896752936    1.5402978823
 H   -0.8049449744   -2.7136344018    2.0618563264
 H   -1.9762719254   -2.7003631848    0.0328493398
 H    2.7798493337   -5.1709885878   -2.7368850387
 H    3.6502756696   -3.6320034071   -2.7181934176
 H    3.8985997389   -4.8038498760   -1.4165617593