15

 O   -0.0511102622    1.4133842485    0.0608839431
 C    0.0819077066    0.0491987544    0.0638550425
 C   -0.2349921107   -0.8170792475   -1.1763358659
 O    0.5722975502   -1.9187048579   -1.4959847997
 C    0.4673158155   -2.8487408950   -0.4075360643
 C   -0.1322072392   -2.0291604981    0.7408458983
 C   -1.0684485447   -1.0222459933    0.0200084219
 C    0.7694785705   -0.8062158197    1.0807942336
 O    1.5553513957   -0.5890443072    1.9590804108
 H    0.6495624671    1.7948004277   -0.4802099046
 H   -0.5882544680   -0.2617248830   -2.0378452972
 H   -0.1858523256   -3.6859865891   -0.6890635661
 H    1.4659525422   -3.2344270926   -0.1827000929
 H   -0.5031282546   -2.5958901775    1.5928261929
 H   -2.1301833427   -0.8755272398    0.1533928276