16

 N    0.0363151683    1.3361900509    0.0236115356
 C   -0.1440782079    0.0057741308    0.3629877131
 O    0.3766218328   -0.5152257982    1.3314719396
 N   -0.9598107596   -0.6971564981   -0.5046732209
 C   -0.9987253532   -2.1320517071   -0.3970359252
 C   -1.9875540089   -2.7706178819    0.6246488278
 N   -2.6463339428   -3.4061687974   -0.5272017217
 C   -1.8929428057   -2.7844001239   -1.4845654898
 O   -1.9440819847   -2.7270927572   -2.6852183080
 H    0.4329057935    1.8843105122    0.7712244069
 H   -0.6945483192    1.8003135814   -0.4936499004
 H   -1.0881037844   -0.3390879510   -1.4406602540
 H    0.0019942782   -2.5694059600   -0.3272060618
 H   -1.5439467227   -3.4704505159    1.3364803710
 H   -2.6081685146   -2.0373217445    1.1458511930
 H   -3.4799849291   -3.9695751199   -0.6057784951