20

 O    0.0497810755    1.4073234546   -0.1273339315
 C    0.0318054799   -0.0113271501   -0.1251759946
 C   -1.3380002505   -0.5782407806    0.2669439139
 C   -1.3905923066   -2.0787406278    0.2662155041
 C   -0.4307586271   -3.0583124202    0.9309880892
 C   -0.9866708365   -4.0615345394   -0.0953970887
 C   -2.4601240161   -4.2956647483    0.2858041125
 C   -2.6235169390   -2.8417142216   -0.1137877121
 N   -1.4170860462   -2.8733394974   -1.0191936833
 H   -0.5332252807    1.7062779958   -0.8323889505
 H    0.3339079704   -0.4251541737   -1.0984615074
 H    0.7894768475   -0.3111285491    0.6063363073
 H   -1.6143008127   -0.1926595753    1.2565962555
 H   -2.0909256823   -0.2021667540   -0.4392433826
 H    0.6088488194   -2.8015128892    0.7122404835
 H   -0.5388313984   -3.2838305445    1.9977639515
 H   -0.3686048868   -4.8577762856   -0.5052017488
 H   -2.9590683626   -4.9541268753   -0.4298420741
 H   -2.6940767114   -4.6095019256    1.3087847012
 H   -3.5321815858   -2.3304067328   -0.4136384952