17

 C    0.0877854753    1.3953440962   -0.0758399446
 N    0.0039032417   -0.0395820132    0.0125992868
 C   -1.1361631993   -0.9658522288   -0.0041038289
 C   -0.1026375835   -2.1318407817   -0.0280225770
 C   -0.0090712346   -3.0293079798   -1.2614978061
 O    1.2152703549   -3.7323925566   -1.2639752765
 C    0.9590824330   -1.0160941338   -0.0585528425
 O    2.1623111674   -0.9846704102   -0.1849953788
 H    1.1457884793    1.6643660172   -0.1199472585
 H   -0.4102474474    1.7721440541   -0.9778761073
 H   -0.3648047939    1.8782906634    0.7980705732
 H   -1.7740396212   -0.9102350151    0.8839326997
 H   -1.7555204164   -0.8792129525   -0.9050959322
 H   -0.0758285406   -2.7320242912    0.8843205350
 H   -0.8075753795   -3.7790302912   -1.2661571700
 H   -0.1311728333   -2.4143770385   -2.1701665230
 H    1.9169801281   -3.0802636981   -1.1283198395