17

 O   -0.0906978908    1.4625862913   -0.0893499094
 C    0.0351861288    0.1033683483   -0.0317571363
 C    0.0521904869   -0.9995194616   -1.0584981923
 C    1.2714254701   -1.6601985347   -0.4262258327
 C    0.8976346956   -0.8999608300    0.8747376306
 C   -0.4515370726   -1.5663138339    1.3167516810
 C   -0.9996671186   -0.9233486663    2.5602529249
 O   -1.4067909720   -1.5239639139    3.5230127261
 C   -1.0420201745   -0.9346686775    0.0515841142
 H    0.6657416579    1.8268718966   -0.5636029233
 H   -0.2468175510   -0.9576221238   -2.0978841142
 H    1.3055515240   -2.7530644550   -0.3666980303
 H    2.2039339021   -1.2863526434   -0.8587456625
 H    1.6507486778   -0.6397134202    1.6154616257
 H   -0.4594300095   -2.6546627716    1.4244717213
 H   -1.0003883015    0.1909771325    2.5319699697
 H   -2.0848080127   -0.8300937870   -0.2178104426