20

 O   -0.1633378156    1.4469617412    0.1279159736
 C   -0.0043727533    0.0314072650    0.0249927439
 C    0.8857342292   -0.4914703994    1.1751257573
 C    1.6787133792   -1.7579508735    0.8467311448
 O    0.8682101619   -2.7843553841    0.2655766600
 C   -0.1900637067   -3.1722437741    1.0463325809
 N   -1.3895155972   -2.8729611508    0.8171668866
 C   -1.6610056594   -1.9873378521   -0.3221047333
 C   -1.4472542939   -0.5006226561    0.0062150147
 H    0.7095467114    1.8504170289    0.0932185761
 H    0.4760076341   -0.2227448876   -0.9352823532
 H    1.6203443240    0.2836928819    1.4301902954
 H    0.2766279737   -0.6376508581    2.0741017232
 H    2.4437290122   -1.5527796080    0.0922905999
 H    2.1853659440   -2.1358727395    1.7473858766
 H    0.0781771060   -3.7991936013    1.9011653775
 H   -1.0592477499   -2.2649814274   -1.1959622979
 H   -2.7132078146   -2.1261720171   -0.5856152497
 H   -1.9156027178   -0.2692555442    0.9701500525
 H   -1.9761719275    0.0921194864   -0.7475802791