16

 C    0.0034885317    1.4461811004   -0.2132263096
 C    0.1179010152   -0.0346111295    0.1739692309
 C    0.7151300623   -0.1791771469    1.5110540872
 N    1.1959083248   -0.2766932429    2.5563194538
 N   -1.2220649361   -0.6376749663    0.1937374972
 C   -1.7644176704   -1.0849228626   -1.0761792361
 C   -1.3519820532   -2.0841331908   -0.0341336909
 C   -0.1927418173   -2.9029163506   -0.2980341443
 N    0.7385256882   -3.5580542940   -0.5011884372
 H    0.9879026814    1.9187649461   -0.1949040683
 H   -0.4063829391    1.5319827911   -1.2230253012
 H   -0.6563017887    1.9691343235    0.4821056325
 H    0.7879513010   -0.5449764657   -0.5368629358
 H   -2.8198384409   -0.8899852503   -1.2385283055
 H   -1.1346576114   -1.0239084912   -1.9619568345
 H   -2.1060575574   -2.5664712899    0.5801558017