18

 N    0.7085240098    1.0389851484    1.0937110083
 C    0.4141248419   -0.0153958904    0.2613006344
 N    1.1843331501   -0.6544852019   -0.5346963835
 C    2.5836705909   -0.2564357017   -0.5612136202
 C    3.4030975574   -0.8578581044    0.6145951807
 C    4.3908788986    0.1361307907    1.2080229421
 O    3.6303789812    1.1791031414    1.8282292870
 C   -0.9877327819   -0.4042927189    0.2827983482
 N   -2.1065438190   -0.6903986090    0.3304426074
 H    1.6721568325    1.1946253966    1.3730519210
 H    0.0052680312    1.3145812931    1.7591892788
 H    3.0054495613   -0.5993671738   -1.5101149331
 H    2.6839868649    0.8396427329   -0.5435136757
 H    2.7243238674   -1.1801496428    1.4111475168
 H    3.9429052037   -1.7510324882    0.2865374780
 H    5.0323072716   -0.3565725869    1.9521480452
 H    5.0400902127    0.5492961527    0.4223886982
 H    4.2062769557    1.9261208522    2.0122259964