18

 C   -0.0115339070    1.4873449764    0.0834414201
 C    1.4688223643    1.8979047669   -0.0365609083
 C    2.1615981225    1.8750658169    1.3299726161
 O    2.2538580201    0.6028810709    1.9887765142
 C    1.2895026841   -0.3565009652    2.0439168455
 N    0.3382059857   -0.6996516662    1.2860800002
 C    0.0610091014   -0.0507886962    0.0042031112
 C    1.2351140190   -0.2488238756   -0.9509686477
 C    2.0162203088    0.8283482316   -0.9650059249
 H   -0.4945477123    1.8355413930    1.0007764673
 H   -0.5760898821    1.8707152257   -0.7722907403
 H    1.5912997520    2.9152757238   -0.4269534449
 H    3.2031466520    2.1978479993    1.2399095126
 H    1.6499271418    2.5717179990    2.0083738909
 H    1.4758089280   -0.9485350988    2.9410767231
 H   -0.8684664798   -0.4846260501   -0.3742913773
 H    1.4180270060   -1.1875086961   -1.4594025783
 H    2.9574596156    0.9301138048   -1.4933523794