17

 N   -0.0499108620    1.5554450724    0.1836602992
 C   -0.0164634940    0.1111811322    0.0260976407
 C   -1.4511860239   -0.4519348649    0.1399720821
 C   -2.0335673907   -0.2354422890    1.4611884815
 N   -2.4977217485   -0.0972630302    2.5099959323
 C    0.6063517662   -0.3675198127   -1.3152506648
 O   -0.2187963112    0.1655611877   -2.3492526273
 C    1.9955271233    0.0736911717   -1.4416284628
 C    3.1346215327    0.4413236406   -1.5560665705
 H    0.8957790398    1.9146236497    0.2704790829
 H   -0.4415399732    1.9688654823   -0.6590326796
 H    0.5896093032   -0.3098341916    0.8345353445
 H   -2.0848869216    0.0187692343   -0.6180546934
 H   -1.4544065031   -1.5279520437   -0.0678549937
 H    0.5852262950   -1.4695727763   -1.3427108481
 H    0.2507257802    0.0839287607   -3.1852233256
 H    4.1438921679    0.7580370468   -1.6575684272