19

 C   -0.0963014132    1.5703233181   -0.1419917004
 C    0.0837320995    0.0718328709   -0.0788798960
 C    1.4415644830   -0.5794606122   -0.2180180667
 O    2.5643151384    0.2634084576   -0.2446983037
 C    3.4064025923    0.0585981285    0.8598606684
 C    3.5589816969    1.2074486519    1.8221463212
 C    2.6930034298    0.0286683810    2.1820102620
 O    1.3037568031    0.2100098176    2.0914576184
 C    0.7254722248   -0.6096201220    1.1088541114
 H   -0.1704755059    1.9063372911   -1.1811999383
 H   -1.0112860383    1.8710714353    0.3783222492
 H    0.7430883860    2.0872618087    0.3222608894
 H   -0.7232681701   -0.5032782577   -0.5274099035
 H    1.5486178480   -1.4867421016   -0.8096039069
 H    4.2475363194   -0.6051191927    0.6707961196
 H    4.5066732207    1.3245770077    2.3362731950
 H    3.0480149149    2.1284346635    1.5671552341
 H    3.0097382449   -0.6570260895    2.9651257188
 H    0.3071890758   -1.5390902962    1.4905832481