15

 N    0.2431651044    1.1704181767    0.6029825210
 C    0.0648437082   -0.1280539081    0.1311457818
 N   -1.0935284858   -0.5051901813   -0.3979248019
 N   -0.9249908626   -1.8355981960   -0.6535890792
 C    0.3080839862   -2.2636415582   -0.3232410260
 O    0.6342862355   -3.5574020298   -0.5692367361
 C    1.4589995948   -4.1833628586    0.3224486958
 N    1.9320157024   -5.3080771240    0.0223551008
 C    1.0033984037   -1.1939403365    0.1996807357
 H    1.1589867993    1.5493637432    0.4033209641
 H   -0.4804713064    1.7897143279    0.2600156767
 H   -1.6634557482   -2.3710469161   -1.0751691070
 H    1.6017533248   -3.6066323903    1.2419984296
 H    2.4990719779   -5.6648170032    0.7887974781
 H    2.0205124958   -1.1735845556    0.5522943767