21

 C    0.1248494945    1.5015059602    0.2023884622
 C   -0.1329513508    0.0073147050   -0.0360393391
 C    0.6488878809   -0.5453813581   -1.2130250399
 O    0.3238954719    0.0583977204   -2.4468187721
 C    2.0884747934   -1.0203741635   -1.1238341394
 C    2.6550844123   -1.4327555070    0.2226000347
 O    1.6964197070   -2.3066499576    0.8180534758
 C    0.9268014876   -2.9330907929   -0.2086756712
 C    0.9621261971   -2.0030195242   -1.4055168198
 H    1.1848795795    1.6979160917    0.3980645172
 H   -0.1782026987    2.1047959557   -0.6606240547
 H   -0.4448570914    1.8632650850    1.0631403743
 H    0.1151438884   -0.5581595310    0.8649379301
 H   -1.2002040107   -0.1497001676   -0.2356584501
 H    0.6637587641    0.9594201022   -2.4317683896
 H    2.7711284057   -0.7184933233   -1.9097988829
 H    3.6196259964   -1.9447812585    0.0747686856
 H    2.8146613968   -0.6081118836    0.9263904118
 H    1.3585131914   -3.9072039527   -0.4877015072
 H   -0.0730760964   -3.1091962958    0.2029882422
 H    0.8121394007   -2.4139515844   -2.3965743478