18

 C   -0.5577600282    1.4265775999    0.4177947615
 N   -0.2885944830    0.0159046870    0.1737373328
 C    0.7612937299   -0.4875083978    0.6644721960
 C    1.1184202526   -1.9408268378    0.4351604817
 C    1.6659614344   -2.5823940870    1.7008038194
 O    3.0699675410   -2.8482314093    1.7249428761
 C    2.5776062810   -1.7445856705    2.4909159616
 C    2.8270546166   -0.3650620310    1.9106964721
 O    1.6157997746    0.2483141560    1.4383634308
 H    0.2929947860    2.0676501369    0.1537445550
 H   -1.4239452674    1.7310184922   -0.1746569855
 H   -0.7839150003    1.6145026943    1.4757453938
 H    0.2289089418   -2.4442248683    0.0578436050
 H    1.8945983728   -2.0095142956   -0.3369623544
 H    1.0537730143   -3.3317462764    2.1972612094
 H    2.6514160902   -1.8662833511    3.5689592407
 H    3.2175298099    0.3291243082    2.6571363878
 H    3.5532179339   -0.4458356599    1.0933106261