18

 C    0.1388282012    1.3036274985    0.2130704820
 N   -0.0776196220   -0.1134765939    0.0004809143
 C    0.5762394082   -0.7181644284   -1.0679758081
 C    1.1931175656   -0.1553314405   -2.1702561635
 N    1.6325478288   -1.2055143865   -2.9289294682
 N    1.3625934666   -2.3999377626   -2.3898945865
 C    0.7091367264   -2.1218325293   -1.2620533424
 C    0.2133207851   -3.1854756475   -0.3380295675
 O    0.6237441872   -2.9507804248    1.0165099955
 H    1.2031560902    1.5799600608    0.3064780658
 H   -0.2807385183    1.8751290901   -0.6232911525
 H   -0.3820897518    1.6168349677    1.1209389771
 H   -0.0021450109   -0.6771218276    0.8374096040
 H    1.3472836868    0.8673525562   -2.4709821707
 H    2.1288818325   -1.1636958759   -3.8015165596
 H   -0.8815480886   -3.1897183070   -0.2945533059
 H    0.5409617734   -4.1685461950   -0.6996541769
 H    1.5871218197   -2.9320834243    1.0174690831