19

 C   -0.1332275598    1.5986681020    0.0441279048
 C   -0.0078004658    0.0779856456    0.0086915834
 C   -1.3799145211   -0.5866811540    0.1284757974
 C    0.8905079756   -0.6235393023   -1.0658653331
 C    2.2492760798    0.0932911416   -1.0244598917
 C    2.3598486738    0.1202473368    0.5200649679
 O    3.2068191585    0.5941616446    1.2232460213
 C    1.0714269072   -0.6331902072    0.8916771483
 O    1.1343644715   -1.7052205582   -0.1030174634
 H    0.8275780626    2.1185593620    0.0283720103
 H   -0.7226059843    1.9527648530   -0.8088786011
 H   -0.6570803368    1.9114933923    0.9535725865
 H   -2.0233243250   -0.2795074929   -0.7039776346
 H   -1.2947223129   -1.6744140684    0.1167600791
 H   -1.8766289755   -0.2844797589    1.0565894407
 H    0.4961615343   -0.9636018746   -2.0239870354
 H    3.0368592320   -0.5188968310   -1.4705244632
 H    2.2868932949    1.0942732785   -1.4604651907
 H    0.9207750211   -0.9529230689    1.9214674435