15

 C   -0.0157926289    1.5207139825    0.0505201151
 C   -0.0032863095    0.0251651396   -0.0636726626
 C   -0.0363856822   -0.6627885870   -1.2420807064
 C   -0.0194317430   -2.0856310858   -1.2071373141
 C    0.0287736800   -2.7735822207   -0.0328239075
 C    0.0653275639   -2.0857731454    1.2426201388
 O    0.1091611134   -2.5843888968    2.3554806861
 N    0.0449025763   -0.6802253890    1.1046144943
 H    0.8823599177    1.8850139179    0.5628634288
 H   -0.0559531029    1.9814790594   -0.9376207915
 H   -0.8831816608    1.8654868236    0.6255380703
 H   -0.0747661517   -0.1254995259   -2.1799586851
 H   -0.0458963301   -2.6303923716   -2.1464873770
 H    0.0420404063   -3.8555786875    0.0058076874
 H    0.0699830815   -0.1885000634    1.9884321435