16

 O    0.0631543765    1.3160377982   -0.3055395442
 C    0.0607448755   -0.0836936246   -0.0666535282
 C    0.2478834130   -0.5084852914    1.4079565748
 C   -1.3140000231   -0.5707085272    1.5693258463
 O   -1.8867941240   -1.6855706916    2.1956745320
 C   -1.8406857776    0.6940790080    2.0967351433
 N   -2.2050545877    1.7099623088    2.5135684576
 C   -1.3966826077   -0.6315010162   -0.0056697770
 O   -2.3688955342    0.0776698625   -0.6864715750
 H   -0.1394186742    1.7894517655    0.5097882148
 H    0.7258261922   -0.5260027748   -0.8093471156
 H    0.6570239688   -1.5175172977    1.4939435764
 H    0.8031736285    0.1710360636    2.0577453901
 H   -1.8057615873   -1.5937983695    3.1521163931
 H   -1.4571204322   -1.6922452077   -0.2697427968
 H   -1.9992451865    0.9613639640   -0.8347164316