18

 C    0.0103180550    1.5281158009   -0.0101391928
 C   -0.0365548939    0.0215264637    0.0687930557
 C   -1.2610805419   -0.6570246936   -0.5195905545
 C   -1.2303628464   -2.1651571004   -0.2604129805
 O   -1.0607644608   -2.4302924382    1.1225934778
 C    0.2214992832   -2.0664171843    1.5985922189
 C    0.6983613360   -0.7065423374    1.1183404594
 O    1.2021515972   -0.6467274982   -0.2264400158
 H    0.9429810818    1.9080384650    0.4144400207
 H   -0.0511924623    1.8593280285   -1.0527901606
 H   -0.8299483665    1.9735032225    0.5328989647
 H   -2.1589914217   -0.2255522494   -0.0613374637
 H   -1.3140228390   -0.4570500263   -1.5974083201
 H   -2.1789286224   -2.6269001116   -0.5471646091
 H   -0.4242175623   -2.6301154291   -0.8464139862
 H    0.1490583885   -2.0657680152    2.6910600590
 H    0.9725385070   -2.8203631819    1.3083658669
 H    1.2939238282   -0.1391756350    1.8347261400