19

 C    0.0035143197    1.5321950537    0.0288988997
 C   -0.0324105121    0.0097712060   -0.1198824199
 C   -1.4365827014   -0.5716255867    0.1118071147
 C   -1.4716831102   -2.0599466850   -0.0012269696
 C   -1.5979642644   -2.9279552359   -1.1982013097
 C   -2.5851198940   -3.0843397809   -0.0252601176
 C   -1.8330061421   -3.7152580684    1.1124024252
 O   -1.9814511908   -4.5912855414    1.8999797815
 O   -0.7654209495   -2.8271461836    1.0319501399
 H    1.0129365476    1.9212304664   -0.1336927973
 H   -0.6618078578    2.0189973790   -0.6931143330
 H   -0.3144126042    1.8396503199    1.0312040379
 H    0.3142068094   -0.2768417962   -1.1202974504
 H    0.6614995989   -0.4523513143    0.5913104586
 H   -1.7982426402   -0.2830542896    1.1064296204
 H   -2.1415710946   -0.1538302425   -0.6176737596
 H   -2.0403737942   -2.4732254641   -2.0800005013
 H   -0.8612206937   -3.7001229976   -1.3942352428
 H   -3.6559058864   -2.9924236587   -0.1332902568