12

 O   -0.0123677251   -0.0865209682    0.5339327136
 C    0.5100966400    0.5138349589   -0.3685331230
 C    1.3361381698    1.7451811185   -0.1178388194
 O    2.3056077998    2.0718110328   -1.1053905516
 C    1.2288223718    2.9693185879   -0.9738313643
 C    0.2597798857    3.0379759499   -2.1235020672
 O    0.1507168424    2.2067149325   -2.9864388974
 C   -0.5823946726    4.2498780789   -2.1131768633
 N   -1.2348796576    5.2040314922   -2.0851799843
 H    0.4417844685    0.2061667942   -1.4284528904
 H    1.6316780735    1.8967414364    0.9196439318
 H    1.4513852736    3.9250645559   -0.4992137945