12

 C    0.0206247354   -1.1955919213   -0.0036105670
 C    0.0103693762    0.0072273307    0.0028501394
 C   -0.0230725673    1.4223900061    0.0107585955
 C   -1.1486346667    2.2301732972    0.0310009992
 N   -0.6847293309    3.5102061796    0.0310970403
 C    0.6863441576    3.4444460562    0.0113018688
 N    1.1134316061    2.1986850508   -0.0013378530
 C    1.4890542668    4.6147763224    0.0060332644
 N    2.1034939926    5.5956844179    0.0024408171
 H    0.0403732609   -2.2573675142   -0.0094643288
 H   -2.1991252023    1.9941932552    0.0446888804
 H   -1.2382783283    4.3521633994    0.0433984538