20

 O    0.0472950975    1.4413635004   -0.0745916746
 C    0.0297488111    0.0473454218    0.1420617286
 C   -1.3881736856   -0.5096422236   -0.0028941421
 O   -1.9277257454   -0.0707421006   -1.2606652589
 C   -1.4671877266   -2.0211993375    0.1306453379
 C   -1.1706282309   -2.6907368683    1.5283753252
 C   -2.5763059652   -3.2989188269    1.4861040759
 N   -3.5095642005   -2.1489224874    1.4195747946
 C   -2.8695926241   -2.6499340422    0.1799972858
 H   -0.5825284537    1.5906205059   -0.7924964775
 H    0.6970125567   -0.4782834538   -0.5685489791
 H    0.4183272875   -0.1384486615    1.1493220005
 H   -2.0347105330   -0.0474931672    0.7488704708
 H   -1.4572763196   -0.5422033455   -1.9592159799
 H   -0.8565843889   -2.4972124709   -0.6469680956
 H   -0.3670379155   -3.4274369971    1.4738871395
 H   -0.9905334275   -2.0113763863    2.3654931677
 H   -2.8998323130   -4.2533635550    1.8821096945
 H   -4.4576175303   -2.5233142119    1.4365843050
 H   -3.4713131629   -2.9878705325   -0.6542408183