23

 C    0.0845916167    1.5779728334   -0.1609500709
 C    0.0143354088    0.0878437256    0.2051463489
 C   -1.3850834572   -0.5241164606    0.0756839302
 C   -2.3501275383    0.0635907681    1.1106842307
 C   -2.0531920845   -0.6866671617   -1.3289819526
 C   -0.9959395710   -1.3902874265   -2.2054816668
 C   -0.6095296548   -2.5108953023   -1.1846769518
 C   -1.5586557796   -2.0745619701   -0.0514740212
 O   -2.7914175389   -1.8334664309   -0.8010381529
 H    1.1134254944    1.9444107240   -0.0927766971
 H   -0.2601601455    1.7518932811   -1.1864579397
 H   -0.5276726955    2.1944386465    0.5031441904
 H    0.7322026402   -0.4534748438   -0.4166579624
 H    0.3551397478   -0.0462675233    1.2404341635
 H   -2.4843170114    1.1401886283    0.9658194752
 H   -3.3295861577   -0.4112070579    1.0420426382
 H   -1.9617262010   -0.0843016440    2.1250963767
 H   -2.6876799044    0.0799635311   -1.7765082774
 H   -1.4499830942   -1.7899457095   -3.1142633569
 H   -0.1619226056   -0.7443228291   -2.4912301874
 H   -0.8739043917   -3.5085653677   -1.5406644150
 H    0.4465158493   -2.5148113598   -0.9043260902
 H   -1.6857059862   -2.7253585210    0.8153730485