18

 C   -0.0457099960    1.5221923223   -0.1002319897
 C    0.0073195435    0.0212149586    0.0422061304
 N    1.3485978249   -0.6180784149   -0.1223221215
 C    0.6823727996   -0.6653141046    1.1516378344
 C    1.1676350075   -0.1919242773    2.5483556101
 O   -0.0641853851   -0.7928860858    3.0714411840
 C    0.2000065978   -1.8238561450    2.0657725585
 C    1.5465029090   -2.3927258699    2.5498276554
 C    2.2055923320   -1.2776544188    2.8770036119
 H    0.8456889560    1.9808410795    0.3355983825
 H   -0.0928874285    1.8130221805   -1.1549956359
 H   -0.9287829984    1.9276119549    0.4049555563
 H   -0.8389376958   -0.5106871637   -0.3930484529
 H    1.2856601223   -1.5062730165   -0.6136634189
 H    1.3305713274    0.8455070953    2.8333103154
 H   -0.6408965762   -2.4807548148    1.8457424527
 H    1.8468763627   -3.4293855609    2.5805835345
 H    3.2078162473   -1.1304416689    3.2502702629