16

 C   -0.5956193747    1.2783433695    0.1210125279
 C    0.2033797873    0.0073005994   -0.0577961593
 C    1.0817714187   -0.1378079872   -1.3249555108
 C    2.2407240625   -0.2987709751   -0.3017467541
 O    1.3837116446   -0.0318890326    0.7975890861
 C    2.8351428631   -1.6957848777   -0.2673311883
 O    2.5569648456   -2.5573065642    0.5219855192
 C    3.8096559330   -1.9403162810   -1.3594175087
 N    4.5580753376   -2.1019548420   -2.2260653621
 H    0.0210928098    2.1594199081   -0.0808189134
 H   -1.4532956153    1.2857958888   -0.5602824925
 H   -0.9728676379    1.3480018603    1.1457448024
 H   -0.4206885561   -0.8741300098    0.1341209148
 H    0.8762773671   -0.9941468758   -1.9684460558
 H    1.1551641515    0.7655264460   -1.9315700835
 H    3.0613916132    0.4260517232   -0.3956947916