15

 C    0.1733767433    1.5263047190    0.1832286456
 C   -0.0868954955    0.0278290196   -0.0217428426
 O   -1.4742840421   -0.2380821506   -0.1174008716
 C    0.6499364802   -0.4900778630   -1.2260776172
 N    0.0017361502   -0.9487631145   -2.2851651244
 N    1.0123993512   -1.2786173309   -3.1252847115
 C    2.1984015043   -1.0119707897   -2.5449698995
 N    2.0109215023   -0.5094855013   -1.3412918020
 H    1.2427138677    1.7188237816    0.3075670624
 H   -0.1903675911    2.0953579899   -0.6781032797
 H   -0.3587434432    1.8685992229    1.0745235990
 H    0.2952704622   -0.5106627170    0.8570694602
 H   -1.6664794474   -0.4483754536   -1.0389686300
 H    0.8101085695   -1.6725798981   -4.0292964089
 H    3.1473204883   -1.1980180145   -3.0255847997