25

 C    0.4096099467    2.2789477551   -0.7939265968
 C    0.0456189668    0.7860021793   -0.7654715684
 C    0.0261586795    0.2708717324    0.6860378939
 C   -1.3567937395    0.6163385177   -1.3919293091
 C    0.9821513113   -0.1194943565   -1.5702907868
 O    1.4518621274    0.3011113321   -2.8559554650
 C    2.4320628560   -0.0512215007   -1.8567362002
 C    3.3644150370    1.0552836421   -1.4084172874
 C    3.1465957389   -1.3603458130   -2.1410378892
 H    1.2808611974    2.5038098569   -0.1739482077
 H    0.6109422404    2.6105721750   -1.8159459694
 H   -0.4259529353    2.8689924310   -0.4029701422
 H   -0.7032494081    0.8278735762    1.2837517369
 H   -0.2497541122   -0.7887317973    0.7308791683
 H    1.0065535783    0.3834667551    1.1607445392
 H   -1.3622064214    0.9625754786   -2.4302223749
 H   -1.6727010126   -0.4325267596   -1.3849950974
 H   -2.1011940442    1.1947954658   -0.8348793412
 H    0.5839892682   -1.1403318520   -1.5864243304
 H    2.8905719764    2.0329811058   -1.4437737497
 H    3.7240167042    0.8727016896   -0.3896240490
 H    4.2418395583    1.0828396523   -2.0643517358
 H    3.9018836019   -1.2175892078   -2.9217895866
 H    3.6589965145   -1.7269838042   -1.2445695688
 H    2.4462643898   -2.1272967338   -2.4800612424