22

 C   -0.3732973550    1.5256141918    0.1144431077
 C    0.1173629593    0.0924226238    0.0190064539
 C   -0.6847788604   -0.7587790267   -0.9493853932
 C    1.6040663907   -0.1707278787    0.1109546166
 C    0.6803307685   -0.6098307967    1.2375689270
 C    0.7391174468    0.0202668617    2.6147210220
 C    1.7208345450   -0.6179407837    3.6041863476
 N    2.8420272623   -1.1609076997    3.0485788273
 O    1.5245732440   -0.6054983111    4.8035923064
 H    0.2455554077    2.1388986792    0.7738295751
 H   -0.3636919659    1.9972858134   -0.8749370347
 H   -1.4030349266    1.5666997371    0.4885182830
 H   -0.6492061671   -0.3413499640   -1.9626015245
 H   -0.3016071212   -1.7828482921   -0.9967627343
 H   -1.7379191133   -0.8095493763   -0.6488893435
 H    2.0386553390   -0.9256481093   -0.5374340431
 H    2.2528577549    0.6806636734    0.2971781123
 H    0.4711426002   -1.6773311330    1.2660949858
 H    1.0143973659    1.0791256725    2.5453694844
 H   -0.2375749533   -0.0108179657    3.1065173038
 H    2.9771220551   -1.1969723177    2.0536743417
 H    3.5207191433   -1.5828175181    3.6601659088