17

 C   -0.0170366375    1.4659116096    0.0820469190
 C    0.0038564715   -0.0152737979    0.0133097934
 C   -0.0090349306   -0.8672524657   -1.0302027632
 C   -0.0564838726   -0.6104071703   -2.4134964573
 N   -0.1038819807   -0.4142289319   -3.5558803522
 C    0.0567573251   -2.2410917659   -0.3360911868
 C   -1.0078206884   -2.0445777230    0.7872273680
 C    0.0704728504   -0.9891693874    1.1982593186
 N    1.1499669888   -1.9335449790    0.6781588692
 H    0.8875233042    1.8423466560    0.5759420566
 H   -0.0784387794    1.9105512697   -0.9140242955
 H   -0.8686714364    1.8212780711    0.6756285260
 H    0.1454772154   -3.1346270158   -0.9510597701
 H   -2.0102426798   -1.7032760838    0.5121474734
 H   -1.0587430245   -2.8885493099    1.4823652749
 H    0.1734437862   -0.5816311320    2.2034767632
 H    1.1882626482   -2.7264395437    1.3259268329