17

 C   -0.0212711148    1.4875240316    0.0435976347
 C   -0.0353051030   -0.0000884626   -0.0263400660
 C   -0.0765535532   -0.8474269642   -1.0599351391
 C   -0.0180495498   -2.2053011037   -0.4002804041
 C   -0.8862140483   -2.1734606244    0.8964976495
 C    0.1959710953   -3.0345876971    1.5523780133
 N    1.0502772277   -2.0615912769    0.7355844422
 C    0.0411478379   -0.9472135963    1.1609593396
 H    0.8934647307    1.8527882521    0.5272958853
 H   -0.0797557376    1.9347544509   -0.9523639797
 H   -0.8615259919    1.8694897287    0.6373830624
 H   -0.1063383353   -0.6423217388   -2.1208385232
 H    0.0607374272   -3.1133881523   -0.9996872641
 H   -1.9797024387   -2.2264159588    0.9813458587
 H    0.3448191749   -2.9448608002    2.6324235778
 H    0.2935310481   -4.0756979330    1.2307880685
 H    0.1794179208   -0.5525792050    2.1696530642