17

 O   -0.1379998002    1.0496075018    1.3509323422
 C    0.0238037713    0.0369837194    0.4114518069
 C   -0.6277143032   -1.2862836060    0.6930223788
 C   -1.1724313026   -0.3994823237   -0.4165791299
 C   -2.4416219590    0.3365686195   -0.2583346127
 C   -2.8351116997    1.5896937286   -0.6735962623
 N   -4.1295905733    1.8581462131   -0.2918746893
 C   -4.5255032417    0.7849312875    0.3516502619
 N   -3.5467912856   -0.1621095281    0.4032887882
 H   -0.7889583852    1.6753646574    1.0065431210
 H    0.9943606644    0.0376351648   -0.0810657831
 H   -0.1214270728   -2.2020705358    0.4097485715
 H   -1.1859299818   -1.3362185509    1.6216307240
 H   -0.9441398413   -0.7201657138   -1.4295483254
 H   -2.2589788031    2.3021295590   -1.2463598789
 H   -5.4962246039    0.6359099894    0.8007328266
 H   -3.6046593323   -1.0700471320    0.8338222705