16

 C    0.0084050555    1.5169132664   -0.0170889891
 C    0.0439373295    0.0114065928   -0.0378546651
 C    0.4674578556   -0.7430070468   -1.2907804643
 O    0.3563054348   -2.1202125895   -0.8698639813
 C   -0.0792450442   -1.9995402271    0.4569787945
 C    0.6092487969   -0.8061534616    1.1788547136
 O   -0.5997562014   -0.5524038611    1.9664685941
 C   -1.1016824380   -0.8388114988    0.6201912911
 H    0.9974895006    1.9411919169   -0.2219283720
 H   -0.6835455444    1.9090768275   -0.7705296535
 H   -0.3193971800    1.8622145483    0.9671289740
 H   -0.1934183579   -0.5624690507   -2.1477339501
 H    1.4999222928   -0.5301378935   -1.5947957032
 H   -0.2199677584   -2.9613990288    0.9441802241
 H    1.5760844512   -0.7319751215    1.6776342510
 H   -2.1784483726   -0.8036486027    0.4516867462