17

 O   -0.1491778234    1.4744471306   -0.0727116318
 C   -0.0457752750    0.0805279222   -0.0573183077
 C   -0.4151485728   -0.6682100537    1.1952723110
 C   -1.3374759648   -0.6881395174   -0.0136348140
 C   -2.6330321644    0.0423786122    0.0476209575
 O   -3.4341023171    0.0463982553   -1.1342283707
 C   -3.9383144874   -0.6587901473    0.0133186207
 C   -4.0441450997   -2.0906655353   -0.0776777442
 C   -4.1603916293   -3.2862035934   -0.1298381937
 H    0.5770416286    1.8325247632    0.4481726617
 H    0.7490724724   -0.3271240495   -0.6812413980
 H    0.1171059493   -1.5762242741    1.4550162394
 H   -0.7304518478   -0.0652226329    2.0410475453
 H   -1.3775658392   -1.6072822592   -0.5870310736
 H   -2.6014952764    0.9997242893    0.5657850667
 H   -4.7860908542   -0.1697879449    0.4935772534
 H   -4.2623979487   -4.3419987852   -0.1839292820