19

 C   -0.0612478322    1.5141738449    0.0144197430
 C    0.0752553172    0.0042208243   -0.0027269181
 O    1.1498455653   -0.5580488798   -0.0221052158
 C   -1.1737344576   -0.7333498594    0.0056126801
 C   -2.2170502230   -1.3415226905    0.0126298327
 C   -3.4552896567   -2.1066130310    0.0205568661
 C   -3.2323923367   -3.6307113638    0.0143448347
 C   -4.5476950919   -4.3992844383    0.0225614000
 O   -4.2369946098   -5.7814304517    0.0162917528
 H    0.9293117499    1.9713288368    0.0063564083
 H   -0.6370387330    1.8495403454   -0.8549765230
 H   -0.6143971264    1.8315673945    0.9050075634
 H   -4.0447320602   -1.8179510227    0.9017729183
 H   -4.0586411404   -1.8129612833   -0.8495406256
 H   -2.6549995502   -3.9172899835   -0.8700899316
 H   -2.6410750601   -3.9224305299    0.8878360775
 H   -5.1344781171   -4.1233086261    0.9150000711
 H   -5.1484208037   -4.1183851343   -0.8589967675
 H   -5.0605734834   -6.2776456217    0.0213370536