18

 C   -0.1414105401    1.4273553382   -0.2111986235
 C    1.2675501435    1.0129314323    0.0760896168
 C    0.1691743052   -0.0346419577    0.0543958296
 C   -0.2821005741   -0.7051221366    1.2992909080
 C   -0.3452992109   -0.0618247143    2.5409391252
 C   -0.7806038297   -0.7675144780    3.6559209017
 N   -1.1548382590   -2.0506028889    3.6350570208
 C   -1.0940741870   -2.6629794404    2.4500969677
 C   -0.6732003728   -2.0468474176    1.2764377473
 H   -0.6888702142    1.9647581507    0.5554007999
 H   -0.4050638881    1.7057046792   -1.2254254771
 H    1.9830687421    1.0032208549   -0.7385207902
 H    1.6939104667    1.2640365661    1.0411554828
 H    0.1560762462   -0.6825240864   -0.8159183232
 H   -0.0603735061    0.9795228920    2.6500554011
 H   -0.8309592823   -0.2707305635    4.6224903000
 H   -1.3987474313   -3.7072638846    2.4336603017
 H   -0.6498896880   -2.6091351257    0.3481513115