21

 C   -0.1629219097    1.4553324375   -0.0489445130
 C   -0.0000204299   -0.0391682612   -0.0054436459
 C    0.6714994825   -0.9643207979   -1.0756623389
 C    0.1772051036   -1.9360731608    0.0360916043
 C    0.7207217786   -0.9102697743    1.0718050122
 C   -1.1262297921   -1.1079760354    0.0518386373
 C   -2.2594679338   -1.1925982792    1.0904915407
 C   -3.1759173789   -1.3199206884   -0.1402349795
 O   -2.0556425657   -1.2077578923   -1.0417994741
 H    0.8053915678    1.9598914031   -0.1346978692
 H   -0.7743357743    1.7493686663   -0.9088861998
 H   -0.6533770635    1.8287683520    0.8575184822
 H    0.1746982776   -1.0322482295   -2.0442171744
 H    1.7558931958   -0.8642333807   -1.1787915422
 H    0.2747166356   -3.0217612523    0.0634191750
 H    1.8081315101   -0.8092588161    1.1124317409
 H    0.2863432070   -0.9272485652    2.0757999403
 H   -2.2295475083   -2.0618245107    1.7503262142
 H   -2.4077285203   -0.2923438108    1.6907734124
 H   -3.6909181857   -2.2816483773   -0.2504953439
 H   -3.8991342064   -0.5093290667   -0.2868398586