19

 C   -0.0051426959    1.3943579939   -0.0359500779
 N    0.0343526675   -0.0475883380    0.1254863020
 C   -1.1924077773   -0.7263481067    0.0378726826
 C   -2.4618517526   -0.1844736343    0.0101064559
 N   -3.3567149634   -1.2361028157   -0.0089739762
 C   -2.6808452500   -2.4241907016   -0.0056034201
 C   -1.3333737344   -2.1504978494    0.0270703599
 C   -0.2197538905   -3.1456009732    0.0714745559
 O   -0.7697835284   -4.4536677778    0.0032831929
 H    1.0127601501    1.7915140956   -0.0067340503
 H   -0.4851670502    1.7243786284   -0.9733384949
 H   -0.5623817812    1.8391948064    0.7962970219
 H    0.7396099210   -0.4706546973   -0.4643475398
 H   -2.7991455929    0.8377053514    0.0115752505
 H   -4.3552312299   -1.1397260141   -0.0239398062
 H   -3.1908138542   -3.3721149184   -0.0228160443
 H    0.4819388950   -2.9759455651   -0.7672464461
 H    0.3693443691   -3.0101465004    0.9951170406
 H   -0.0507873417   -5.0827621836    0.1070534637