21

 C    0.1127802841    1.4347162344    0.0092958530
 C    0.0913639720   -0.0845481738   -0.2015403023
 C   -1.3102861808   -0.6208077897   -0.3583586306
 C   -1.7236903210   -1.9244327553    0.1737450750
 O   -2.0935140300   -0.7141409409    0.8369505430
 C    1.5273316592    1.9971940192    0.1983087614
 C    1.5282662996    3.4954741498    0.3770481327
 C    2.5855313937    4.3570432624   -0.1645794393
 O    1.3096248218    4.2773909063   -0.8026592230
 H   -0.3531011121    1.9347433027   -0.8488866413
 H   -0.5027192820    1.6773423097    0.8844168823
 H    0.6738026771   -0.3455512861   -1.0957899500
 H    0.5682690598   -0.5871460116    0.6489396982
 H   -1.8664662573   -0.2274122416   -1.2123238325
 H   -2.5408881527   -2.4710284901   -0.2953143728
 H   -0.9968320327   -2.5421421216    0.7004870785
 H    1.9988971820    1.5343266620    1.0760452542
 H    2.1493456060    1.7450830286   -0.6693891294
 H    0.9793832480    3.8607999702    1.2480353322
 H    2.8122697778    5.3090387600    0.3138438191
 H    3.4117539873    3.9081793356   -0.7152344084