19

 C   -0.0228194686    1.4717760602   -0.1336334281
 N   -0.0596425771    0.0404907212    0.0941799660
 C   -1.3197426358   -0.6073156332    0.5043517919
 C   -0.4852310884   -1.6528966838    1.2804834603
 O   -0.2222144688   -2.8449204523    0.5989394406
 C    0.6838075527   -0.5800810593    1.2197645881
 C    2.0969723622   -1.0513384877    0.9004393826
 C    0.6711347168    0.2471718470    2.4408006538
 N    0.6316672649    0.9223580290    3.3795791452
 H    0.9993919339    1.7851672377   -0.3672986942
 H   -0.6513186017    1.7094408214   -0.9976155656
 H   -0.3779131282    2.0588362148    0.7293212958
 H   -1.9421366421    0.0086054831    1.1721245788
 H   -1.9367611508   -0.9823918211   -0.3194457699
 H   -0.8213132131   -1.9231241786    2.2806375982
 H   -0.0596821024   -2.6299384534   -0.3269969157
 H    2.0713933163   -1.7561244325    0.0679060215
 H    2.7308920005   -0.2035501207    0.6248332920
 H    2.5445692397   -1.5468743719    1.7662520587