18

 C   -0.0069461617    1.4645925403   -0.1257023344
 N    0.0258886450    0.0091112301   -0.0225199906
 C   -0.9113160848   -0.6655714996    0.9472847677
 C   -0.6986564407   -2.1258859275    0.5021013585
 C    0.8492542016   -2.0657696457    0.4420736981
 O    1.6344931704   -2.9292622592    0.1697684358
 C    1.0917335309   -0.6073675811    0.8556283807
 C    0.1261317848   -0.5228090570    2.0920909801
 O    0.0377430344    0.7128906734    2.7531982040
 H    0.8287652691    1.7836112938   -0.7579832411
 H   -0.9312305502    1.7477591462   -0.6412660564
 H    0.0425098632    2.0030269850    0.8274833845
 H   -1.9268325500   -0.2815663144    1.0418580974
 H   -1.0410622326   -2.8856201236    1.2108430482
 H   -1.1298125940   -2.3267351368   -0.4802271544
 H    2.1092897164   -0.2205363784    0.8329639054
 H    0.1807733010   -1.3537277984    2.8137123317
 H    0.8221633073    0.8199540229    3.3014548448