22

 C   -0.1881625066    1.5766402978    0.0342886723
 C   -0.0405050452    0.0441498655   -0.0053299182
 C   -1.4341855561   -0.6006059245    0.0207828544
 C    0.7236411900   -0.4159287938   -1.2642841152
 C    2.1581569042    0.1228335977   -1.3124081662
 C    2.9272210788    0.0244969631    0.0005689775
 O    4.1404819007    0.1137883727    0.0503576259
 N    2.1687068296   -0.0980508735    1.1345129096
 C    0.7567359692   -0.4507803212    1.2158626388
 H    0.7750798544    2.0820590945    0.1395117168
 H   -0.6665525899    1.9448454340   -0.8796358001
 H   -0.8127328953    1.8803364041    0.8813931100
 H   -2.0374063141   -0.2513127060   -0.8236653491
 H   -1.3711496145   -1.6923030497   -0.0419084128
 H   -1.9727320141   -0.3460409870    0.9404952250
 H    0.7465134187   -1.5136307844   -1.2726734756
 H    0.1788559663   -0.1123523298   -2.1658913722
 H    2.7555497713   -0.3888320136   -2.0711964552
 H    2.1646559158    1.1836178740   -1.5907191954
 H    2.7231346966   -0.1805348327    1.9751566730
 H    0.3452903945   -0.0125628433    2.1329254224
 H    0.6364862756   -1.5420616838    1.3023254744