19

 C    0.0461433712    1.1986063240    0.5612159531
 N   -0.0334347620    0.0483657071   -0.3460604155
 C   -1.1764816654   -0.7379389288   -0.2463434437
 C   -1.3107757514   -2.0698519546    0.0145409080
 N   -0.2752424833   -3.0006547568    0.1799029337
 C   -2.7211293009   -2.3650956205   -0.0126505988
 C   -3.3575896478   -3.7003364085    0.2070995958
 C   -3.3280142520   -1.1795418740   -0.2910847985
 O   -2.4292065482   -0.1787641808   -0.4487439560
 H    1.0093318001    1.6985855236    0.4208307811
 H   -0.7558566630    1.9353745170    0.4129571274
 H   -0.0074987456    0.8418006702    1.5939016920
 H    0.1575890278    0.3352947693   -1.3010859799
 H    0.6134051135   -2.5255351334    0.2928908959
 H   -0.4277393513   -3.6236437949    0.9641985103
 H   -3.1902450074   -4.0735607668    1.2258484361
 H   -4.4389982101   -3.6521725924    0.0515629458
 H   -2.9502074644   -4.4522947339   -0.4785994621
 H   -4.3660800297   -0.9075786055   -0.4020883045