18

 C   -0.0191306294    1.5494515954   -0.0242661559
 C    0.0031300830    0.0216770201    0.0597439796
 C   -1.4082330420   -0.5729897500    0.0008345532
 N   -1.4127290286   -2.0252778055    0.0481454541
 N   -1.4715020133   -2.7698304434   -1.0921295052
 N   -1.4218384286   -4.0201775687   -0.7448516384
 C   -1.3252042336   -4.1166055867    0.6107486680
 C   -1.3168918330   -2.8380646912    1.1214699967
 O   -1.2417567928   -2.2983236360    2.3563712923
 H    0.9939801437    1.9584037191    0.0224302873
 H   -0.4726368996    1.8901039962   -0.9614115444
 H   -0.5925115241    1.9863284768    0.8008779640
 H    0.5914159203   -0.3975734371   -0.7638309150
 H    0.4848172550   -0.2972434391    0.9910918350
 H   -2.0166964318   -0.2049779462    0.8331950574
 H   -1.9063435448   -0.3008563688   -0.9330219706
 H   -1.2742065405   -5.0642307341    1.1217011214
 H   -1.2198898198   -3.0079495409    3.0062442904