20

 C    0.0330118371    1.4860157862   -0.2028573034
 C   -0.1281625282   -0.0148117403    0.0713000657
 C    0.6839657157   -0.5236586602    1.2675474013
 C    0.2523875336    0.0900193429    2.6049912679
 C    0.8730438615   -2.0584920243    1.3742377957
 N    1.5311572118   -2.4944086596    0.1416740572
 C    2.3700236736   -1.9608133876    1.2746575682
 C    2.2496015603   -0.4576065972    1.1705798029
 O    3.0313935262    0.4489189257    1.1989174659
 H    1.0871949373    1.7537705799   -0.3189579793
 H   -0.4918964448    1.7640752238   -1.1218250049
 H   -0.3775727993    2.0977530156    0.6064600366
 H   -1.1879161747   -0.2476874818    0.2467293816
 H    0.1765144924   -0.5841442380   -0.8114432532
 H   -0.8200849084   -0.0651633324    2.7679188518
 H    0.7915320469   -0.3605076463    3.4453308718
 H    0.4512088802    1.1640678219    2.6226958683
 H    0.2991913616   -2.7374801331    1.9930157167
 H    1.6344896270   -3.5088802570    0.1772021666
 H    3.1571047301   -2.5650181084    1.7078806825