19

 C    0.0050028298    1.4508082490    0.0896509137
 C   -0.0165328279   -0.0513517527   -0.0217837975
 C    0.7323325215   -0.7251265535   -1.2058999247
 C    0.5430040734   -2.1539148141   -0.7220898191
 C    0.4797574947   -2.0173556340    0.7918855710
 O    0.6290371544   -0.6544452135    1.1261706868
 C   -0.8001566043   -2.1911760776    0.0251293232
 O   -1.5624935123   -3.3371415753    0.1784697875
 C   -1.3828055396   -0.7840485750   -0.0463485993
 H    1.0352492450    1.8155225123    0.1404348536
 H   -0.4805720377    1.9066065539   -0.7782699086
 H   -0.5197286424    1.7786636880    0.9915909604
 H    0.2579425732   -0.5164607747   -2.1694974533
 H    1.7817355842   -0.4170797804   -1.2451955932
 H    0.9581511006   -3.0297364646   -1.2025931582
 H    0.8772539032   -2.7259976047    1.5042141994
 H   -1.9734127893   -3.5419198819   -0.6687329313
 H   -1.9958109349   -0.5430983061    0.8268223157
 H   -1.9487192916   -0.5835404151   -0.9617965161