15

 C    0.1767668274   -1.1325199570    0.3197001957
 C    0.0357941348    0.0443005042    0.1232059503
 C   -0.0978714661    1.4832360197   -0.1388767560
 N   -0.7972494265    2.2090585542    0.9486945140
 C    0.2129363963    2.9489986043    1.7212318391
 C    1.4500709201    2.9523301358    0.8304995314
 C    1.2754811779    2.1364282384   -0.2120061468
 C    2.6211655552    3.6906762016    1.1414474569
 N    3.5535230962    4.3162731949    1.4271037012
 H    0.2875429185   -2.1729929096    0.5028639166
 H   -0.6506958237    1.6076224071   -1.0789851683
 H   -1.4379518399    2.8685684465    0.5257321464
 H   -0.1376463078    3.9559306194    1.9670503249
 H    0.4399830315    2.4455234353    2.6706541883
 H    2.0049427162    1.9011267651   -0.9751856338