18

 C   -0.0749029788    1.4657299381   -0.0910361580
 C   -0.0390258331   -0.0223314195    0.0021984318
 N   -0.0346467328   -0.8028857541   -1.0689578286
 N    0.0021005864   -2.0426061444   -0.5175337261
 C    0.0127189158   -1.9683546349    0.8306664090
 C    0.0808868030   -3.1484222817    1.7417115128
 C    1.4045962157   -3.1950222937    2.5295738142
 O    1.4725911576   -4.3156107040    3.3907413437
 N   -0.0104091681   -0.6964917797    1.1922108057
 H    0.8019912639    1.9053201690    0.3946052860
 H   -0.0945869356    1.7766156912   -1.1368246631
 H   -0.9595092406    1.8640998568    0.4156685046
 H    0.0066034567   -2.8558213672   -1.1110244591
 H   -0.7526884216   -3.0945549984    2.4522685191
 H   -0.0335427088   -4.0794581548    1.1769472905
 H    2.2435922407   -3.2962349724    1.8334401034
 H    1.5363132395   -2.2468734999    3.0674771242
 H    0.8591222301   -4.1699907303    4.1179245699