21

 C   -0.0545154746    1.6868645127   -0.1069991615
 C    0.0201160642    0.1592335123   -0.0720241553
 C    1.0918955348   -0.3798869343   -1.0902601984
 C    2.0476704839   -0.5829225106    0.0924054183
 O    3.2236383492   -0.7870070311    0.1834053434
 C    0.9288185728   -0.3372489815    1.1128372440
 C   -1.3168183028   -0.5511620501   -0.1573875897
 C   -2.5793971659   -0.0446903394    0.4951958330
 C   -2.4668359899   -0.0749529057   -1.0101239264
 H    0.9502989876    2.1176716361   -0.0410915996
 H   -0.5026566306    2.0502387419   -1.0370215105
 H   -0.6333178591    2.0842565476    0.7325724368
 H    0.8105451210   -1.3362881374   -1.5449393026
 H    1.4300095964    0.2943900719   -1.8819514345
 H    1.1487719912    0.3680398869    1.9190287882
 H    0.5809613124   -1.2761766154    1.5578020472
 H   -1.2019780610   -1.6333235192   -0.1270285427
 H   -3.2266497716   -0.7663476430    0.9813166039
 H   -2.5625486330    0.9251771315    0.9793305228
 H   -2.3751001089    0.8748662286   -1.5246531010
 H   -3.0368437759   -0.8172858918   -1.5579076454