17

 O    0.0873902859    1.3812204699   -0.2438167643
 C    0.0037160168    0.0065508342   -0.0022920497
 C    0.2902134382   -0.5687133885    1.4369999967
 C   -1.0637571393   -1.2820580623    1.3629926325
 O   -1.3044458358   -2.5816252853    1.7554252600
 C   -2.1985486848   -0.2753353731    1.2194128887
 C   -2.1982104813    1.0387962737    1.7987089575
 C   -2.1899262019    2.1334308440    2.3034190884
 C   -1.3668425134   -0.6905427585    0.0034106149
 H   -0.5164883380    1.8260704457    0.3643325192
 H    0.6638871253   -0.4687011617   -0.7320723755
 H    1.1324089933   -1.2633130130    1.4511152633
 H    0.4067934483    0.1704579504    2.2341528516
 H   -1.3687201726   -2.6030203368    2.7172656809
 H   -3.1663326550   -0.7707314664    1.2237094776
 H   -2.1972758401    3.0965307786    2.7512303055
 H   -1.8625872253   -1.1350507808   -0.8513885770