23

 C    0.0248218810    1.5536573145   -0.1662487530
 C    0.0409564300    0.0305006501    0.0049264856
 C   -1.3599323781   -0.5643357567    0.0896285443
 C   -2.2640658507   -0.5318539470   -1.1842849131
 C   -2.7147634808   -1.9452436227   -0.8225741310
 C   -4.0699550928   -2.4922946961   -0.7570102827
 O   -3.1325343440   -2.9289688233   -1.7532742579
 C   -1.5566350200   -2.1231229367    0.1711218045
 C   -0.4245484467   -2.9950803061   -0.3699880378
 H    1.0400005347    1.9583627069   -0.2232970823
 H   -0.5008810207    1.8441095284   -1.0822926370
 H   -0.4821267277    2.0412282214    0.6739973622
 H    0.5879888487   -0.4224761912   -0.8307334214
 H    0.6005179217   -0.2286327695    0.9133935320
 H   -1.8936286880   -0.0969017822    0.9251667144
 H   -3.0297977859    0.2442805314   -1.2538513298
 H   -1.6738059668   -0.5267843612   -2.1070753216
 H   -4.3222637237   -3.2326402966    0.0020815529
 H   -4.9107285117   -1.9101316803   -1.1337287477
 H   -1.8534240219   -2.4850337550    1.1610342851
 H   -0.1087489357   -2.6831900517   -1.3704518245
 H    0.4502194063   -2.9644477683    0.2870406343
 H   -0.7576784473   -4.0342265783   -0.4472924756