14

 C   -0.0049272531   -1.2261482674   -0.0473499151
 C    0.0173459467   -0.0262746470   -0.0118180600
 C    0.0691154984    1.4274492781    0.0324931254
 O   -0.1613855966    1.9858421745    1.3633725513
 C    1.0717105263    2.7225585310    1.2905781788
 C    2.2297290926    1.7855855738    1.2126946393
 C    1.4484913672    2.1218575202   -0.0388514875
 C   -0.8870698949    2.0178350098   -0.9207935463
 N   -1.6129204424    2.4969079638   -1.6806334743
 H   -0.0334830178   -2.2880485791   -0.0799473651
 H    1.0712345439    3.7369179089    1.6672454710
 H    3.2116694846    2.2471737774    1.2477113698
 H    2.1589305136    0.8009049993    1.6637865301
 H    1.8685775117    2.5481971366   -0.9377174976