17

 O   -0.8720919165    0.8771557651    0.6090532625
 C    0.1685208497    0.8429282241    0.0007777967
 C    1.3453298252    1.7674991655    0.2197842459
 C    1.3104740642    2.9571443635   -0.8013054102
 C    0.8277228761    3.8233642236    0.3885335543
 N    1.2790466561    2.7568109811    1.2988919324
 C    0.6138852379    2.5050871818    2.5629648545
 C    0.9849177676    3.5314140876    3.5484597426
 N    1.2560157241    4.3505001107    4.3164811442
 H    0.3338307315    0.1059488959   -0.8208504281
 H    2.2618500594    1.1598323578    0.2113330253
 H    2.3047484288    3.2210526736   -1.1606268828
 H    0.6276953026    2.8556126761   -1.6454687211
 H    1.3181486512    4.7889139300    0.5419071560
 H   -0.2626608263    3.9701154595    0.3884954844
 H   -0.4826736047    2.4676646761    2.4895423429
 H    0.9360790431    1.5299669281    2.9452818205