21

 C   -0.0617603899   -1.2016882923    0.4481278949
 C   -0.0619739921   -0.0196586532    0.2294123690
 C   -0.0378882381    1.4164999602   -0.0411758698
 C    1.3669811548    1.9741199124   -0.2082673801
 C    2.1498828558    2.3843752018    1.0146899927
 C    1.6810514632    3.4366454101    0.0342863884
 C    2.6674803678    3.9009124910   -1.0275496157
 C    3.2847686000    2.5956188057   -1.5839247453
 C    2.1826466252    1.5249738242   -1.4175133350
 H   -0.0701418708   -2.2451473159    0.6434805615
 H   -0.6234459942    1.6203850253   -0.9488700463
 H   -0.5476225168    1.9453118181    0.7743520482
 H    1.6321637647    2.3334240403    1.9669869876
 H    3.2066818770    2.1463758049    1.0812081891
 H    0.9059009580    4.1234068163    0.3596084724
 H    2.1228414481    4.4344767007   -1.8162014448
 H    3.4286302432    4.5878706563   -0.6416111568
 H    3.6138774452    2.6976993159   -2.6212467029
 H    4.1698901696    2.3194388062   -1.0024577969
 H    2.5892734702    0.5145973160   -1.3078075635
 H    1.5262511991    1.5116467359   -2.2976892367