23

 C   -0.7084143640    1.2976146689   -0.0073546505
 C    0.1125811426    0.0083412588    0.0134478590
 C    1.2185066002   -0.0480329130   -1.0681893045
 O    2.3174695233   -0.7578300593   -0.5084287665
 C    1.9055293122   -1.3516740554    0.7272013153
 C    3.1468930892   -1.7071893318    1.5271524873
 C    0.8907798470   -0.3432383373    1.3090529098
 C    1.5395094215    0.8545689153    2.0001444800
 O    1.9984996538    0.4242463971    3.2772422807
 H   -0.0784297150    2.1875908980    0.0907517605
 H   -1.2527063309    1.3883966256   -0.9537151074
 H   -1.4483257925    1.3156833096    0.7995628891
 H   -0.5754049153   -0.8267353358   -0.1654123307
 H    0.8641146557   -0.5467339380   -1.9813864078
 H    1.5629202860    0.9560354744   -1.3508131071
 H    1.3532515631   -2.2848896227    0.5135160375
 H    3.7425656526   -0.8221019613    1.7575090658
 H    2.8705548257   -2.1848290049    2.4701934962
 H    3.7641668020   -2.4003980266    0.9479443874
 H    0.2342165205   -0.8250819209    2.0412238721
 H    2.3667638191    1.2423342924    1.3857242306
 H    0.8042730386    1.6636425315    2.1152457759
 H    2.4565478646    1.1598756656    3.6940291371