21

 C    0.1939827356    1.6456209887   -0.1282531712
 C    0.0051062345    0.1402888041    0.0002717030
 O    0.6104655024   -0.4334097214   -1.1739406201
 C    0.6530891125   -1.8307912486   -1.2369717806
 O   -0.5958749034   -2.4410344584   -1.0048946544
 C   -0.7341212498   -3.1967460201    0.1872146589
 C   -1.0261988077   -2.3483870482    1.4423856954
 C    0.1431252637   -1.5055855533    1.8936940698
 C    0.5963921020   -0.4163696414    1.2697729956
 H    1.2574397153    1.9031340460   -0.0977409085
 H   -0.2165752073    1.9978149987   -1.0779728037
 H   -0.3143338645    2.1650566691    0.6895570134
 H   -1.0662603684   -0.0943015857   -0.0310339740
 H    0.9519674556   -2.0457339855   -2.2686982798
 H    1.3971174569   -2.2456101278   -0.5400235827
 H   -1.5761381393   -3.8734621047    0.0086352103
 H    0.1603411814   -3.8145465807    0.3540977306
 H   -1.9023592879   -1.7263476133    1.2267541959
 H   -1.3185512912   -3.0345289239    2.2451690550
 H    0.6716398373   -1.8526119989    2.7793566961
 H    1.4792840824    0.0907005956    1.6546962910