22

 C    0.0298273753    1.4947302730    0.2582381254
 C    0.0017482405   -0.0089543987    0.0340970364
 C    1.0461023941   -0.5486013284   -0.9214301016
 C    1.2072851427   -0.7567983277    0.5650712527
 C   -1.3683081502   -0.6779449504    0.0413411717
 C   -1.3931047136   -2.1836410158    0.2519618696
 C   -2.5656438373    0.0648849507    0.5973232863
 C   -2.4269245810   -0.1295773672   -0.8932981845
 H    1.0473092943    1.8765369620    0.1322952203
 H   -0.6069949098    2.0334272952   -0.4522988835
 H   -0.2958979882    1.7580595839    1.2701001086
 H    0.7935765529   -1.4115584267   -1.5280977330
 H    1.6965482194    0.1625838105   -1.4199078063
 H    1.9645804045   -0.1799669333    1.0861210630
 H    1.0832391688   -1.7611382272    0.9505824809
 H   -1.0520711770   -2.4563094817    1.2562778829
 H   -2.4124123096   -2.5643267144    0.1379533863
 H   -0.7671888256   -2.7156972073   -0.4731222027
 H   -3.3150346318   -0.5167747633    1.1243988610
 H   -2.4357181055    1.0656357513    0.9901616095
 H   -2.1835294954    0.7389555184   -1.4957259881
 H   -3.0848637476   -0.8361852130   -1.3884404650