14

 O    0.0213654833   -0.0345635214   -0.0327132044
 C   -0.0694872872    1.1505073024   -0.0455112498
 C   -1.2062220098    2.1890574633   -0.0619411247
 C   -0.0736967902    3.2592948003    0.0070340867
 C    0.2366674964    4.0559515599    1.2396463345
 C    1.3305730454    3.5709702782    1.8368080083
 C    1.8077844697    2.3303186515    1.1531457898
 O    2.6731837211    1.5693703257    1.4857474236
 N    0.9353009432    2.1775580197    0.0224079091
 H   -1.8325103867    2.1999250299   -0.9550945641
 H   -1.8353796289    2.1251412691    0.8285289670
 H   -0.0144508735    3.8802785089   -0.8936919775
 H   -0.3193219698    4.9390241654    1.5303996094
 H    1.8272771471    3.9480434771    2.7201760621