14

 O    0.1148358755   -0.0779213310   -0.0022991605
 C    0.0285181374    1.1359109571    0.0094496838
 C    1.1940908179    2.0026378588    0.0033640999
 C    1.3675860080    3.3947242187    0.0135189444
 C    0.3176056866    4.4135277878    0.0347712758
 O    0.5323963060    5.6055581561    0.0427419401
 C    2.7645991198    3.6408632674   -0.0005523498
 C    3.3960845172    2.4149785346   -0.0189883346
 N    2.4406721220    1.4429211852   -0.0162428880
 H   -0.9529442908    1.6471246484    0.0254350030
 H   -0.7238280579    4.0251114385    0.0435249032
 H    3.2310868014    4.6126211345    0.0026258778
 H    4.4449865343    2.1640327193   -0.0335865157
 H    2.5734429627    0.4428112545   -0.0266199694