17

 O   -0.0225205811    0.0141988176   -0.0135743298
 C    0.0203207202    1.2070811070   -0.0220520440
 O   -1.1017142492    1.9910004784   -0.0235511208
 C   -0.7194802615    3.3902536406   -0.0502442137
 C    0.6532385100    3.3650230346   -0.7383663994
 C    1.2350864672    2.1515474529    0.0004104542
 C    1.4651469784    2.5271686075    1.4549297434
 C    0.6139349368    3.3439505289    2.0787627675
 C   -0.6029100931    3.9109431224    1.3877407540
 H   -1.4964110705    3.9159079389   -0.6075595948
 H    0.5479429666    3.1768848714   -1.8106774094
 H    1.2265973169    4.2808170524   -0.5830520212
 H    2.1033549421    1.6824669330   -0.4583753005
 H    2.3120256334    2.0885559286    1.9713545559
 H    0.7678374148    3.6110197002    3.1205104364
 H   -0.5662287002    5.0090082574    1.3802319101
 H   -1.5134471207    3.6397012684    1.9373292719