18

 O   -0.1247189414    1.4894156822    0.0486150783
 C    0.0177316456    0.0713173713    0.0179815998
 C   -1.3998745560   -0.5062610190   -0.0004688746
 O   -2.1163199395   -0.0085959005    1.1114072059
 C   -2.1079690885   -0.1775617051   -1.3510296388
 N   -1.8046261004   -1.3409769588   -2.1637267733
 C   -1.4617601990   -2.4632375784   -1.4550144845
 O   -1.2688541552   -3.5658911147   -1.9157000202
 C   -1.3779932006   -2.0394091031    0.0141859890
 H    0.7290592739    1.8843516667    0.2447689701
 H    0.5776266450   -0.2584624569   -0.8687771783
 H    0.5351296846   -0.2917170694    0.9165836718
 H   -1.8703533196    0.9228083309    1.1900628877
 H   -3.1833368334   -0.0614305514   -1.1646523910
 H   -1.7281979681    0.7454076351   -1.7979128614
 H   -2.0339373293   -1.4144008917   -3.1426215105
 H   -0.5005756252   -2.4748607957    0.4972927065
 H   -2.2648083929   -2.4071654814    0.5405390934