14

 C   -0.0062848430    1.3795516926    0.1214755384
 N    0.2070849820   -0.0584263028    0.0783097064
 C    0.6272007528   -0.5857481053   -0.9691683016
 O    0.9490338846   -0.0231658148   -2.1761419204
 N    1.3705624742   -1.0571191818   -3.0594238468
 C    1.2877879807   -2.1263970428   -2.3600067171
 C    1.6178935084   -3.4971216565   -2.8128562143
 O    0.8527889668   -1.9434424596   -1.0899452080
 H    0.7231490306    1.8344316846    0.8012657718
 H    0.0715622071    1.8764205110   -0.8525319190
 H   -0.9992796070    1.5775776813    0.5372416357
 H    1.9494899944   -3.4654467776   -3.8508369579
 H    2.4096572890   -3.9215659281   -2.1882440332
 H    0.7405661996   -4.1454066402   -2.7281789043