19

 C    0.0916102095    1.4896061310   -0.0748331863
 N   -0.0661145413    0.0560768876    0.1878749711
 C   -1.4320264787   -0.4875187910    0.0511776269
 C   -2.2192540581   -0.1334758997    1.3399791583
 O   -1.5032321059   -0.5088095518    2.4844307008
 C   -2.1984691975   -0.0235405221   -1.2182631469
 O   -1.4729627304   -0.2765967772   -2.4011231625
 C   -1.2955110376   -1.9530768404   -0.0499061391
 N   -1.2088966505   -3.0924697676   -0.2231402542
 H    1.1312010639    1.7578602593    0.1307513156
 H   -0.1433461465    1.7843762932   -1.1062213063
 H   -0.5352297906    2.0708193244    0.6073261650
 H    0.5572679679   -0.4622686368   -0.4194211217
 H   -2.4345818476    0.9479456007    1.3203785829
 H   -3.1784300468   -0.6601151396    1.3472177471
 H   -0.5742256492   -0.3289861446    2.2714688298
 H   -3.1928382195   -0.4916274821   -1.2297629823
 H   -2.3422316015    1.0590951327   -1.1690951379
 H   -1.4544386597   -1.2301551163   -2.5438706501