21

 C    0.4665020455    1.0607523543   -0.2310085781
 O   -0.2607519600   -0.0001303857    0.3613435065
 C    0.4774556065   -0.6722146443    1.3296087113
 C   -0.0378393198   -2.0065164292    1.7739235297
 C    1.2339684671   -1.9308298788    0.9632075058
 C    1.3178890398   -2.4072585749   -0.4863418503
 C    2.8400873774   -2.6321837454   -0.6833143106
 O    3.4916910987   -2.0440867097    0.4385523616
 C    2.6120539612   -2.2012130613    1.5405768542
 H    1.3992397149    0.7096572608   -0.6941355875
 H   -0.1743388409    1.5024798152   -0.9974637288
 H    0.7201690769    1.8332789335    0.5104809565
 H    0.9267261268   -0.0195192439    2.0819160988
 H    0.0189745214   -2.2564797936    2.8290395733
 H   -0.9248686570   -2.3747746204    1.2686831169
 H    0.7593812391   -3.3344190414   -0.6463156445
 H    0.9098883130   -1.6603746318   -1.1715841823
 H    3.0662300735   -3.7088147670   -0.7321170289
 H    3.2417336671   -2.1599989105   -1.5836401970
 H    2.9135268988   -1.4976289959    2.3229136291
 H    2.6759384602   -3.2245866099    1.9521931144