23

 C   -0.1381821269    1.5395488446   -0.0309194853
 C    0.0087940909    0.0202264822   -0.0752719588
 C    0.9448587896   -0.5382963987   -1.2025972344
 C    2.4249068209   -0.4756702441   -0.6419140281
 C    1.8191215061   -1.4650861062    0.3828310842
 C    2.0302052006   -2.2777484974    1.6773260744
 C    0.5892344224   -1.7937464441    2.0974716748
 C    0.7958693710   -0.5929868583    1.1186787111
 C    0.9859264812   -2.0327290312   -0.8007095543
 H    0.8354309950    2.0324067078    0.0687225563
 H   -0.6111622517    1.9210929968   -0.9424655044
 H   -0.7541783599    1.8519294270    0.8194992496
 H   -0.9848409744   -0.4281826415   -0.1950570036
 H    0.7296665738   -0.2255529006   -2.2261879923
 H    3.1286311736   -0.9052370291   -1.3600703118
 H    2.8089042300    0.4742104702   -0.2581933317
 H    2.2076590040   -3.3520971395    1.5823225164
 H    2.7938344298   -1.8473954107    2.3325586773
 H   -0.1834522087   -2.4941988687    1.7718339370
 H    0.4285112604   -1.5575022621    3.1517772873
 H    1.3073471781    0.2024493276    1.6749875870
 H    0.0347711458   -2.5327476688   -0.5950402723
 H    1.5949242084   -2.6467003053   -1.4700818484