18

 C   -0.0754486386    1.4003563796    0.0956052847
 N    0.0197952345   -0.0377013930   -0.0062496117
 C    0.1025122757   -0.7938671157   -1.1296992717
 C    0.0897738340   -2.1171662493   -0.7387049655
 C    0.1757579138   -3.3377726448   -1.6019181689
 C   -0.0110286126   -2.0553740293    0.6762911275
 C   -0.0569890178   -3.1949124142    1.6442210727
 N   -0.0563656008   -0.7945828349    1.1069814244
 H    0.2996213759    1.8512374956   -0.8254587273
 H   -1.1107199270    1.7217881639    0.2549048722
 H    0.5302190228    1.7415358069    0.9374581905
 H    0.1672153621   -0.3427144209   -2.1084079925
 H    1.0548105993   -3.9476667211   -1.3606931049
 H   -0.7012505089   -3.9850809399   -1.4810946275
 H    0.2426483559   -3.0707377272   -2.6604488359
 H    0.8445440802   -3.8158270274    1.5804374910
 H   -0.1396273132   -2.8143108238    2.6644037885
 H   -0.9123248050   -3.8532954848    1.4515736444