20

 C   -0.6321974562    1.2727266031   -0.0766036807
 O   -0.0923036895   -0.0299250285   -0.1007922812
 C    0.6227851955   -0.4020674855    1.0665331655
 C   -0.2814910937   -0.6875577849    2.2660108644
 C    1.4134334743   -1.6350207941    0.6523216258
 C    2.6106522475   -1.4311331917   -0.2943839170
 C    3.4269976348   -1.9011350982    0.8909247806
 N    4.6440072197   -2.0975404901    1.1137054526
 O    2.3264919965   -2.0707783880    1.7146743622
 H    0.1420740467    2.0280648612    0.1291153576
 H   -1.0544371219    1.4616295605   -1.0664834208
 H   -1.4307817596    1.3841287965    0.6700597063
 H    1.3420001183    0.3923311863    1.3319505564
 H   -1.0376916341   -1.4334897952    2.0008573618
 H    0.3170304615   -1.0732787523    3.0957158754
 H   -0.7923126454    0.2159621624    2.6092001274
 H    0.7360317484   -2.4492481093    0.3783557887
 H    2.6535532499   -2.0839319745   -1.1669073577
 H    2.7917112393   -0.4003606855   -0.6030519297
 H    4.7969397579   -2.4339413822    2.0660824523