18

 C    0.1615586487    1.3863494529    0.0122248685
 C   -0.1174037379   -0.1378557489   -0.0005130629
 C    0.5885355213   -0.8462095519   -1.2087771759
 C    1.9100091585   -1.4270171014   -0.6481202940
 C    1.6570280668   -1.4785315438    0.8388181644
 C    0.5649332171   -0.8064710431    1.1896820277
 C   -1.5635050210   -0.3643738294   -0.0038158447
 C   -2.7535041413   -0.5390889985   -0.0050914665
 H    1.2391548591    1.5713519734   -0.0339855721
 H   -0.3174740967    1.8720923456   -0.8430663892
 H   -0.2269243403    1.8460003568    0.9255045529
 H   -0.0495286222   -1.6593038238   -1.5621297434
 H    0.7388230160   -0.1586860481   -2.0448496566
 H    2.1402080622   -2.4100418415   -1.0740305865
 H    2.7752219309   -0.7883355765   -0.8738873184
 H    2.3237587655   -1.9839453471    1.5291495171
 H    0.1879288304   -0.6746524605    2.1973155552
 H   -3.8028103772   -0.7011661242   -0.0060291358