18

 C   -0.0521780922    1.5157605035   -0.1199936541
 C    1.4982864239    1.5074473082   -0.0784408929
 C    1.4360735128    0.0947871050    0.5889771316
 C   -0.0290153521   -0.0250913005    0.0560034672
 C    2.4330597449   -0.9308064957    0.2236377586
 C    3.2935680165   -1.7281418894    0.9065528818
 N    4.0117798553   -2.5218631004    0.0181896457
 C    3.5604155042   -2.1739999642   -1.1401922603
 O    2.6030631120   -1.2176392755   -1.1120914133
 H   -0.4777876588    2.0166079693    0.7542959933
 H   -0.5314330811    1.9147715550   -1.0161179130
 H    1.9295340143    1.4414669605   -1.0805885965
 H    2.0084144025    2.2987066155    0.4754057641
 H    1.4357745806    0.1906622340    1.6784699632
 H   -0.7651211049   -0.4843240650    0.7195716249
 H   -0.0477569416   -0.5425925171   -0.9065275458
 H    3.4481697397   -1.7884960363    1.9722778804
 H    3.8465601741   -2.5445780969   -2.1120559447