23

 C   -0.0151727477    1.5044885542    0.0206794558
 C    0.0124903844   -0.0063411622    0.0079568962
 C   -0.8422801897   -0.7764401120    0.9938622518
 C    0.6638709221   -0.8114618345    1.1134744316
 C    1.3920882388   -1.9944502652    0.4940413229
 C    0.7677694880   -2.1438364485   -0.9110757623
 C    0.3247948493   -0.7167548412   -1.3133318207
 C   -0.8132155004   -0.6946864710   -2.3252674556
 O   -0.3647545500   -1.3511842683   -3.5049514855
 H    0.9160725862    1.9210887131   -0.3822420960
 H   -0.8410868124    1.9031906356   -0.5803898561
 H   -0.1392804184    1.8889025010    1.0382907889
 H   -1.3817572612   -0.1909893745    1.7314288268
 H   -1.3713711285   -1.6692643821    0.6761171195
 H    1.1159839727   -0.3073632666    1.9618783446
 H    2.4604301881   -1.7581680238    0.4154356964
 H    1.3104247844   -2.9138982571    1.0846448122
 H    1.4540615301   -2.5812285570   -1.6382397686
 H   -0.1051032064   -2.8055401284   -0.8747152310
 H    1.1771432936   -0.1964019370   -1.7734406982
 H   -1.6944190952   -1.2010895213   -1.8986881454
 H   -1.1058836702    0.3450952633   -2.5424416347
 H   -1.0870647077   -1.3559381665   -4.1394666423