17

 C   -0.1751740314    1.4394268803    0.0682285786
 O    0.1400233195    0.0575304816   -0.1092930435
 C    0.7073249868   -0.5261335714    0.9937965062
 C    2.0173615436   -0.9530461383    1.1030159186
 N    3.0944108736   -0.8085920515    0.2260102002
 N    2.1200514165   -1.5392126180    2.3190796889
 N    0.9453776288   -1.5085449147    3.0293440085
 C    0.0933515291   -0.8974367252    2.2191851920
 N   -1.2266655017   -0.6301229465    2.5909359730
 H    0.7305162069    2.0304626517    0.2559212717
 H   -0.6450692562    1.7764845907   -0.8589770613
 H   -0.8684481368    1.5822299197    0.9053254377
 H    2.7706153153   -0.4033065857   -0.6449754940
 H    3.5572377699   -1.6877825555    0.0211538359
 H    2.9613298657   -1.8303265784    2.7834609437
 H   -1.4854956282   -1.1576002320    3.4160603063
 H   -1.8797765514   -0.8162238969    1.8395375676