19

 C   -0.0716929205    1.3347082620    0.0272329464
 O    0.0056161714   -0.0895339566   -0.0276834004
 C    0.6225762585   -0.5738297209   -1.1168376511
 N    1.1460740367    0.1003844305   -2.1043951108
 C    1.6459015484   -0.8761348286   -2.9524027159
 C    1.4162116774   -2.1292183793   -2.4631126412
 C    1.7464698442   -3.4852642301   -2.9819042099
 N    0.7421848905   -1.9261035047   -1.2544139622
 C    0.2656029322   -2.9347258082   -0.3320160922
 H    0.9287791438    1.7771525341    0.0267956792
 H   -0.6253223320    1.7258760745   -0.8313627625
 H   -0.5925675937    1.5685615695    0.9565690817
 H    2.1454079769   -0.6120441642   -3.8724847113
 H    2.3985958709   -4.0492087337   -2.3023337000
 H    0.8531205993   -4.0992164959   -3.1554122046
 H    2.2701302691   -3.3899771658   -3.9361739022
 H    1.0922673637   -3.5451584002    0.0464846556
 H   -0.2144962535   -2.4336712881    0.5082773125
 H   -0.4636607933   -3.5954921042   -0.8124638911