16

 N   -0.3526849996    1.8038928958   -0.5470415207
 C   -0.6687956663    0.5578673554    0.1508674907
 C   -2.0609479522    0.0820040961   -0.3182721816
 O   -2.4539778230   -1.1418606010    0.2808137485
 C   -3.3141956646   -1.0393567124    1.3865359388
 C   -2.6852540938   -0.4447449948    2.5836616674
 N   -2.1854531307    0.0400179498    3.5058722086
 C    0.3371267747   -0.5067494225   -0.0471899224
 N    1.1563387517   -1.2975412880   -0.2469312388
 H    0.4664272933    2.2374936432   -0.1334984305
 H   -0.1179062338    1.6114904795   -1.5170134138
 H   -0.7179624655    0.7727505732    1.2225450218
 H   -2.7774890065    0.8872436870   -0.1178644699
 H   -2.0353558568   -0.0933635581   -1.3991416500
 H   -4.2140438466   -0.4524298237    1.1488085260
 H   -3.6318524900   -2.0575546196    1.6293684760