19

 C    0.6015212087    1.9687826711    0.3494219054
 C    0.0072573694    0.5901172050    0.5252594645
 C    0.5337984375   -0.5926376109   -0.2102196417
 C    0.7328595084   -0.5309933250    1.2961233038
 C    2.1071692261   -0.3190853067    1.8119531606
 O    3.0145083515    0.1698982171    1.1652119265
 C    2.3797130129   -0.7250494176    3.2387609868
 C    1.4849709010   -0.2947997689    4.3330692254
 O    1.4850971270   -1.6396448221    3.8781918417
 H    1.6831201595    1.9192171580    0.2129609474
 H    0.1646964030    2.4545985652   -0.5299469195
 H    0.3934980817    2.6044872026    1.2170661883
 H   -1.0639229853    0.5854470464    0.7118014472
 H   -0.1540209643   -1.3402920075   -0.5885681038
 H    1.4379223887   -0.4499300860   -0.7930552334
 H    0.1115813222   -1.1665813028    1.9146011165
 H    3.4365157657   -0.8669860340    3.4563837364
 H    1.9099873812   -0.1281878565    5.3213046949
 H    0.5907063853    0.2806629627    4.0997447531