20

 C   -0.1067415756    1.6882769901   -0.4545280537
 C    0.0223956707    0.1929889116   -0.1943705264
 C    0.7406323537   -0.6897018723   -1.2270008319
 C    2.2146285063   -0.4003808381   -1.2774671418
 C    1.6764933949   -1.2372805458   -0.1508842717
 C    0.9999616612   -0.3642085411    0.9250411134
 C    1.8883359272    0.6051495569    1.6867695676
 N    1.9142192522    0.4234332332    3.0424703929
 O    2.5327938418    1.4924794051    1.1524867515
 H    0.8646701552    2.1587028231   -0.6121801383
 H   -0.7298489106    1.8583966007   -1.3399762997
 H   -0.5850515692    2.1947552092    0.3912987532
 H   -0.9700076032   -0.2210348340    0.0110581123
 H    0.2407362210   -1.2300220390   -2.0222336371
 H    2.7582545508   -0.9629630201   -2.0302367510
 H    2.6072765203    0.5889859060   -1.0765175827
 H    2.0009773416   -2.2569883996    0.0183492081
 H    0.4352136456   -0.9839439120    1.6271820463
 H    1.4734038308   -0.3615810852    3.4875216639
 H    2.5512833956    0.9879585012    3.5812861650