18

 C   -0.0393201991    1.5517416664   -0.0225518847
 C    0.0162714212    0.0557497635    0.0058638242
 C    0.6840225712   -0.8926391729   -0.9777737295
 C    1.6512043030   -1.8419406394   -0.2671319555
 C    1.3790059510   -1.5909463478    1.2446048173
 C    0.0235465938   -0.8956337582    1.2312851050
 O   -0.9364467993   -1.7947983674    0.5781695939
 C   -0.7876607187   -1.0374836699   -0.6241797341
 H    0.8802914963    1.9956993425    0.3778991122
 H   -0.1575108250    1.9165764935   -1.0481117168
 H   -0.8799284484    1.9367425029    0.5658363943
 H    0.9064950814   -0.5257888038   -1.9747650756
 H    1.4559430924   -2.8843929762   -0.5349928370
 H    2.6885832325   -1.6236450103   -0.5360025560
 H    1.3558669106   -2.5132495563    1.8317824418
 H    2.1342941529   -0.9276165160    1.6837441544
 H   -0.3582509899   -0.5314337631    2.1877189370
 H   -1.6084248959   -1.0405738174   -1.3332228911