21

 C    0.1920421371    1.6384969494    0.1978509143
 O    1.4774660185    1.4957396260   -0.4409462485
 C    1.2689064188    0.0785679764   -0.6514217831
 C    2.4099428622   -0.7762277076   -0.1315917619
 C    2.1047059336   -2.2780827267   -0.2284642200
 C    0.9791780859   -2.7962947135    0.6327110062
 C    0.0830942186   -2.1235705440    1.3585542046
 C   -0.0641742758   -0.6215073575    1.4915053029
 C   -0.0573747634    0.1155929759    0.1517766063
 H    0.2771326883    2.0846493359    1.1973150094
 H   -0.4983308452    2.2456607633   -0.4021537923
 H    1.1131065363   -0.1307068613   -1.7208780522
 H    3.3092765889   -0.5474530454   -0.7154467232
 H    2.6350625675   -0.5007484112    0.9038091215
 H    1.8973260767   -2.5431563947   -1.2773948935
 H    3.0123880494   -2.8425682427    0.0242601687
 H    0.9119330729   -3.8836229205    0.6524668641
 H   -0.6351558155   -2.7133570447    1.9240721042
 H   -1.0046095586   -0.3988658853    2.0085803748
 H    0.7251511971   -0.2153034273    2.1378941648
 H   -0.9296691732   -0.1824626347   -0.4345927571