13

 C   -0.0132642079    1.4899777637    0.0152069303
 C    0.0052141165   -0.0132325647    0.0120664667
 N    0.1149089184   -0.6150574300   -1.1822719454
 C    0.1309665586   -1.9464968095   -1.1806609758
 C    0.0399235972   -2.6952909460   -0.0122768433
 C   -0.0699819027   -1.9720084923    1.1672112067
 N   -0.0884567406   -0.6373878292    1.1933226261
 H    0.9034971679    1.8800862795   -0.4381473189
 H   -0.8473509151    1.8589116014   -0.5900396346
 H   -0.1061095992    1.8666431012    1.0338075960
 H    0.2200493018   -2.4307421381   -2.1512736447
 H    0.0539714268   -3.7783074263   -0.0225718894
 H   -0.1463800918   -2.4740840098    2.1296223663