17

 C    0.0441000131    1.4369185152    0.1343635665
 C   -0.0337291109   -0.0402410278   -0.0636159664
 C    0.5856551611   -0.9461941595   -1.1575677782
 C    0.0465124693   -1.8496100632   -0.0307028631
 O    0.6236079739   -0.9248454322    0.9655786730
 C    0.1985517435   -3.2667843388    0.1637012251
 N    0.2619852122   -4.4136012142    0.2992181572
 C   -1.2783505488   -0.9728356677    0.0014902255
 N   -2.0784720240   -0.8820802844    1.1746437732
 H    1.0847460358    1.7601186860    0.2263217469
 H   -0.4074890416    1.9523594983   -0.7189727724
 H   -0.5002085151    1.7273070416    1.0373749106
 H    0.0944215979   -0.9919470915   -2.1321660267
 H    1.6727424275   -0.9108359029   -1.2193116283
 H   -1.8929336189   -1.0275796923   -0.9008392350
 H   -2.7686592368   -1.6230007916    1.2202029365
 H   -1.4844220382   -0.9375594049    1.9968071055