17

 C    0.0736516992    1.4147423616   -0.0522094994
 C   -0.0275266161   -0.0965622871   -0.0144041939
 O    0.2548165479   -0.7743400917    0.9454525638
 N   -0.5695071996   -0.6568261950   -1.1776628790
 C   -0.0930655506   -0.5513969971   -2.5342313231
 C   -0.1220119897   -1.8833370886   -1.8059687819
 C    1.1760518116   -2.5486700036   -1.3842998789
 C   -1.1894642988   -2.8080436351   -2.1538810606
 N   -2.0143105162   -3.5609304411   -2.4502115848
 H    0.8759804736    1.7263304856   -0.7302090316
 H   -0.8562646610    1.8573117184   -0.4195136921
 H    0.2944732867    1.7799108510    0.9503002402
 H   -0.8382683813   -0.3314840312   -3.2934403966
 H    0.8936815087   -0.1269244743   -2.7087622148
 H    1.9590577128   -1.8010944934   -1.2405337457
 H    1.0420839281   -3.0831675816   -0.4421928644
 H    1.4981463747   -3.2550312867   -2.1540181272