17

 O   -0.0839093054    1.3876579536   -0.0481124261
 C   -0.0031843936   -0.0060890690    0.0183246048
 C   -0.4447313326   -0.7205905307    1.2956291879
 C   -1.2891906678   -0.7378717531    0.0625994215
 C   -2.6946627827   -0.1918223460   -0.2691106460
 O   -2.5099466371   -0.7605257683   -1.6107970722
 C   -1.8441602697   -1.8377299493   -0.8719050458
 C   -3.0090736975   -2.3887532880   -0.0227004551
 C   -3.5914690854   -1.2607966401    0.3898858152
 H    0.6508720144    1.7528690626    0.4561061463
 H    0.8210660417   -0.4508001016   -0.5416117648
 H    0.0809492683   -1.6222931045    1.5951953070
 H   -0.7734303671   -0.0895354482    2.1158653901
 H   -2.9549081941    0.8638115709   -0.2463126701
 H   -1.2290252198   -2.5022275896   -1.4774726436
 H   -3.2469748343   -3.4241996478    0.1698954090
 H   -4.4513180173   -1.0945946010    1.0214610519