25

 C   -1.6752041007    0.1063653090   -0.1736698751
 C   -0.1599304004    0.2788303814   -0.0178983095
 C    0.7172566642   -0.5789679121   -0.9523623694
 C    0.4146636863   -0.2678645583   -2.4266310495
 O    0.6339356351    1.1182812393   -2.6598343992
 C    2.2215154731   -0.3582350223   -0.6617128271
 C    2.9431260743   -1.6053158612   -1.2113683453
 C    1.8966694841   -2.7555287911   -1.1560012653
 C    0.5620889433   -2.1018817530   -0.7128771754
 H   -2.0232278135    0.4452899619   -1.1543585787
 H   -1.9837484665   -0.9371471045   -0.0485717262
 H   -2.2060242381    0.6979691753    0.5790873689
 H    0.0951496597    1.3323048428   -0.1731181416
 H    0.1220049319    0.0386144416    1.0154559878
 H    1.0590297835   -0.8789173191   -3.0768797920
 H   -0.6263165871   -0.5439126776   -2.6537115141
 H    0.4799267283    1.2953353201   -3.5919033382
 H    2.5854418119    0.5757083283   -1.0968845982
 H    2.3636901438   -0.2897372970    0.4237070391
 H    3.2714446002   -1.4367265412   -2.2418686413
 H    3.8446401893   -1.8382249994   -0.6379166906
 H    1.7949542491   -3.2355385048   -2.1340257459
 H    2.1954810586   -3.5439335531   -0.4594275674
 H    0.3967561264   -2.2718387236    0.3573167786
 H   -0.3021141367   -2.5276148314   -1.2334595145