20

 C    0.0536453502    1.3618208501   -0.2595401799
 C    0.0808669696   -0.1195844128    0.1435273205
 C    0.7063699930   -0.3194295075    1.5307147917
 C   -1.3225938625   -0.6988512118    0.0999633771
 C   -1.9880179114   -1.2461919866   -1.1117371853
 O   -1.0179835564   -1.8948042338   -1.9784755578
 C   -0.7678216315   -2.8450281577   -0.9834897723
 N   -0.0698925325   -3.8846105960   -1.0188447075
 C   -1.6614578818   -2.1981211730    0.0225844864
 H    1.0634700716    1.7841022682   -0.2582061721
 H   -0.3663704293    1.4927982732   -1.2616550115
 H   -0.5524629678    1.9506355542    0.4396590058
 H    0.6902058521   -0.6580436244   -0.5901740642
 H    0.7507649722   -1.3802697017    1.7944925959
 H    1.7250612605    0.0800291905    1.5597067939
 H    0.1253755056    0.1973985021    2.3041851527
 H   -2.0297278779   -0.1912010039    0.7576473039
 H   -2.9266626518   -0.9541370126   -1.5628511021
 H    0.3728405876   -4.0011511518   -1.9319365889
 H   -2.2882953196   -2.7057520846    0.7406090637