19

 O   -0.0179937006   -0.0603386563   -0.2692452045
 C   -0.0208297805    1.1277317138   -0.0709544236
 C   -1.3124548992    1.9482546465    0.0327064719
 N   -1.6323996196    2.2098229254    1.4384331606
 C   -0.8391748936    3.2325979436    2.1194518849
 C    0.5717122698    2.7315797982    2.4728631035
 C    1.5269059165    2.7417753246    1.2927605532
 N    2.2703064220    1.4961553865    1.0110058013
 C    1.2482013754    1.9462231119    0.0693390148
 H   -1.1996311891    2.8751771741   -0.5641273117
 H   -2.1171542972    1.3474500910   -0.3976290081
 H   -2.6146719825    2.4447733677    1.5056964193
 H   -0.7627745368    4.1716651723    1.5370489944
 H   -1.3682330291    3.4752906425    3.0467155972
 H    0.9870203106    3.3493513945    3.2771900753
 H    0.4894159645    1.7092770457    2.8544502337
 H    2.0520864474    3.6823101543    1.1320398172
 H    3.2001421714    1.6969310055    0.6527249602
 H    1.5612467404    2.3818047483   -0.8811849696