20

 C   -0.0766456771    1.5206467646    0.1230268155
 C    0.0172866095    0.0131317962    0.0130383798
 C    1.1056343330   -0.6434931157   -0.9087447491
 C    1.1060147636   -1.8364580817    0.0930311071
 C    0.6398233122   -0.8342872627    1.1747316616
 N    0.0440384600   -2.8052254681   -0.1704579229
 C   -1.2865544035   -2.1868643258   -0.3086405408
 C   -1.3007238969   -0.6488139332   -0.3548127164
 O   -2.3064359497   -0.0397021667   -0.6320759789
 H    0.9021326891    1.9490893523    0.3611316801
 H   -0.4312886643    1.9595007062   -0.8139320859
 H   -0.7829695345    1.8152570367    0.9053018156
 H    0.8507127302   -0.8497885033   -1.9530612764
 H    2.0316332425   -0.0613903202   -0.8704191010
 H    2.0438769101   -2.3730667011    0.2522085053
 H    1.4837230797   -0.3019166504    1.6200890957
 H   -0.0150336861   -1.2061957537    1.9671185011
 H    0.2690380818   -3.3125244503   -1.0186517368
 H   -1.8066103751   -2.5536175774   -1.1983037239
 H   -1.9252637446   -2.4631884756    0.5432710900