22

 C   -0.6449562153    1.0892800967    0.0985260169
 O   -0.2757064260   -0.2658355970    0.1560149905
 C    0.8033033044   -0.5444793695    1.0420024296
 C    0.3351329953   -0.6376682972    2.5104509329
 C   -0.0979334792   -2.1185978101    2.7242859854
 C    0.2364533143   -2.8476623460    1.4010450479
 C    1.3062850753   -1.9655589043    0.7306947392
 C    1.5652629126   -2.2548491507   -0.7454875284
 H    0.1971852919    1.7267788014   -0.2154811016
 H   -1.4465162181    1.1765708257   -0.6397375295
 H   -1.0173828835    1.4700173852    1.0617900755
 H    1.5884838290    0.2146873796    0.9019246414
 H    1.1615688972   -0.3722822464    3.1779268150
 H   -0.4715786150    0.0712967888    2.7143436883
 H    0.4556845282   -2.5580081666    3.5598227252
 H   -1.1584817969   -2.2029478819    2.9746547305
 H    0.5763241394   -3.8757199624    1.5567547375
 H   -0.6465966084   -2.8879059726    0.7546273562
 H    2.2458478444   -2.0847076511    1.2895339615
 H    0.6599685135   -2.0885750443   -1.3339974876
 H    2.3508544473   -1.6053877346   -1.1473523174
 H    1.8864232196   -3.2918292626   -0.8890400190