15

 C   -0.4611410559    1.4416273557   -0.0543816001
 C    0.1954258307    0.0655110725    0.1148747999
 C    0.8232086054   -0.4386768469   -1.1639736042
 C    0.6686122881   -1.8417289803   -1.6152446864
 O   -0.0674167178   -0.8037583106   -2.2372698015
 C    2.0545438028    0.2551181481   -1.6671768044
 O    2.7196183003    1.0192003510   -1.0157526790
 H    0.2793438430    2.1975601808   -0.3285256523
 H   -1.2285392277    1.4095162681   -0.8334436822
 H   -0.9361157319    1.7576017409    0.8785505134
 H    0.9801908542    0.1155996568    0.8773272177
 H   -0.5458003125   -0.6654644566    0.4538114050
 H    1.4340063293   -2.3119447114   -2.2323962128
 H    0.0997922712   -2.5181853266   -0.9790115449
 H    2.3036933808   -0.0056010214   -2.7202404382