18

 C    0.3796070540    1.3471949283    0.1456686180
 C   -0.3843788287    0.0855533563   -0.2654042366
 N    0.2092706183   -0.5969087485   -1.4043952656
 C    1.0046626790   -1.6990013746   -1.2653801931
 O    1.2429135608   -2.2370748178   -0.1984498469
 C    1.5423120922   -2.1892757413   -2.5271746920
 C    2.0133409879   -2.6308915238   -3.5446576440
 C    2.5666981675   -3.1448461220   -4.7904934277
 O    3.4185417886   -4.2461903164   -4.5198454374
 H    1.4049551514    1.0980369440    0.4325251684
 H    0.4193343830    2.0739574905   -0.6728768007
 H   -0.1101999266    1.8275853085    0.9986985370
 H   -0.3927352004   -0.6368837764    0.5532731572
 H   -1.4246311087    0.3307686833   -0.5084595279
 H    0.1216250746   -0.1921824773   -2.3227480370
 H    1.7324109059   -3.4305207825   -5.4525519275
 H    3.1080219221   -2.3288574728   -5.2975966323
 H    3.7595844790   -4.5617914875   -5.3629850119