20

 C    0.0462846681    1.5789290979   -0.1255739234
 C    0.0487623213    0.0560122286   -0.0226138288
 C    0.8364491756   -0.6641288046   -1.1524113581
 C    1.2930182480   -1.9855573865   -0.5493342800
 N    2.4834775563   -1.8826960570    0.2817759249
 C    1.1697341167   -1.8799788320    0.9595513571
 C    0.6401120231   -0.4976801152    1.3038774599
 C    0.7980547716   -3.0994163285    1.7083614489
 O    1.3809490890   -4.1555229790    1.5983831352
 H    1.0665539178    1.9752962508   -0.0687081743
 H   -0.3900159454    1.9135921507   -1.0726639242
 H   -0.5342944569    2.0320899901    0.6850743233
 H   -0.9891516242   -0.2985651272   -0.0812190555
 H    0.2184827693   -0.8141055037   -2.0421055724
 H    1.7148358856   -0.0800147683   -1.4481243295
 H    1.0830923389   -2.9306485998   -1.0409037448
 H    2.8722320543   -2.8190044274    0.4143717153
 H    1.4619468444    0.1314636580    1.6617599704
 H   -0.1156995934   -0.5376974608    2.0957769810
 H   -0.0747487603   -2.9913945562    2.3881948550