17

 O   -0.0046269974    0.1028864593    0.5454494512
 C    0.0107100463    1.2020900227    0.0562225416
 O   -1.1420533332    1.7432314262   -0.4039007012
 C   -1.1489284166    3.0374407352   -1.0297307469
 C   -0.0185758316    3.9081789267   -0.5211838338
 O    1.2046475136    3.2306606696   -0.7487516071
 C    1.2556981152    2.0376847446   -0.0161018189
 C    2.1425110569    2.0075388596    1.2246298567
 C    2.5748952807    1.3215055994   -0.0397854550
 H   -1.0550422620    2.8985643005   -2.1128262999
 H   -2.1286438196    3.4729693622   -0.8128724506
 H    0.0211502422    4.8477119868   -1.0786477748
 H   -0.1492463849    4.1355548347    0.5478408864
 H    2.6163604713    2.9497877958    1.4746036781
 H    1.8146934278    1.3945783258    2.0550692306
 H    2.5376497856    0.2399448302   -0.0740689131
 H    3.3453272558    1.7965984006   -0.6359490336