15

 C    0.0035120581    1.4093477619    0.0620658041
 C    1.4815895401    1.9231649876   -0.0780174008
 C    2.2424377172    0.6306168165    0.0356197094
 C    1.3571244123   -0.3861628766   -0.0720232331
 N    0.0232291899   -0.0498906647   -0.2809252988
 O    1.9309804714   -1.5964132562   -0.0995481949
 C    3.2932242328   -1.3385475399   -0.0004693412
 C    3.5302293630    0.0018431463    0.0680891443
 H   -0.3350467942    1.5482595893    1.0965916248
 H   -0.6879412177    1.9382395660   -0.5976390697
 H    1.6340221825    2.4067579644   -1.0519926806
 H    1.7079937177    2.6714609521    0.6882656124
 H   -0.6469265035   -0.5923447169    0.2523996249
 H    3.9201818873   -2.2125110519    0.0320253662
 H    4.5041959132    0.4598970321    0.1498760333