16

 O    0.1072078841    1.3845011337   -0.2135297340
 C    0.0010993270   -0.0120628563   -0.0638147441
 C    0.6190977196   -0.4413388219    1.2824159070
 O    1.6319826947    0.0380357768    1.7458725215
 N   -0.2043705620   -1.3736030853    1.8518751965
 C   -1.4938296925   -1.4253966881    1.2094830120
 C   -2.2864595855   -0.1295768678    1.1703412160
 C   -1.4188218162   -0.5378307795   -0.0006570096
 O   -2.0202638923   -0.9768235014   -1.1763907323
 H    0.9276441004    1.6307414772    0.2385897064
 H    0.5180492732   -0.5429409729   -0.8803224008
 H   -0.0849315223   -1.5986475558    2.8295649668
 H   -1.9906207944   -2.3864740587    1.1678274969
 H   -3.3542122400   -0.2183215178    1.0045189331
 H   -1.9720323161    0.6921491848    1.8047639628
 H   -2.2935133877   -0.1973876768   -1.6736282681