18

 O    0.0333395185    1.3878957599   -0.1129330006
 C   -0.0020033128   -0.0268367754    0.0024374697
 C   -1.4412887053   -0.4713337407   -0.0560454120
 O   -1.5684969934   -1.9027241614    0.0155883697
 C   -2.4393682025   -1.9278436841   -1.1500871794
 C   -2.3673276542   -0.3913542379   -1.2933422080
 C   -3.3581859093    0.4493547806   -0.4537472200
 N   -3.7644982578   -0.3711882475    0.7079354057
 C   -2.4795190351    0.3641001088    0.7494483676
 H    0.9495618039    1.6710946773   -0.0475663684
 H    0.5584757521   -0.5196135250   -0.8059637935
 H    0.4239684644   -0.3724051793    0.9592179334
 H   -1.9734069753   -2.4836699659   -1.9721247616
 H   -3.4204392483   -2.3457883336   -0.9122682779
 H   -2.0373545350    0.0451083126   -2.2340740990
 H   -3.9760619453    1.2647904143   -0.8078685967
 H   -4.4333425005    0.1789169928    1.2457301616
 H   -2.2734184042    1.0923441045    1.5236877694