21

 C    0.0992788304    1.3598555386   -0.1353466008
 O    0.0392470951   -0.0431059911   -0.0564430500
 C   -1.2828296283   -0.5273038030    0.0635514239
 C   -1.2096221739   -2.0481469655    0.1498191125
 C   -2.5844719693   -2.7558991854    0.0658059602
 C   -3.5341679365   -2.3408147253    1.1991123480
 O   -3.2614899287   -2.3957727998   -1.1464278008
 C   -2.3653873164   -4.2113369687    0.1010423304
 C   -2.1658423794   -5.3969519595    0.0994725664
 H    1.1515802306    1.6385262023   -0.2322657723
 H   -0.4526473377    1.7455782848   -1.0075338686
 H   -0.3129527381    1.8397878026    0.7670271697
 H   -1.7605887570   -0.0992225384    0.9601366626
 H   -1.8895156103   -0.2282320916   -0.8050820035
 H   -0.5843046380   -2.4055653088   -0.6764058198
 H   -0.7041292507   -2.3456078098    1.0744193455
 H   -3.7800851302   -1.2800582614    1.1095186629
 H   -4.4600517406   -2.9155772115    1.1332294643
 H   -3.0739127104   -2.5215407790    2.1734334561
 H   -2.7849563442   -2.8034606197   -1.8781318742
 H   -2.0005084566   -6.4462338297    0.1035999973