16

 O    0.1207322591   -0.0815117853    0.0010186052
 C   -0.0049405829    1.1114380514    0.0091766555
 C   -1.1900370115    2.1158368700    0.0317020885
 C   -0.0906736573    3.2049454409    0.0213947728
 N    0.8981927823    2.1521929525    0.0021721397
 C    0.0307473919    4.4616249270   -0.8766479100
 C   -0.9694080282    5.1966673029    0.0436919701
 C    0.0565739994    4.4528078723    0.9278065985
 O    1.1340178911    4.9152221729    0.0122020801
 H   -1.8286944051    2.0768852175   -0.8525943846
 H   -1.8027948565    2.0675815091    0.9336905100
 H    1.9063754253    2.1909593337   -0.0128307551
 H    0.1850414980    4.5413107761   -1.9530310491
 H   -0.8592004741    6.2805364403    0.0474060498
 H   -2.0107396548    4.8663353790    0.0569857808
 H    0.2416392932    4.5219973197    2.0000546279