17

 O   -0.1247123172   -0.0376425587   -0.0291169121
 C   -0.0303427909    1.1657589491   -0.0765693457
 C    1.2451647853    1.9086770758   -0.0380314094
 C    1.7029322710    2.9550892604    1.0805997005
 C    2.9789797839    2.0928857372    1.2854637473
 C    2.6927802815    1.3593924293   -0.0436258371
 O    3.0384947855    2.1827860080   -1.1849777521
 C    1.8078391546    2.9244025996   -1.0952321899
 C    1.8721401074    4.0316560604   -0.0217853578
 H   -0.9388990632    1.8085805176   -0.1453360111
 H    1.1025838211    3.2011013354    1.9557421568
 H    3.9381477618    2.6104142291    1.3673954955
 H    2.8538993065    1.4110191676    2.1325629761
 H    2.9857548577    0.3183802590   -0.1783346550
 H    1.3781110395    3.1351954195   -2.0766787340
 H    0.9873441597    4.6744127837   -0.0805989209
 H    2.7719198857    4.6521257869   -0.0060212511