18

 C   -0.0443943526    1.5469820318   -0.0161959688
 C    0.0731478828    0.0595447774   -0.0186710336
 C    0.1269245923   -0.8442123624   -1.0675529752
 C    0.2435907741   -2.1807163034   -0.5553203826
 C    0.1673032940   -2.0515833624    0.8097008117
 C    0.7016983485   -2.3761432980    2.1890213194
 C    1.9482770663   -1.5256616134    2.4070979794
 C    0.5876158963   -0.8808605345    2.4699943298
 N    0.0165326129   -0.7119862075    1.1228068495
 H    0.7689685548    2.0227909573    0.5461440890
 H   -0.0046397332    1.9275965639   -1.0396573005
 H   -0.9868400611    1.8852415430    0.4315996013
 H    0.0364240793   -0.5751019734   -2.1112527047
 H    0.3507331522   -3.0837579501   -1.1361220653
 H    0.4331611438   -3.1988269347    2.8369829938
 H    2.4507753086   -1.6499915370    3.3638241654
 H    2.6049978795   -1.3144897445    1.5691600032
 H    0.1831816114   -0.3597553921    3.3276526880