21

 C    0.1143002752    1.4595726302    0.2748605365
 C    0.0937190815    0.0075615226    0.1783985353
 C    0.0592469411   -1.1943223913    0.1004839752
 C    0.0501816023   -2.6362081447   -0.0048147751
 C   -0.8098527341   -3.4118738540    0.9135998803
 O   -1.2009404209   -3.2125162721   -0.4407901726
 C    1.2896681891   -3.2918512482   -0.6112419980
 C    1.4761584741   -2.8582188539   -2.0709753487
 C    2.5381228873   -3.0125702875    0.2354213130
 H    0.8994248117    1.8895463631   -0.3564097074
 H   -0.8415872325    1.8869679158   -0.0472003492
 H    0.2957038860    1.7890840874    1.3038777829
 H   -0.5188119049   -4.4290297367    1.1762443187
 H   -1.4073935682   -2.8875525550    1.6571740081
 H    1.0881272392   -4.3700976828   -0.5978981945
 H    1.6671840980   -1.7821361617   -2.1369803256
 H    2.3243289171   -3.3816095155   -2.5233036286
 H    0.5814910156   -3.0815188205   -2.6591882819
 H    2.4101249643   -3.3596149819    1.2660421820
 H    3.4094731420   -3.5222326257   -0.1873583820
 H    2.7556527262   -1.9402370876    0.2669536914