19

 C   -0.2137153894    1.4644070700    0.0309261382
 C   -0.0227756999   -0.0150577370   -0.0381681517
 C    0.1147715485   -0.7966159377   -1.1038993478
 C    0.2373322132   -2.2340181932   -0.6962925638
 O    0.2805996210   -2.2106041411    0.7286428086
 C    0.0020893775   -0.8893143249    1.2169848241
 C    1.1078456303   -0.5065809888    2.2131768877
 C   -1.3138532360   -0.8629096111    1.8832300892
 C   -2.3864777895   -0.8220643368    2.4249780304
 H    0.6098477740    1.9517069123    0.5666760638
 H   -0.2733362217    1.9028591328   -0.9681647407
 H   -1.1343953546    1.7099690531    0.5728572556
 H    0.1198804314   -0.4709720662   -2.1371795519
 H   -0.6150912787   -2.8388641464   -1.0464655639
 H    1.1523049473   -2.7147401687   -1.0716376810
 H    2.0721001291   -0.4897286225    1.6980670629
 H    0.9154261892    0.4746807950    2.6553509761
 H    1.1472739985   -1.2462814673    3.0161567669
 H   -3.3348610003   -0.8004341415    2.9027109972