19

 O    0.1517993170    0.1079540727    0.3883048953
 C    0.0447147389    1.2753265249    0.1242635194
 C   -1.2406241992    2.0005715512   -0.2859567898
 O   -0.8599792879    3.3234084443   -0.6077452896
 C    0.3101655589    3.6330578764    0.1507821102
 C    1.1484285363    2.3462813759    0.1619759019
 C    2.1265640488    2.1848452230    1.2972996921
 C    3.2899361467    1.2373971000    1.1724067565
 C    3.5337681173    2.7248661283    1.1845090685
 H   -1.7169182942    1.5315692890   -1.1519073453
 H   -1.9508891357    1.9640128063    0.5578647777
 H    0.8010695784    4.4804744667   -0.3311494066
 H    0.0427353678    3.9252507363    1.1801044820
 H    1.6785673303    2.2670169598   -0.7984453057
 H    1.6703156386    2.2470655759    2.2821590611
 H    3.5711926814    0.6592455643    2.0447892437
 H    3.4100507997    0.7066968782    0.2346210170
 H    3.8213970578    3.2012452237    0.2527203663
 H    3.9836390091    3.1691291332    2.0652342853