17

 C   -0.0295703972    1.4698810660    0.0981646315
 C    1.3583622130    2.1457881857   -0.0160621745
 C    2.1931122728    1.4481752575   -1.0530834449
 C    1.9725288380    0.1246890440   -1.3127630832
 O    2.8801983057   -0.3520278833   -2.2077291824
 C    3.6933909601    0.6947100574   -2.5214825528
 C    3.3252687307    1.8177878131   -1.8415436337
 C    0.9486301964   -0.6812336093   -0.6983784504
 C    0.0101878936   -0.0437630784    0.0203531907
 H   -0.5203242156    1.7913269880    1.0223088099
 H   -0.6698819073    1.8304584732   -0.7232026525
 H    1.2314095529    3.2093227214   -0.2419044508
 H    1.8743822874    2.0982532078    0.9550944452
 H    4.4684923420    0.4837096247   -3.2393793672
 H    3.8023377407    2.7840682419   -1.9041766280
 H    0.9625761986   -1.7585716541   -0.8203161222
 H   -0.7869774518   -0.6004411858    0.5022443153