23

 C   -0.0594316690    1.5461571956   -0.0789688772
 C    1.4916748803    1.4930470176   -0.0980266236
 C    1.4133695137    0.0988974322    0.5892135379
 C   -0.0752750549    0.0101038051    0.1452792260
 C    2.3823768663   -0.9866080474    0.1508853674
 C    2.1070469317   -2.3822061109    0.7293642161
 C    2.7057964695   -3.2998845585   -0.3442878551
 C    2.3802655535   -2.5279743878   -1.6302744086
 O    2.3270453117   -1.1469171645   -1.2739346978
 H   -0.4372269131    2.0874936798    0.7936123269
 H   -0.5629344543    1.9310337827   -0.9689297774
 H    1.8800301161    1.3980046388   -1.1148833064
 H    2.0378052804    2.2854527131    0.4202410671
 H    1.4870053471    0.2057293236    1.6780689726
 H   -0.8005882309   -0.3948392559    0.8554702460
 H   -0.1581605963   -0.5309821549   -0.8009277653
 H    3.4053534952   -0.6731590987    0.4231021083
 H    2.5491975602   -2.5193065610    1.7191739945
 H    1.0262080207   -2.5443072017    0.8144111651
 H    3.7898750564   -3.3834958338   -0.2119594266
 H    2.2885105031   -4.3099306408   -0.3422215827
 H    3.1340948890   -2.6666674106   -2.4139569529
 H    1.4073531437   -2.8353173220   -2.0413473242