13

 O    0.2233919915    1.2866613795    0.4312720730
 C    0.0007555932   -0.0335859336    0.0382967165
 C   -1.4742171900   -0.3974105255   -0.1764008105
 O   -1.4572726532   -1.4707547055   -1.1513825112
 C   -0.3397256805   -1.4057335299   -1.9297439444
 N   -0.0880243914   -2.1001027881   -2.9512178005
 C    0.5730649833   -0.3573375963   -1.3345455839
 O    1.5144400798    0.1949683244   -1.8365448575
 H    0.9885136876    1.5960705750   -0.0760029556
 H    0.4426958623   -0.7535857821    0.7508987247
 H   -1.9833986401   -0.7739998462    0.7104788699
 H   -2.0185550965    0.4642624705   -0.5775358815
 H   -0.8578944861   -2.7407573421   -3.1590699191