20

 O    0.0431661428    1.3681662230    0.2355049974
 C    0.0370820236    0.0009627555   -0.1314043931
 C   -1.3724483182   -0.5376149927   -0.1330067950
 C   -2.5059780404    0.1031569426   -0.9376973154
 C   -3.3589676303   -0.5494678762    0.1673768187
 C   -3.2009730706   -2.0526770136   -0.1689179480
 C   -1.6911549042   -2.0693415974    0.1474009261
 C   -1.7438736928   -1.6520372061    1.6292155223
 N   -2.1907028639   -0.2986400511    1.1543741434
 H   -0.5840648191    1.4386075491    0.9686920274
 H    0.4688564284   -0.0695758500   -1.1369438478
 H    0.6775198940   -0.5969919749    0.5378409531
 H   -2.4515791349    1.1896637509   -0.8553408124
 H   -2.6797661821   -0.2017882757   -1.9722222909
 H   -4.3353546976   -0.1703338295    0.4650172600
 H   -3.7691153606   -2.7302597408    0.4741448939
 H   -3.4524508258   -2.2676479888   -1.2104170448
 H   -1.0834039692   -2.8934418245   -0.2287064123
 H   -2.4333225782   -2.1806934224    2.2952964442
 H   -0.7710799110   -1.5532136276    2.1161771435