17

 C   -0.2398384357    1.5219708568    0.0546106399
 C    0.0336263691    0.0213431701    0.0036972112
 C    0.9398239846   -0.4581598440   -1.1467056029
 O    1.4720268986   -1.7067185169   -0.7194687458
 C    1.7417052734   -1.6036454878    0.6715224017
 C    0.7980752870   -0.5393377394    1.1837437829
 N    0.6574970661   -0.1171525590    2.3726169929
 O    1.5059961883   -0.8176087685    3.2525927532
 H    0.6962639245    2.0877468467    0.0993978195
 H   -0.7960249105    1.8480814529   -0.8299878153
 H   -0.8246528170    1.7755145306    0.9418634332
 H   -0.9180514655   -0.5233972207   -0.0700113951
 H    0.4090988838   -0.6239482709   -2.0871089199
 H    1.7462450499    0.2739551867   -1.3239781090
 H    1.5803481089   -2.5775556682    1.1440248464
 H    2.7847680772   -1.3069635143    0.8679425758
 H    1.3118076772   -0.4028689841    4.0995889313