19

 C   -0.0739211112    1.5029592158    0.0529359019
 C   -0.0896855796    0.0152246873   -0.0377921226
 C   -0.0921037202   -0.7969788484   -1.0936269884
 C    0.0240382960   -2.2259051870   -0.5811675408
 C    1.4991224813   -2.6398624755   -0.4070944969
 C    2.2172903817   -1.5627527220    0.4386358381
 O    1.4272635905   -1.0689916510    1.5272388645
 C    0.0590021578   -0.8945174713    1.1875954378
 O   -0.4903910958   -2.1179571721    0.7577419146
 H    0.8271781854    1.8466591956    0.5757251035
 H   -0.0979476437    1.9706573882   -0.9348059453
 H   -0.9303218545    1.8755119733    0.6289761126
 H   -0.0787943727   -0.5200288059   -2.1404301533
 H   -0.5641017270   -2.9671484521   -1.1273798291
 H    1.5166903933   -3.6082560474    0.1020571632
 H    2.0167400035   -2.7491523180   -1.3670461316
 H    3.1268858413   -1.9648722508    0.8923397909
 H    2.5098361076   -0.7289410108   -0.2132413806
 H   -0.4379895238   -0.5698837977    2.1039184814