16

 C   -0.0113378597    1.5549741879    0.0550293706
 C    0.0040692679    0.0255552581    0.0269220886
 C   -1.4131786236   -0.5745140655   -0.0506816095
 C   -1.4070938933   -2.0660377623   -0.0516332745
 N   -1.6022173250   -2.8190001005   -1.1312661860
 N   -1.4720877159   -4.0373911154   -0.6215490034
 N   -1.2166641137   -4.0721975739    0.6769837812
 N   -1.1705876693   -2.8226352650    1.0562231055
 H    1.0041531694    1.9586330887    0.1085094748
 H   -0.4862425235    1.9643961824   -0.8435187794
 H   -0.5653458447    1.9299566252    0.9226582200
 H    0.5872240880   -0.3274246277   -0.8320886047
 H    0.5026119465   -0.3630317377    0.9220039403
 H   -1.9999953178   -0.2289020217    0.8077390116
 H   -1.9187757650   -0.2278424740   -0.9570916311
 H   -1.5704360003   -4.8759176984   -1.1739649941