22

 C   -0.0763491211    1.4488240349   -0.1633687405
 C   -0.0472763621   -0.0806002840   -0.1178299159
 C   -1.4401863311   -0.6908095005    0.0455425107
 C   -1.4284851044   -2.2142513868    0.0463923239
 O   -0.4679201816   -2.8777054792   -0.2845715208
 N   -2.5870180944   -2.7967517896    0.5451499511
 C   -3.9545138350   -2.5955587297    0.1155690392
 C   -3.2845325943   -3.9414009641    0.0069972481
 C   -2.9121606642   -4.5165522079   -1.3393815262
 H    0.9315889727    1.8594749431   -0.2768723474
 H   -0.6793062057    1.8124034947   -1.0034956859
 H   -0.5044497475    1.8684848873    0.7540837518
 H    0.4095420263   -0.4817333037   -1.0277071398
 H    0.5892014448   -0.4200991070    0.7069454467
 H   -1.9238556782   -0.3419799585    0.9660143343
 H   -2.0964704115   -0.3595498740   -0.7727901874
 H   -4.6833032390   -2.3998030546    0.8984541059
 H   -4.1240070812   -2.0526126097   -0.8126600327
 H   -3.5483026508   -4.6811489529    0.7619981749
 H   -2.7662234877   -3.7287112706   -2.0839172387
 H   -1.9804172236   -5.0835989824   -1.2726156100
 H   -3.7052706306   -5.1829131446   -1.6934351110