18

 C    0.0817080470    1.3545019565    0.1649310740
 O    0.0548380164   -0.0499104972    0.0540280134
 C    0.6413610483   -0.5780355874   -1.1296155104
 C    2.1601588556   -0.6930983094   -1.0066887714
 C   -0.0236879870   -1.9629210034   -1.3089719044
 O    0.1333987975   -2.7397871119   -0.1326760772
 C   -1.4338856352   -1.8247131806   -1.6968511709
 C   -2.5870133163   -1.7105988984   -2.0157716287
 H    1.1056445889    1.7521339790    0.2137102421
 H   -0.4388086249    1.8347699537   -0.6769611974
 H   -0.4348314175    1.6133722977    1.0923996278
 H    0.3728064929    0.0523201365   -1.9904553743
 H    2.6109444272    0.2752473801   -0.7729610908
 H    2.4153100957   -1.4026591798   -0.2160345249
 H    2.5953890909   -1.0449973564   -1.9476156740
 H    0.5097821751   -2.5054183757   -2.0983365631
 H   -0.2057460274   -2.1896698121    0.5858239275
 H   -3.6071763372   -1.6188078711   -2.2961262971