19

 C    0.0022256979    1.4490208233    0.0717221285
 N   -0.0020965356    0.0104003648    0.0506836567
 C   -1.0848554114   -0.9733816113    0.0465683186
 C    0.0135797701   -2.0915574773    0.0198253349
 C    0.0911711329   -2.9575484906    1.2754926396
 C    0.0670480585   -2.9208262734   -1.2615885504
 C    1.0180826296   -0.9054386496    0.0275546334
 O    2.2173516178   -0.7834500337    0.0178779645
 H    1.0448255789    1.7762652042    0.0664513195
 H   -0.5040800769    1.8679191858   -0.8069614463
 H   -0.4869048033    1.8418649477    0.9719089550
 H   -1.7097706504   -0.9521472595    0.9475270903
 H   -1.7266821431   -0.9260162805   -0.8414180716
 H   -0.7243448551   -3.6888805094    1.2994059078
 H    1.0385341971   -3.5049377393    1.2995705354
 H    0.0325904091   -2.3516470896    2.1853409703
 H   -0.0087574877   -2.2889022122   -2.1522636510
 H    1.0136932475   -3.4669212689   -1.3195317173
 H   -0.7488936760   -3.6514763705   -1.2911048578