16

 C   -0.0802382626    1.5605085633    0.0326333592
 C    0.0556611150    0.0565024835   -0.0521731151
 C    0.6777696193   -0.6896358512   -1.2110095659
 C    1.3530352084   -0.7087356887    0.1485852893
 C    2.6075701807    0.0801902409   -0.0219588109
 O    3.5049511443    0.2649773616    0.7394572096
 O    2.6232610243    0.6192681849   -1.3074500253
 C    1.5908727626    0.0959328544   -2.0816629160
 N    1.4890547980    0.2620894138   -3.3234343730
 H    0.7782288935    2.0856647736   -0.3918913230
 H   -0.9733478887    1.8880041063   -0.5085868363
 H   -0.1836251067    1.8741948988    1.0760195017
 H   -0.7903568729   -0.4806023699    0.3689039616
 H    0.1730475508   -1.5399630358   -1.6480645601
 H    1.3882562265   -1.5631336843    0.8104505926
 H    2.2608815777    0.8255181087   -3.6832148984