16

 C    0.0207622146    1.4468104288   -0.2065926281
 C   -0.1108913332   -0.0278202507   -0.1208524085
 C   -1.1319446153   -0.9181138599   -0.0651683057
 C   -2.6142918857   -0.6876247486   -0.0951947054
 O   -2.9930015230    0.4916182818   -0.7922927747
 N   -0.6181961649   -2.2205782601    0.0374470537
 C    0.6586219113   -2.0341408784    0.0391235557
 O    1.6313020301   -2.9402486454    0.1154792149
 O    1.0718241550   -0.7659264876   -0.0563332828
 H    0.6152867866    1.7495143354   -1.0765286196
 H   -0.9755253671    1.8826303514   -0.2914510073
 H    0.5112462311    1.8590999774    0.6831090116
 H   -3.0930724067   -1.5848183034   -0.5132660992
 H   -3.0089651529   -0.5637103016    0.9201043522
 H   -2.6812885846    0.3993875065   -1.6990258726
 H    1.2012047845   -3.8024967557    0.1782619460