14

 O   -0.0451678186    0.0177718057    0.2509189611
 C   -0.0133512433    1.1871101310    0.0189589278
 O   -1.1315219950    1.9376593622   -0.1811667516
 C   -0.8301397497    3.2670497701   -0.6385278050
 C    0.6692314400    3.4298090357   -0.4993060869
 N    1.1042167472    3.2082564689    0.8786025542
 C    1.2004933553    2.0887727829   -0.1209635262
 C    2.4644189280    1.5594888901   -0.5128502616
 C    3.5339604656    1.1129047297   -0.8303559760
 H   -1.1514539804    3.3588933545   -1.6812373565
 H   -1.3872424897    3.9737289667   -0.0178525976
 H    1.2162401228    4.0950058489   -1.1567378833
 H    2.0450135570    3.5801210602    1.0014806389
 H    4.4744577307    0.7074724534   -1.1123077974