15

 O   -0.1508121283    0.0743919395    0.1921171200
 C   -0.0708315369    1.2414372203   -0.0082319686
 O   -1.0585188416    2.1128281978   -0.3904662508
 C   -0.1321892223    3.2451989255   -0.4637303589
 C    1.0112294774    2.3476196139    0.0575045423
 C    1.6369971076    2.6012123448    1.4446962870
 O    2.9401202472    3.0607269019    1.1263992147
 C    3.2969932039    2.3254643599   -0.0093643123
 O    2.1156857262    2.2072685308   -0.7985120496
 H    0.0005069808    3.5780039304   -1.4941683607
 H   -0.4640275347    4.0616679535    0.1806699208
 H    1.1251239307    3.3651021537    2.0315768175
 H    1.6735632879    1.6609287572    2.0142494870
 H    4.0551167752    2.8742220149   -0.5735786834
 H    3.6608233870    1.3196284160    0.2585881050