19

 C   -0.4024061983    1.0152439448    0.2868956871
 O    0.2066005999   -0.2391288308    0.0644242680
 C    0.7583380392   -0.4161946682   -1.2329858654
 C    1.6177154563   -1.6943789414   -1.2142496890
 C    0.7107765701   -2.8201093071   -1.7626796512
 C   -0.3361843703   -2.0641181702   -2.5330101466
 C   -0.3081580677   -0.7443224008   -2.2880236556
 C   -1.1444367945    0.2355438437   -2.8741090452
 C   -1.8220786654    1.0972056852   -3.3770560055
 H    0.2875893981    1.8435431657    0.0603841911
 H   -1.3114385780    1.1520770721   -0.3117681641
 H   -0.6653488615    1.0564608904    1.3471983808
 H    1.3358010731    0.4805940564   -1.5027589040
 H    2.4771077744   -1.5594426126   -1.8773155248
 H    1.9915779843   -1.8817968637   -0.2061150064
 H    1.2569277432   -3.5320528121   -2.3915966223
 H    0.2488300824   -3.4103975442   -0.9596010166
 H   -1.0421850690   -2.5447480139   -3.2010374585
 H   -2.4290155163    1.8469756966   -3.8204761218