15

 N   -0.0701623835    1.2782855659    0.2635598969
 C    0.0145797707   -0.0617365071    0.0230649155
 O    1.0658295331   -0.6644134982   -0.0731920238
 C   -1.2778417968   -0.7182303525   -0.1270731437
 C   -2.3117428594   -1.3242765672   -0.2553576827
 C   -3.5404155944   -2.0864465429   -0.4425769001
 N   -3.3257732430   -3.5223474440   -0.3221293619
 C   -4.0932155863   -4.2920319532    0.4980143448
 O   -5.0462038957   -3.8925959200    1.1316766363
 H    0.7832250065    1.7826619398    0.4410850598
 H   -0.9537435572    1.7275605787    0.4295171957
 H   -4.2887054114   -1.8275908884    0.3140401671
 H   -3.9760418260   -1.8371091100   -1.4201243340
 H   -2.5138990256   -3.9264898467   -0.7613518879
 H   -3.7487810111   -5.3435784640    0.5141856282