16

 O    0.0925445762    1.2142470962   -0.4632623233
 C   -0.1530180277    0.0772657319    0.3028294422
 C   -1.2902942163    0.0622406340    1.3018527153
 C   -1.3830053099   -0.7304695073    0.0116846435
 O   -2.1314396064   -0.2186400679   -1.0551890387
 C   -3.5094943347   -0.5676595155   -1.0564595496
 C   -4.3260457873    0.1539809261   -0.0791103271
 C   -5.0245103664    0.7476986343    0.6977762619
 H   -0.6261823826    1.2728671786   -1.1059438063
 H    0.7622336639   -0.4505208558    0.5540689224
 H   -1.1747830751   -0.4822955693    2.2331102158
 H   -1.8901384744    0.9623088666    1.3593858316
 H   -1.3478785018   -1.8191830194    0.0456226085
 H   -3.8656357210   -0.3429410095   -2.0674162436
 H   -3.6217705574   -1.6513885268   -0.9033851106
 H   -5.6368700791    1.2693931238    1.3914295881