18

 O   -0.3490099728    1.6080843759    0.2378960330
 C    0.0164674636    0.2546794626    0.0629653058
 C    0.9977170195   -0.1143717293   -1.0904594600
 C    1.7279822486   -1.0778800089   -0.1188749624
 C    1.0344838962   -0.3625913949    1.0713100277
 C   -1.3008743168   -0.4938878627    0.0422317587
 C   -2.0818977055   -0.7001049483   -1.1791037064
 O   -1.3315004084   -1.7709761595   -0.5927257119
 H    0.4527068366    2.1122626941    0.4096250761
 H    0.5782776613   -0.5399834221   -2.0035942986
 H    1.6081794564    0.7556287013   -1.3526267110
 H    1.3772223290   -2.1040633526   -0.2366903558
 H    2.8193377216   -1.0688152714   -0.1338088318
 H    1.6667944293    0.4181954393    1.5090391907
 H    0.6294035514   -0.9746166547    1.8817640795
 H   -1.8402119402   -0.4472100478    0.9898150457
 H   -3.1636403258   -0.8005608324   -1.1131735286
 H   -1.7041314241   -0.3321807885   -2.1308761108