21

 O    0.2484309152    1.3785268677    0.3091774947
 C    0.0740857241   -0.0153072069    0.0612814232
 C   -1.4111837128   -0.4049147050    0.0229208183
 C   -1.6031376133   -1.8827996897   -0.3285057793
 C   -2.9382104872   -2.2078005813   -1.0595319426
 C   -2.1877505712   -2.1545085502   -2.4192895573
 C   -0.8407196385   -2.2752192989   -1.6302559005
 C    0.3323823496   -1.4254808627   -1.9959322831
 C    0.7651261903   -0.4331383403   -1.2164162561
 H   -0.1236055658    1.8510319694   -0.4441313051
 H    0.5575959890   -0.4976456569    0.9219029587
 H   -1.8868105827   -0.1615670270    0.9786890022
 H   -1.8931939168    0.2216987312   -0.7407407656
 H   -1.3756213436   -2.5040394758    0.5431973054
 H   -3.2947116524   -3.2157566557   -0.8303441023
 H   -3.7647249226   -1.5072650571   -0.9128663834
 H   -2.4111448898   -2.9372175794   -3.1476255144
 H   -2.2835137757   -1.1839674038   -2.9129032267
 H   -0.5388644138   -3.3288663812   -1.5954996892
 H    0.8545577524   -1.6582650345   -2.9225551107
 H    1.6469665656    0.1463760479   -1.4794487464