21

 C   -0.0443502058    1.5285431672    0.0048181888
 C   -0.0188300185    0.0234770911   -0.0110378517
 C   -0.0445026554   -0.6707881469   -1.1540859371
 C    0.0141693970   -2.1732469010   -1.2029616637
 C    0.4742067819   -2.7155320018    0.1496515473
 O   -0.2434108428   -2.0858342002    1.2017463920
 C    0.0306006895   -0.7119330683    1.2882707048
 C    1.0306531248   -0.3220725255    2.3704049566
 C   -0.4500582390   -0.1150983988    2.5809992668
 H    0.8051784129    1.9495073074    0.5560811025
 H   -0.0069307665    1.9234052878   -1.0135531625
 H   -0.9537465293    1.9139950074    0.4811256279
 H   -0.1062354970   -0.1382799145   -2.1002794391
 H   -0.9706097609   -2.5877953594   -1.4607153477
 H    0.7028026071   -2.5061173591   -1.9905667325
 H    0.2801684470   -3.7871725799    0.2463325428
 H    1.5553337445   -2.5482238084    0.2757640298
 H    1.4992429326   -1.1482178734    2.8927292364
 H    1.6625825234    0.5461633292    2.2213792156
 H   -0.8397536210    0.8956255868    2.5804786536
 H   -0.9625843146   -0.8020278499    3.2443665793