16

 C    0.0223817858    1.6886449698    0.1946780875
 C   -0.0270179296    0.1644963838    0.0415795454
 C    0.7657290806   -0.5212127931    1.1788802635
 C    0.7842088534   -1.9784556336    1.0781150015
 N    0.7930617004   -3.1310729589    1.0021899199
 N   -1.3917854931   -0.3353031845   -0.0069844875
 C   -1.9779301545   -0.7645473249   -1.1623143240
 O   -1.4439437854   -0.7756136548   -2.2491265293
 H    1.0557862029    2.0493610388    0.1927527943
 H   -0.5083255004    2.1636479515   -0.6335570119
 H   -0.4469556275    2.0092160901    1.1319767891
 H    0.4114150680   -0.1178181835   -0.9188122717
 H    1.7969975406   -0.1524635149    1.1747968538
 H    0.3407535873   -0.2443289877    2.1524752892
 H   -1.9465617501   -0.3315519758    0.8354071054
 H   -3.0162858585   -1.1083374724   -0.9913729453