18

 C   -0.3768187724    1.6217265889   -0.0107613795
 C   -0.0666762750    0.1212527087    0.0265111957
 C    1.1589797033   -0.3499370283   -0.8532218518
 C    1.8935194805   -0.8006257732    0.4199617872
 O    2.6645839169    0.2615788681    1.0258298492
 C    1.6320747538    0.5092796534    2.0106672908
 C    0.6686087599   -0.4516803671    1.3071059011
 C   -1.2743074820   -0.6469969858   -0.2594510454
 N   -2.2273547225   -1.2643224473   -0.4797565200
 H    0.5384232004    2.2017649523    0.1278323250
 H   -0.8043321992    1.8933525258   -0.9801261248
 H   -1.0941458692    1.9003697031    0.7667671095
 H    0.9082589616   -1.1670945250   -1.5323911418
 H    1.6582945656    0.4477821558   -1.4066363291
 H    2.4234710363   -1.7557889295    0.4179081957
 H    1.9375750650    0.1558818649    3.0039370162
 H    1.3590457260    1.5672513880    2.0797347423
 H    0.1034618408   -1.1617654128    1.9065569298