22

 C   -0.0910810026    1.5365148550   -0.0011829333
 C   -0.0135242803    0.0184129576    0.0335979072
 C   -1.2138515296   -0.6230311804   -0.6449553253
 C    1.3477680831   -0.6576832795   -0.1966871252
 C    2.5277469199    0.1198495957   -0.4359360985
 N    3.4782098673    0.7542172604   -0.6240652329
 C    0.6804461992   -0.6794122802    1.1880264669
 C    1.2985470195    0.1391725927    2.3103812093
 C    0.1849962772   -2.0296501492    1.6820591661
 H    0.8232787324    2.0245470602    0.3364195515
 H   -0.2815937718    1.8778993962   -1.0242708143
 H   -0.9182806595    1.8898939256    0.6245748829
 H   -1.3191160883   -0.2361665105   -1.6642782937
 H   -1.1425490821   -1.7098300789   -0.7124604283
 H   -2.1363138775   -0.3808152807   -0.1046196139
 H    1.3290196503   -1.5918853150   -0.7501287034
 H    1.7988120133    1.0428961502    1.9622353869
 H    0.5309424181    0.4312370634    3.0357765065
 H    2.0452186314   -0.4597596651    2.8426507662
 H    0.9959923841   -2.5639439117    2.1885963078
 H   -0.6264938884   -1.8999285494    2.4074688219
 H   -0.1827706358   -2.6742429062    0.8820422354