16

 O    0.0918709042    0.0006754974   -0.4119925526
 C    0.0632954083    1.1817870594   -0.1455887023
 N    1.1242951563    1.9000417240    0.3280600041
 C    2.5689421875    1.5998129599    0.1819651594
 C    2.8200786035    1.9667849864   -1.3003322526
 C    2.4683832948    3.4511320930   -1.0779676982
 O    3.5279000096    3.8553199600   -0.1602230954
 C    2.8411011490    3.0625980740    0.8004142783
 C    1.4616439688    3.3074067090    0.1690434477
 H   -0.8574008702    1.7988579016   -0.2006194721
 H    2.9411340049    0.6692486515    0.5988880364
 H    3.8591773357    1.8697191381   -1.6187418568
 H    2.1601082844    1.4129452176   -1.9697475141
 H    2.3234897088    4.1306028547   -1.9149040115
 H    3.1313462021    3.1891629582    1.8404574733
 H    0.7514072823    4.0922925951    0.4175858764