17

 C    0.0429221336    1.4912053124    0.0271286500
 C    0.0436016283   -0.0056609812   -0.0373015513
 C   -0.9418999816   -0.9087456550    0.7293718156
 O   -1.0552390951   -2.1511852840    0.0343498178
 C    0.3832993241   -2.0637149266   -0.1677753922
 C    0.5194912992   -1.0253597201    1.0014788870
 C    0.5496252069   -0.8982097909   -1.1928406038
 C   -0.2318836137   -0.9534638710   -2.4806088560
 O    0.1993484777   -0.5787328353   -3.5443678219
 H    1.0431182086    1.8994324403   -0.1541191456
 H   -0.6341767524    1.9201505917   -0.7196882875
 H   -0.2845794862    1.8404554572    1.0124729152
 H   -1.7765564717   -0.5520933880    1.3184937642
 H    0.8698244829   -3.0285570437   -0.2887439855
 H    1.1345504558   -0.9498975146    1.8872658203
 H    1.6024721954   -0.6894799197   -1.4010447816
 H   -1.2592473218   -1.3618448916   -2.3811855848