19

 C   -0.1700051548    1.6233082863   -0.0264607627
 C   -0.0484160994    0.1067077719   -0.0044262794
 C    1.1790881777   -0.5808086695   -0.6552396622
 O    1.5139364088   -0.6761471512   -1.9914364600
 C    2.1472646964   -0.2720340005    0.5530642572
 C    2.5822602530   -1.7487572622    0.6551800479
 C    1.0894719030   -1.8290112902    0.2741320820
 C    0.7196919271   -0.5915049405    1.1468740695
 O    0.3742889585   -0.7027391626    2.4791525129
 H    0.7801497442    2.1117956696    0.2186624540
 H   -0.4836822942    1.9821640906   -1.0132863438
 H   -0.9188647295    1.9720967551    0.6936440664
 H   -1.0031629892   -0.3754020740   -0.2506743498
 H    1.7158828797    0.2065463275   -2.3200648481
 H    2.7359281470    0.6336519368    0.7085145612
 H    3.2949808451   -2.1005639499   -0.0950393520
 H    2.8498101631   -2.1109297996    1.6510790993
 H    0.4491978111   -2.6956931848    0.1057716505
 H    0.3919789324    0.1756108270    2.8742657373