18

 C   -0.0424872783    1.5711319157    0.1315398762
 N    1.4921993870    1.5259813996   -0.0449590366
 C    1.2011130717    0.3531102253   -0.9504659223
 C    1.1953715107   -1.2025378745   -1.2348638416
 C    1.7690759954   -2.1266954380   -0.1693970547
 C    1.2394955872   -1.7037181353    1.1756454438
 C    0.4236347202   -0.6544678314    1.2190012138
 C    0.0564219235    0.0224275318   -0.0814934968
 O   -0.2870554951   -1.0809006261   -1.0471813130
 H   -0.3657684509    1.9354092029    1.1112968403
 H   -0.5512455101    2.1058566211   -0.6775545907
 H    1.8508002634    2.3338847515   -0.5512966920
 H    0.8074411749    0.7503191780   -1.8961610722
 H    1.4293898117   -1.5137892361   -2.2558816011
 H    1.4860438524   -3.1646689067   -0.3904107396
 H    2.8666654347   -2.0933472081   -0.1970150500
 H    1.5319404656   -2.2574828425    2.0623499409
 H    0.0158224361   -0.2628772474    2.1454425156