17

 O   -0.1036758314    1.2351875133   -0.6556004454
 C   -0.0599297459   -0.1447380065   -0.3811559669
 C   -1.3991807210   -0.6261772104    0.2069826529
 O   -2.4717351005   -0.1751209479   -0.6419194243
 C   -3.0331944583   -1.2648879101   -1.3374374791
 C   -2.6685967924   -1.2389429265   -2.8243424582
 O   -1.8686844550   -0.4861023857   -3.3110864335
 C   -2.4712620620   -2.4981068003   -0.6594499581
 C   -1.5536117309   -2.1216883378    0.2248988795
 H   -0.8320766246    1.3465822827   -1.2801804383
 H    0.1652282788   -0.7318287158   -1.2837657266
 H    0.7434646655   -0.3107664160    0.3455331249
 H   -1.5451617146   -0.1579657201    1.1891795944
 H   -4.1338588529   -1.2183096987   -1.2737589844
 H   -3.2122049376   -1.9949921574   -3.4368978306
 H   -2.7799609120   -3.5060774272   -0.9026348335
 H   -0.9612021851   -2.7722774857    0.8553710071