19

 C    0.0410358191    1.4663203825   -0.0804537121
 C   -0.0069068296   -0.0245623978    0.0159947410
 O    0.6407374464   -0.8351836449   -1.0433133527
 C    0.0970635660   -1.8311340244   -0.1089667146
 C    0.6073141465   -0.9766100410    1.0866801946
 C   -0.1343007699   -1.0848682042    2.4180508986
 C   -1.5339448250   -1.6502613844    2.1597481773
 O   -2.1224457042   -1.0946327397    0.9877478046
 C   -1.2227336439   -1.0002241219   -0.0793482371
 H    1.0722788843    1.8301803975   -0.0364877836
 H   -0.4078977300    1.8034973179   -1.0197989843
 H   -0.5207967890    1.9122453401    0.7466831982
 H    0.2701894632   -2.8809209063   -0.3470148123
 H    1.6954677510   -0.9118197332    1.1605401801
 H    0.3989981472   -1.7412296577    3.1145714944
 H   -0.1906762863   -0.0962083008    2.8901608821
 H   -1.4654082530   -2.7433159339    2.0434898859
 H   -2.2240645457   -1.4435399882    2.9814933907
 H   -1.7767594172   -0.9575845097   -1.0184701008