17

 O   -0.0316176796    1.3172920561    0.1105891199
 C   -0.0114149024   -0.0906371073   -0.0017798751
 C   -1.4441820985   -0.5823607622   -0.0933741174
 C   -1.3504156841   -0.6752879387   -1.6049576216
 C    0.2070984671   -0.5946310562   -1.4956123088
 C    0.6752842952   -2.0305717374   -1.4294135561
 C   -0.3246299686   -2.7859437360   -0.9669242772
 C   -1.5559718692   -1.9407621976   -0.8324832578
 O   -2.8217634862   -2.5180712348   -0.8648641876
 H    0.8733956832    1.6309847928    0.0097333787
 H    0.6511910425   -0.5411865559    0.7521336397
 H   -2.2672290225   -0.2383468951    0.5216985093
 H   -2.0086330299   -0.3091391303   -2.3823288941
 H    0.7611242593    0.0943471076   -2.1325035223
 H    1.7046251455   -2.3364436049   -1.5696587787
 H   -0.2947847882   -3.8352248280   -0.7010867016
 H   -3.0302311137   -2.8407100921    0.0181460606