21

 C   -0.0601547480    1.4885594785    0.0291659960
 C    0.0636722434    0.0012759024   -0.0299119029
 C    0.0575251757   -0.8004390394   -1.1041405747
 C    0.0382180180   -2.2243211876   -0.5824599354
 C    0.9208982773   -2.0951831401    0.6645952726
 C    0.0734816585   -0.9095882181    1.2058338377
 C    0.4538585902   -0.2992842000    2.5422162580
 C   -1.3216392134   -1.6183152077    1.1695332350
 O   -1.2775605714   -2.4542479953    0.0124052186
 H    0.7859330456    1.9447550374    0.5577280617
 H   -0.1073463720    1.9216047380   -0.9736924943
 H   -0.9645603400    1.7944604532    0.5710819875
 H   -0.0612893916   -0.5064906272   -2.1397548885
 H    0.2270513379   -3.0322673860   -1.2870691050
 H    0.8933372343   -2.9838559573    1.3031105380
 H    1.9521356066   -1.8105243247    0.4480743066
 H    1.4559792497    0.1408396814    2.5085758469
 H   -0.2449182589    0.4903361688    2.8401072412
 H    0.4494717461   -1.0583827834    3.3316819347
 H   -1.4705332264   -2.2369895690    2.0651995256
 H   -2.1506303316   -0.9030701338    1.0956139908