20

 C    0.2506141905    1.8175249895   -0.1691461592
 C   -0.0409963982    0.3393914664   -0.0306955108
 C    0.2723965620   -0.7095611825   -1.0410110763
 C    1.2585464025   -0.4221705922   -2.1655519914
 C    2.5682408987    0.0465386520   -1.4728771054
 C    2.3688670461   -0.3550531800    0.0246199745
 N    0.9623594243   -0.7069586888    0.2627195265
 C    3.7833048343   -0.6318492581   -2.0635804080
 O    4.7457590202   -0.0684861511   -2.5144133504
 H    1.0279012052    2.0541481638   -0.8961337047
 H   -0.6611662452    2.3357514072   -0.4842675381
 H    0.5487167341    2.2443062231    0.7952004929
 H   -0.9425818118    0.1600825327    0.5543800917
 H   -0.4401835488   -1.5133794381   -1.2103113834
 H    1.4298539772   -1.3476453011   -2.7287451774
 H    0.8971946575    0.3213498716   -2.8819037433
 H    2.7212933214    1.1209507093   -1.5808249409
 H    2.9638209917   -1.2450959168    0.2630790464
 H    2.6966675664    0.4407877197    0.6996657287
 H    3.7248670319   -1.7478965870   -2.0453776814