21

 O    0.2753737986    1.0959196368   -0.6424437752
 C    0.0761465228   -0.0944027226    0.0836103395
 C   -0.1573613484   -0.0240751621    1.6163989510
 C   -1.3021509395   -1.0596812515    1.4365205788
 C   -1.3324630075   -0.7256466008   -0.0884183021
 C   -2.4204152018    0.2649740535   -0.5037011771
 C   -3.8041384120   -0.4098633265   -0.6061792397
 C   -4.8632070251    0.5168340308   -0.9866794715
 C   -5.7183367858    1.3009782117   -1.3014989949
 H    1.1569056714    1.4281166954   -0.4463909169
 H    0.8548398113   -0.8342688476   -0.1542393349
 H    0.6749100251   -0.2855827808    2.2747250810
 H   -0.5387544800    0.9609509499    1.8988714780
 H   -0.9743640398   -2.0833741346    1.6338020257
 H   -2.2219135884   -0.8787630112    1.9984712294
 H   -1.3611498689   -1.5920384494   -0.7581350457
 H   -2.4777441229    1.0960500190    0.2074020849
 H   -2.1623755185    0.7089627013   -1.4695906448
 H   -3.7553503180   -1.2274161289   -1.3380191272
 H   -4.0609900337   -0.8796632185    0.3523188328
 H   -6.4800779787    1.9854751060   -1.5807934811