21

 O   -0.3133686556    1.4317110356   -0.2990884001
 C   -0.1516785329    0.0478794799   -0.1729682218
 C   -0.3465787482   -0.6247989791    1.1607381666
 C   -1.4007234700   -0.7512722594    0.0847241831
 C   -2.7546261152   -0.0370222703    0.1911595959
 C   -3.7763589441   -1.0277988136   -0.4176159213
 C   -2.9494646109   -1.8663727918   -1.4011088722
 C   -1.6261790277   -2.0871182167   -0.6512445389
 O   -0.5474228827   -2.5338764032   -1.4525972855
 H    0.4351871058    1.8592465690    0.1291933674
 H    0.5950656355   -0.3897850001   -0.8343955393
 H    0.2708018001   -1.4903859023    1.3834370745
 H   -0.5794102249    0.0099479317    2.0106123942
 H   -3.0081340997    0.2312914615    1.2206609004
 H   -2.7270672891    0.8960725181   -0.3796421785
 H   -4.1857397744   -1.6784747936    0.3643155133
 H   -4.6232428269   -0.5228248893   -0.8894807044
 H   -3.4254376167   -2.8029728308   -1.7026307104
 H   -2.7470378361   -1.2867340768   -2.3135490017
 H   -1.7589517908   -2.8845974149    0.0909186085
 H   -0.4607681852   -1.9186183641   -2.1893560097