20

 C   -0.1174780399    1.5922907208   -0.0930828401
 C   -0.0781637185    0.0636490762   -0.1316084483
 C    0.8044436883   -0.5088640230   -1.2652517257
 C    2.2037264098   -0.0915109807   -1.1008646795
 N    3.2990798593    0.2526148975   -0.9693114853
 C    0.7086425890   -2.0339920739   -1.3620395554
 O    1.1065372353   -2.7155062706   -0.2070443358
 C   -0.3887151016   -2.6383720692   -2.2036403121
 C    1.0617235135   -2.7160503647   -2.6445331388
 H    0.8823437626    2.0097996655    0.0581670926
 H   -0.5154102302    2.0024222550   -1.0277174458
 H   -0.7558572184    1.9420342566    0.7232020972
 H    0.2903416834   -0.3214944948    0.8255887505
 H   -1.0892454083   -0.3358863216   -0.2750317337
 H    0.4560718189   -0.0908658262   -2.2184636940
 H    0.4047402679   -2.6401809739    0.4486218714
 H   -0.8424345279   -3.5493085680   -1.8298911307
 H   -1.0623337536   -1.9814802387   -2.7441196830
 H    1.3830864872   -2.1098045381   -3.4841873912
 H    1.5600425234   -3.6735196183   -2.5537696123