15

 O    0.1029474816    1.3186839157    0.4616723733
 C    0.0157030854    0.0189375050   -0.0922733661
 C   -1.4084842969   -0.4278458349   -0.0028685193
 C   -2.5936969584    0.2657080723   -0.0996022717
 C   -3.6055512486   -0.7176572348    0.0352536978
 C   -5.0582986976   -0.4817145007    0.0054131485
 O   -5.9144644055   -1.3258279241    0.1098770578
 N   -3.0824462609   -1.9397045574    0.2035006241
 N   -1.7644663020   -1.7308837859    0.1800621051
 H    0.9602888397    1.6866130531    0.2269664432
 H    0.3416592450    0.0154114107   -1.1451060880
 H    0.6605314832   -0.6992260987    0.4427327249
 H   -2.7084440760    1.3282822476   -0.2362939608
 H   -5.3190676617    0.5929952471   -0.1289927895
 H   -1.1491343674   -2.5200381452    0.3024774109