19

 C   -0.0295644995    1.5953397286   -0.2198585769
 C   -0.0002119820    0.0719352362    0.0145956375
 C    0.6912887884   -0.6382313559   -1.1274726476
 C    1.7917494934   -1.3070964444   -0.7624192959
 C    1.9963422786   -1.1679706148    0.6915096779
 O    2.9509783813   -1.5561109207    1.3395252611
 C    0.7880131909   -0.4132202389    1.2634320318
 C    1.2340596734    0.6194745675    2.3151578702
 O    1.8200185231   -0.0157582939    3.4281634519
 H    0.9795425051    2.0074347359   -0.3105649244
 H   -0.5684055093    1.8266937788   -1.1442586746
 H   -0.5389247345    2.1107086549    0.5990385090
 H   -1.0429246013   -0.2662634489    0.0723025295
 H    0.3173491437   -0.5599327710   -2.1440806267
 H    2.4706478314   -1.8568912917   -1.4012407885
 H    0.1898630226   -1.1578011648    1.8043059796
 H    1.9217543963    1.3487081788    1.8566625124
 H    0.3683163582    1.1794296338    2.6851561946
 H    2.4987754103   -0.6085406695    3.0706961991