18

 O   -0.0257729041    1.3277439495    0.1431693049
 C    0.0410407205   -0.0377858171   -0.0187522637
 C   -0.6093181761   -0.9189758469   -1.0737850113
 N   -0.4119668360   -2.0950591797   -0.1260278627
 C   -0.2620226115   -1.0644829547    1.0191114811
 C    1.1801646706   -0.8995826089    0.6036897272
 C    1.0849540824   -2.2167954846   -0.1064274692
 C    1.7482278091   -3.5105222968    0.2205768731
 C    1.8910582111   -2.8905596010   -1.1646393452
 H    0.6775879582    1.7329214057   -0.3762597490
 H   -1.6775847263   -0.7151929838   -1.1841658674
 H   -0.1406818500   -1.0456784726   -2.0557133167
 H   -0.7888959183   -1.0790392217    1.9619587980
 H    1.9912636111   -0.4391580940    1.1548797828
 H    2.6101664217   -3.5014563981    0.8797692893
 H    1.1108381346   -4.3831411948    0.3129341348
 H    1.3534511048   -3.3647498740   -1.9796972889
 H    2.8489672182   -2.4640887964   -1.4445300669