15

 O   -0.0061874681    0.0475704594    0.2286863143
 C   -0.0059170916    1.2336892153    0.0442294987
 C   -1.2512712098    2.1005171720   -0.2030765427
 O   -0.8090147414    3.3558593512   -0.6986903349
 C    0.5704008540    3.4856475200   -0.4875635062
 C    1.0756575492    3.3761698086    0.9017267085
 C    1.1842717953    2.1546710057   -0.0515784049
 C    2.4595699788    1.6608906940   -0.4520740052
 C    3.5354607729    1.2450706198   -0.7910730926
 H   -1.8986341483    1.6237721596   -0.9450399403
 H   -1.8239279434    2.2109470512    0.7286178310
 H    1.0512789959    4.1219285765   -1.2199972119
 H    2.0267620666    3.8381341893    1.1371482491
 H    0.3690562764    3.3221533124    1.7227372164
 H    4.4820593835    0.8690175649   -1.0910493993