17

 O   -0.0119095707    1.4802976702    0.1365209958
 C   -0.0647389029    0.0896708941    0.0064883306
 C   -1.4001243269   -0.6640566608    0.0072787487
 C   -2.2496340529   -0.3855839776   -1.2054848693
 C   -2.4496186281    0.9149690750   -1.9082947795
 O   -2.1186548008    2.0117381991   -1.5114277366
 C   -1.0510916331   -1.2963365246   -1.3551072285
 C    0.2560466530   -0.5035457261   -1.4194777543
 O    0.3652894159    0.4480100697   -2.4446006134
 H   -0.8208044040    1.8517689209   -0.2629129865
 H    0.6108872533   -0.3335128732    0.7545008059
 H   -1.8412395505   -1.1406496540    0.8752005629
 H   -3.1723410515   -0.9662071024   -1.2303218866
 H   -3.0114707286    0.8242012547   -2.8604828874
 H   -1.1816666006   -2.3229958747   -1.6740392001
 H    1.1293187969   -1.1676925106   -1.4115298230
 H    0.5325069415    1.2914671701   -1.9971324289