21

 C    0.3354810446   -2.7968549814    0.1744576906
 C   -0.0655415068   -1.4709499791    0.8322627594
 C   -1.5493073483   -1.1989609822    0.6817177389
 C   -2.5264424548   -1.6264684880    1.7206302687
 N   -2.2690815886   -0.2045657883    1.4808379094
 C   -1.5635049950    0.5488693907    2.5173009826
 C   -2.5676639023    1.4333645133    3.2555462468
 O   -3.6118670984    0.6792131805    3.8457582587
 H    1.4120745940   -2.9709263655    0.2611623983
 H   -0.1826702688   -3.6405833765    0.6417361511
 H    0.0820143758   -2.8015142052   -0.8912838694
 H    0.2134706779   -1.4872020822    1.8906544841
 H    0.5012271121   -0.6501256970    0.3729128355
 H   -1.8853695184   -1.2162553870   -0.3559367129
 H   -3.5141018640   -1.9907131011    1.4475950889
 H   -2.1213768691   -2.0619657350    2.6335465149
 H   -1.0504513749   -0.0992590859    3.2448395904
 H   -0.8071220776    1.1859635436    2.0419848016
 H   -2.0655908031    1.9636681342    4.0719618822
 H   -2.9662236771    2.1846367275    2.5570558463
 H   -4.0802526471    0.2558842844    3.1182454139