25

 C    0.0438066257    1.5435813107    0.0100045043
 C    0.1234040324    0.0253050595    0.0008945524
 O    1.1849767725   -0.5546675119   -0.0125368708
 C   -1.2095950356   -0.7158581993    0.0096738952
 C   -1.0573031751   -2.2376963654    0.0001291928
 C   -2.3658945707   -3.0655413390    0.0081750721
 C   -3.2166551169   -2.7665786295   -1.2406755589
 C   -1.9744870279   -4.5553957126   -0.0035070641
 C   -3.1926745596   -2.7800187206    1.2761305943
 H    1.0487215729    1.9672097624    0.0021883014
 H   -0.5141478774    1.9030537812   -0.8620039647
 H   -0.4963140293    1.8933419820    0.8970673339
 H   -1.7711863003   -0.3687066032    0.8876145915
 H   -1.7877620753   -0.3594600847   -0.8536825992
 H   -0.4652613146   -2.5187507996   -0.8786020455
 H   -0.4486837596   -2.5280275078    0.8644013988
 H   -2.6452987860   -2.9408391559   -2.1594222065
 H   -4.0997842669   -3.4142028687   -1.2715254852
 H   -3.5736049570   -1.7316281364   -1.2580585091
 H   -1.3712626250   -4.8120677973    0.8741251067
 H   -2.8631644631   -5.1959344929    0.0015492620
 H   -1.3881316265   -4.8026299421   -0.8951691576
 H   -3.5491133315   -1.7453457498    1.3113723580
 H   -4.0751289837   -3.4280157711    1.3168789598
 H   -2.6039384915   -2.9640356481    2.1819106085