19

 C   -0.0824597788    1.5927834824    0.0153072602
 C    1.4354541573    1.2645386711    0.0005999813
 C    1.2467720283    0.0367039559    0.9435132795
 C    1.9061084174   -0.9954268132   -0.0044593090
 C    1.1852995782   -2.3243313246    0.0021815177
 C   -0.1510345437   -2.3747168988    0.0150538699
 C   -0.9839678051   -1.1048328285    0.0233766251
 C   -0.0211939678    0.0536293053    0.0143575248
 C    1.2286246736    0.0371387369   -0.9390738754
 H   -0.4748716185    2.0728889415    0.9188432266
 H   -0.4922196621    2.0733176607   -0.8802641233
 H    2.2794073141    1.9556269948   -0.0073760652
 H    1.2295098471    0.0401544315    2.0355593790
 H    2.9963632546   -1.0744277690   -0.0149866492
 H    1.7704933221   -3.2394921046   -0.0036748243
 H   -0.6767663073   -3.3254199528    0.0198996445
 H   -1.6542320673   -1.0802805904   -0.8477317672
 H   -1.6373096286   -1.0806774574    0.9072586621
 H    1.1903222665    0.0410872091   -2.0305824971