19

 C    0.3044661528    1.5000299533    0.2758693178
 C   -0.1589944653    0.0846843566   -0.1036076713
 C    0.5374965001   -0.4550312113   -1.3116255354
 C    0.0306682760   -0.8952747951   -2.4939327345
 N   -1.2427772603   -1.1144747804   -3.0058112205
 O    1.0661689715   -1.2870835843   -3.2933486714
 C    2.1889853757   -1.0572231110   -2.5402238955
 C    3.5019786090   -1.3692769865   -3.1595034983
 N    1.9312887564   -0.5801686748   -1.3703573428
 H    1.3853876786    1.5115227589    0.4379637094
 H    0.0785775413    2.2145558668   -0.5223048566
 H   -0.1871898021    1.8424135805    1.1919087302
 H    0.0103060591   -0.5869034544    0.7485279611
 H   -1.2429998802    0.0825049152   -0.2764170462
 H   -1.9577183925   -0.7054966636   -2.4189175288
 H   -1.3460012942   -0.7806867747   -3.9577291569
 H    3.5683431766   -2.4245001532   -3.4458735054
 H    3.6695157085   -0.7730838065   -4.0634443334
 H    4.2898559490   -1.1469678953   -2.4392054915