21

 C    0.0784986265    1.5989567555    0.0205506458
 C    0.0828528434    0.0674782593   -0.0207781758
 C    0.7357648591   -0.5592904516   -1.2538502324
 C    2.2279878234   -0.4370788894   -1.4117965984
 C    1.6382407852   -1.6986844056   -0.8177483046
 C    1.5881834416   -1.8215474554    0.7016168603
 C    2.7470310780   -1.1842981522    1.4932576488
 O    2.0170112524    0.0584114396    1.6219049246
 C    0.7888181551   -0.5836277318    1.1825279588
 H    1.0985755944    1.9878821388    0.0600698217
 H   -0.4144274720    2.0105411429   -0.8656307901
 H   -0.4541005822    1.9686114763    0.9031493225
 H   -0.9582345737   -0.2840504571    0.0079356144
 H    0.1326239929   -0.6432036441   -2.1521859638
 H    2.6309447819   -0.5095533933   -2.4164658697
 H    2.7625130211    0.2478335456   -0.7637499561
 H    1.7038799007   -2.6105562039   -1.4005277456
 H    1.2574945565   -2.8099577556    1.0244774333
 H    2.9279880050   -1.6425921023    2.4746509252
 H    3.7009240260   -1.0534910347    0.9712498804
 H    0.1133025647   -0.7243718011    2.0360586907