17

 C    0.1064617155    1.5586975981   -0.0281630304
 C   -0.0031574786    0.0216021264   -0.0185682876
 C    0.6577369371   -0.5570502776   -1.1935805084
 N    1.1736552909   -1.0256951431   -2.1156236118
 C    0.5787951960   -0.5600399850    1.2816480523
 C    0.8530253938   -2.0767684513    1.3757156163
 C    2.3211611531   -1.6498252633    1.5794774250
 O    1.9759058118   -0.2506551469    1.4322218629
 H    1.1512642027    1.8566846970    0.0814246356
 H   -0.2846195762    1.9758339999   -0.9586652343
 H   -0.4649603530    1.9739469188    0.8069769777
 H   -1.0614136567   -0.2695343323   -0.0655921733
 H   -0.0097892150   -0.1516096127    2.1155855172
 H    0.3823518497   -2.5839165192    2.2184250453
 H    0.6610110364   -2.6356116074    0.4588020384
 H    2.7404912173   -1.8578475525    2.5704207830
 H    3.0279083154   -1.9734369690    0.8091131321