24

 C    0.0718343914    1.5508022976    0.0407238940
 C    0.0318402326    0.0172815814    0.0627940307
 C    0.6766879837   -0.5301398103    1.3438162256
 C   -1.4114234251   -0.4953768303   -0.1269830039
 O   -2.0054301200    0.0463866381   -1.3100958327
 C   -1.5065109683   -2.0098775423   -0.1442078465
 N   -1.8367865491   -2.6971225859    1.1184645007
 C   -2.7939847596   -2.7419187171   -0.0015441737
 C   -4.1327090503   -2.0711396753    0.1924795840
 H    1.1037919085    1.9154040885    0.0673857776
 H   -0.4163963249    1.9433869626   -0.8535505892
 H   -0.4484425751    1.9628721939    0.9138284591
 H    0.6151074015   -0.3521336136   -0.7975129190
 H    0.7445074400   -1.6207992418    1.3407624888
 H    1.6886453238   -0.1292464647    1.4620386530
 H    0.0965160861   -0.2407777154    2.2269383480
 H   -2.0267899162   -0.1171606701    0.6959860315
 H   -1.5161762759   -0.2978345155   -2.0657415210
 H   -0.7614120474   -2.4859544940   -0.7859179078
 H   -1.3249034807   -3.5718567136    1.1938265099
 H   -2.8462572288   -3.6810789020   -0.5524416933
 H   -4.0432433844   -1.1817809111    0.8188166308
 H   -4.5564748103   -1.7703795398   -0.7705852942
 H   -4.8355996218   -2.7548131292    0.6805726876