11

 O   -0.0639776980   -0.0978027139    0.0021050399
 C   -0.0134523345    1.1104039219    0.0074032128
 C    1.2079449260    1.8753957265    0.0001708444
 C    2.2099232439    2.5472820763   -0.0055320707
 C    3.4408076251    3.3346902022   -0.0127082570
 C    3.2202883530    4.7809346093   -0.0029169541
 C    3.0511859291    5.9688227874    0.0049720002
 H   -0.9333849413    1.7292016686    0.0182139042
 H    4.0508466741    3.0450109205    0.8544177583
 H    4.0346056933    3.0543845926   -0.8940747335
 H    2.8984924193    7.0198734286    0.0118421954