22

 C    2.0566856490    3.2034538097    1.6861387906
 C    1.1046224671    2.0592804561    1.3122370620
 C    1.2128630154    1.6779454993   -0.1732567530
 O    0.8874772081    2.7397642130   -1.0550663217
 C    1.3811435995    0.8457294671    2.1791819126
 N    0.8585401012    0.8547005646    3.5569027822
 C    0.3738878028   -0.1670649664    2.6038082321
 C   -1.1091232745   -0.1000873311    2.3171658540
 O   -1.8572716318   -0.4654858326    3.4649491680
 H    3.1024574122    2.9297410990    1.4956738640
 H    1.8315913431    4.1108332829    1.1167471085
 H    1.9602821407    3.4475665061    2.7476242932
 H    0.0798257015    2.3983539272    1.4943457670
 H    2.2217215185    1.2825458020   -0.3817619481
 H    0.5019384275    0.8764707595   -0.4003030171
 H    1.5862350250    3.3981222012   -0.9998930281
 H    2.3920241131    0.4525881596    2.0544067594
 H    1.5344374035    0.4516155331    4.1993018809
 H    0.7438430288   -1.1809498395    2.7499982956
 H   -1.3880443062    0.9025231983    1.9656993830
 H   -1.3772118990   -0.8152369605    1.5322112763
 H   -1.5596988053    0.1246622714    4.1677931885