21

 C    0.0334957556    1.5760632640    0.1504245859
 C    0.0230941754    0.0411295295    0.0014547628
 C    0.6679816475   -0.4750884005   -1.2444119472
 C    0.0841973692   -0.8078242367   -2.4542017333
 N   -1.3051048020   -0.7578137375   -2.7299310391
 C    1.1117167021   -1.2696268552   -3.3223165482
 C    2.2933165160   -1.2029502999   -2.6197236550
 N    2.0305990339   -0.7105261617   -1.3695952967
 C    3.0158011575   -0.5434362046   -0.3256026021
 H    1.0547510811    1.9690250514    0.1899463621
 H   -0.4653854300    2.0547560322   -0.6983643308
 H   -0.4811550278    1.8862771730    1.0662959444
 H    0.4893732123   -0.4065867681    0.8888182199
 H   -1.0156532446   -0.3097201229   -0.0001125315
 H   -1.6983523024    0.1620350072   -2.5679592637
 H   -1.4928412967   -1.0060245289   -3.6932100869
 H    0.9938984116   -1.6051018896   -4.3421204681
 H    3.3010826477   -1.4590474646   -2.9066707252
 H    3.0420528863    0.4882844824    0.0412024751
 H    2.8203800482   -1.2058950697    0.5257827837
 H    4.0002059790   -0.7881377899   -0.7289100858