21

 C   -0.5472851578    1.3475067869   -0.1943169074
 C    0.1048999565   -0.0189684338    0.0582357550
 C    0.8349070351   -0.5130177616   -1.1973030443
 C    1.0700076543    0.0000849683    1.2618031973
 C    0.3908956323    0.2952778773    2.5754248153
 O   -0.4880251744   -0.7065185750    3.0918100406
 C    0.7089004788   -0.4199670822    3.8342925285
 C    1.7094801919   -1.4503604122    3.9139819678
 C    2.5563543502   -2.2968909545    4.0219322884
 H    0.2109508824    2.1102864498   -0.4107734155
 H   -1.2236978472    1.3018582985   -1.0539825173
 H   -1.1330523203    1.6910614640    0.6636567296
 H   -0.6891548787   -0.7384832497    0.2973906187
 H    1.6480920364    0.1695103979   -1.4732996215
 H    1.2714195003   -1.5051125736   -1.0416426404
 H    0.1525108074   -0.5761926886   -2.0512605191
 H    1.5745288138   -0.9681711303    1.3392926575
 H    1.8511931921    0.7555799307    1.0960072278
 H    0.0083690123    1.3099288374    2.6997611776
 H    0.5280014459    0.1074200624    4.7711445513
 H    3.2999500186   -3.0499968417    4.1115868099