16

 C   -0.1716638795    1.4988607635    0.0092833924
 C   -0.0002218027   -0.0084523745    0.0015707863
 O   -1.3120724785   -0.5938213828    0.0128202318
 C   -1.3673678892   -1.9385645785    0.0097853141
 N   -0.3395876996   -2.6752827135   -0.0025260497
 C   -2.8159882423   -2.3834163208    0.0229605565
 O   -2.8455146667   -3.7947697827    0.0200899061
 H    0.8087012333    1.9845045939    0.0007535778
 H   -0.7295432323    1.8336993451   -0.8700365006
 H   -0.7107022432    1.8267888418    0.9028439998
 H    0.5381157250   -0.3571610941   -0.8859986114
 H    0.5563777978   -0.3642152299    0.8749271319
 H   -0.6331457501   -3.6516474480   -0.0022245062
 H   -3.3012241146   -1.9566025663    0.9138947128
 H   -3.3184806391   -1.9526382306   -0.8564290152
 H   -3.7629066184   -4.0802295425    0.0271681437