16

 O   -0.1269039275    0.0041926082    0.1071313036
 C   -0.0153338585    1.2009406399    0.0690805397
 N    1.1769518995    1.8909571725   -0.0593835643
 C    1.4493647980    3.3403770554   -0.0522986270
 C    1.5847421369    3.9654458808    1.3617881115
 C    3.0927100765    3.5697798319    1.3920446037
 C    2.9744165250    2.9944397292   -0.0573144231
 C    2.5505030265    1.5201365902   -0.0850630807
 O    3.0931860836    0.4592114365   -0.0986705283
 H   -0.8735770831    1.9022652073    0.1250385875
 H    0.9453285868    3.8957686557   -0.8428872787
 H    1.4288480890    5.0465157860    1.3554062566
 H    0.9431031872    3.5249364762    2.1276028848
 H    3.7655389320    4.4262527855    1.4536680437
 H    3.3909090206    2.8426519057    2.1493317116
 H    3.6797736176    3.3256162890   -0.8161890606