21

 C    0.0824674933    1.6042529418    0.1005413309
 C    0.3029757737    0.0955527623   -0.0304078703
 C    0.4595143043   -0.6049233509    1.3326832169
 C    0.6786202591   -2.0831807031    1.2160505993
 N   -0.3250584742   -2.9374091376    1.4257980269
 N    0.1957203381   -4.1614237787    1.2011129924
 C   -0.6255331780   -5.3351977282    1.3944061529
 C    1.5061982597   -4.1051101081    0.8602917357
 C    1.8605964563   -2.7732179956    0.8563992535
 H    0.9256044884    2.0864428345    0.6083581138
 H   -0.0302529855    2.0779693757   -0.8797638203
 H   -0.8201228988    1.8229446201    0.6821361652
 H   -0.5382975419   -0.3610175671   -0.5653195196
 H    1.1941040065   -0.0987990459   -0.6401802766
 H    1.2986210682   -0.1499176724    1.8746429887
 H   -0.4395500668   -0.4342652439    1.9343814764
 H   -0.0956691862   -6.2076683285    1.0077891891
 H   -0.8446928022   -5.4890849737    2.4558262937
 H   -1.5686327368   -5.2176379004    0.8557309140
 H    2.0717870664   -5.0009109405    0.6554966529
 H    2.8284521664   -2.3579563197    0.6248536345