18

 O    0.0654200588    1.4105058454    0.2578095471
 C    0.0588398552    0.0572650303   -0.1759031865
 C   -1.3182952262   -0.5565429178   -0.0864983703
 C   -1.5947349447   -2.0498924131   -0.1118512720
 C   -0.4881148673   -3.0468077731    0.1967807374
 C   -0.0402339580   -2.7276025819    1.6349554356
 O    0.8888778631   -3.2108449337    2.2393588344
 N   -0.8891222122   -1.7518771406    2.1079682924
 C   -1.8399807736   -1.2601915653    1.1567123371
 H   -0.1952902631    1.4183878741    1.1843722093
 H    0.3838065047    0.0837288987   -1.2214627420
 H    0.7982316890   -0.5392576085    0.3758644319
 H   -2.0718100130    0.0334777907   -0.6031240732
 H   -2.4346938403   -2.3876728974   -0.7060366826
 H   -0.8564832847   -4.0768421977    0.1601703029
 H    0.3790671274   -2.9942076960   -0.4670348252
 H   -0.6980148472   -1.3079642634    2.9923055461
 H   -2.8369092576   -1.0564236907    1.5314309176