15

 C    0.0218257492   -1.1812032218   -0.0212232341
 C    0.0223591329    0.0209061541   -0.0002196798
 C    0.0226437389    1.4566889269    0.0245995891
 C   -0.6864596410    2.4345179462    0.9988957246
 N    0.0033590306    3.4119820075    0.0309750083
 C    1.2068715036    2.4557067995    0.1454132196
 C   -0.5071388172    2.4498048434   -1.0655328479
 C    0.1483357150    2.5281070369   -2.3616528389
 N    0.6497545604    2.5725845434   -3.4021519076
 H    0.0240886236   -2.2434559534   -0.0431139216
 H   -1.7776954222    2.4813491840    0.9752474367
 H   -0.2987375706    2.4923431852    2.0168983497
 H    1.7130707885    2.5143006625    1.1103309224
 H    1.9089516546    2.5227572668   -0.6867302822
 H   -1.5914946065    2.4931229187   -1.1933022584