20

 C   -0.1839478803    1.5403186432   -0.0786686169
 C    0.0197879412    0.0338936789   -0.0100054429
 C    1.1985138321   -0.5917120358   -0.8541746652
 C    2.1441473557   -0.2038439875    0.3338384719
 C    0.8774441150   -0.5664108620    1.1480215914
 C    0.6720901055   -0.3114256547    2.6122175714
 O    0.7588398079   -2.0036891780    0.8543862530
 C    0.9755974999   -2.0402377419   -0.5087568717
 N    0.9739101852   -3.0577850270   -1.2507627606
 H    0.7447399576    2.1101031352    0.0097459927
 H   -0.6483171060    1.8139488021   -1.0316462217
 H   -0.8562711544    1.8735103295    0.7195319314
 H   -0.9416804681   -0.4755421339   -0.1324601600
 H    1.3951440076   -0.3489558428   -1.8947646888
 H    3.0305056344   -0.8193606624    0.5022603441
 H    2.4017392241    0.8541090825    0.3593350079
 H    0.7406984676    0.7596082503    2.8233001528
 H   -0.3126720321   -0.6661509642    2.9314946108
 H    1.4314115500   -0.8297876176    3.2054081796
 H    0.7830322271   -3.8990500043   -0.7023385692