19

 C   -0.0977672544    1.5352571414    0.0727202392
 C   -0.0300147860    0.0002968745    0.0104943698
 C    1.1421398435   -0.5013177082   -0.9036899714
 C    2.0173142704   -0.7047421756    0.3555362184
 C    0.7365255278   -0.6729086507    1.2359754134
 C    0.7982372949    0.0665725298    2.5437997180
 O    0.3354938509   -0.3345055751    3.5816387796
 C   -1.3405533502   -0.5607524384   -0.2623288518
 C   -2.4232988600   -1.0324414240   -0.4906486748
 H    0.8895078333    1.9704665747    0.2549142821
 H   -0.4677501226    1.9234312782   -0.8805462755
 H   -0.7766528524    1.8728319962    0.8609752696
 H    0.8905487018   -1.4454607071   -1.3898128530
 H    1.4914459122    0.2058572766   -1.6598344530
 H    2.6181531556   -1.6135576186    0.4122013327
 H    2.6689267927    0.1517186354    0.5550970435
 H    0.3330577591   -1.6698733151    1.4189687202
 H    1.3316019166    1.0447046917    2.5002063879
 H   -3.3797103934   -1.4495936058   -0.6881176251