21

 O    0.2275241396    0.0878416207    0.1523931786
 C    0.3078081480    1.2688522850    0.3099692198
 O    0.6644463924    2.1150832181   -0.6715514305
 C    0.7680983225    3.5117236307   -0.3589318296
 C    2.2271088195    3.9545010865   -0.3403047630
 C    2.3764913021    5.4506455427   -0.0951042752
 C    2.0354472099    6.0392293070    1.3070163994
 C    3.2558208576    6.9872698179    1.1616612386
 C    3.8050830424    6.0457272798    0.0565067436
 H    0.0934071723    1.7878215333    1.2660588581
 H    0.2071655302    4.0425981531   -1.1345947993
 H    0.2824008470    3.7144271582    0.6047860982
 H    2.7609544698    3.3948268652    0.4389042008
 H    2.6881820469    3.6797197276   -1.2968006838
 H    1.8300675807    6.0068175926   -0.8672891082
 H    1.0503185322    6.4899043148    1.4520403017
 H    2.1972243842    5.2963817352    2.0961620081
 H    2.9652465262    7.9608006739    0.7567234325
 H    3.8781412058    7.1520219004    2.0438536762
 H    4.4992310786    5.3050156889    0.4672242965
 H    4.2639443721    6.4979713383   -0.8259898225