21

 C   -0.2204325831    1.5483732910   -0.0334152341
 C   -0.1338205074    0.0172977617   -0.0814951526
 C    0.7826327494   -0.5093830385    1.0514239473
 O    0.1433760757   -0.5528210506    2.3257556223
 C   -1.5528762794   -0.5839228236    0.0857675387
 O   -1.5462282640   -1.9697803202    0.3719070612
 C    0.4535726939   -0.4916163642   -1.3905843962
 C    0.5332317911    0.2789874586   -2.6375697308
 O    1.6956444571    0.0733421557   -1.8299030634
 H    0.7248119555    1.9980934344   -0.3496308556
 H   -1.0194349363    1.9306208478   -0.6772666447
 H   -0.4403335478    1.8953554647    0.9828502741
 H    1.0636798763   -1.5448393313    0.8424839835
 H    1.7068763384    0.0818173503    1.0863114461
 H   -0.0066475374    0.3487789747    2.6261854786
 H   -2.0884520832   -0.0233953434    0.8644308092
 H   -2.1123858453   -0.4578780530   -0.8482321877
 H   -1.2557144309   -2.0466948071    1.2888399905
 H    0.4090962652   -1.5777468268   -1.4822272267
 H    0.5301323972   -0.2482982842   -3.5905706931
 H    0.1707889149    1.3038843538   -2.6783846967