19

 O    0.1889347832    1.3648210238    0.2609695342
 C    0.0149862955   -0.0056461760   -0.0732930822
 C   -1.4378813683   -0.3436890837    0.0275204433
 O   -1.8649269402   -1.5267370366   -0.6754815964
 C   -2.5387414978   -0.2916053738   -0.9517953604
 C   -3.5862390005   -0.0854742991    0.1565995036
 C   -2.4172482020   -0.1412613891    1.1736384465
 C   -2.3622299807   -0.7430087487    2.5449225774
 C   -2.2266910486    0.7531954226    2.3605336775
 H    1.1330571875    1.5474177449    0.2778664495
 H    0.3472168478   -0.2300750467   -1.0975280644
 H    0.5871844046   -0.6574602212    0.6075162112
 H   -2.5539775743    0.0486432958   -1.9809053394
 H   -4.0672238413    0.8957249889    0.1180623226
 H   -4.3429498497   -0.8713875083    0.2227648297
 H   -3.2864990477   -1.1235716528    2.9674252009
 H   -1.4808339481   -1.3120859616    2.8233258508
 H   -1.2513874217    1.2073813596    2.4909923858
 H   -3.0598315277    1.3818376921    2.6591290297