20

 O   -0.1454779249    1.4549425703    0.1577033033
 C   -0.0674259734    0.0605030775    0.1060935233
 C   -0.7246086116   -0.7635133563    1.1851048335
 C   -1.3375422279   -0.6771257438   -0.2041826354
 C   -2.6323567062    0.0755111007   -0.4235744585
 C   -3.8449063647   -0.7604896879   -0.0394345262
 O   -5.0162363013    0.0198993279   -0.2956611496
 C   -6.1940294353   -0.5707823615   -0.0298535185
 N   -7.2756432910    0.0533845170   -0.2185479159
 H    0.4247450979    1.7594637317    0.8709664428
 H    0.8513120404   -0.3262733446   -0.3348506616
 H   -0.2563128245   -1.6878333618    1.5054571569
 H   -1.2251457703   -0.2088228910    1.9728701569
 H   -1.2154570528   -1.5598614404   -0.8274333524
 H   -2.6305622585    1.0009927958    0.1577673529
 H   -2.7261915031    0.3680159575   -1.4757424198
 H   -3.8805492212   -1.6887524722   -0.6274008599
 H   -3.8023541636   -1.0359099641    1.0230759229
 H   -6.0954808032   -1.5993614945    0.3468573221
 H   -8.0641548746   -0.5400908503    0.0307160031