16

 C   -0.1588055276    1.4829467322   -0.0641722760
 C   -0.0759600271   -0.0339432812   -0.0589942854
 O   -1.3844591204   -0.5592967397    0.0514953756
 C   -1.4388135835   -1.9731074281    0.0489601648
 C   -2.9112494081   -2.3523112731    0.0117170526
 O   -3.5476633764   -1.8221274746   -1.1335786022
 H    0.8413255835    1.9182657332   -0.1483606322
 H   -0.7603590781    1.8326597759   -0.9082421849
 H   -0.6192486031    1.8462716785    0.8588837425
 H    0.4015103877   -0.4008132449   -0.9828884081
 H    0.5424207412   -0.3848917805    0.7838872314
 H   -0.9251997786   -2.3731027814   -0.8403901418
 H   -0.9482915954   -2.3896442293    0.9445684403
 H   -3.0136985831   -3.4416857772   -0.0311904576
 H   -3.3936668041   -2.0031180606    0.9389070987
 H   -3.2868670369   -0.8937935493   -1.1648958577