22

 C   -0.2309782431    1.5036791216   -0.0512861335
 C   -0.0143303274   -0.0069364090   -0.0466552484
 C    1.2261618369   -0.4810751432   -0.8611479780
 C    2.0295885619   -0.6027797446    0.4680155985
 C    0.6763888597   -0.5534855951    1.2383421852
 C    2.9334729704   -1.7878543388    0.6638386535
 C    4.3884068396   -1.7206832170    0.2669381251
 C    4.0063235816   -1.7710372803    1.7257166161
 H    0.6881332174    2.0421081415    0.2079582838
 H   -0.5511920010    1.8541056890   -1.0389073772
 H   -0.9995595116    1.7950507274    0.6733632087
 H   -0.9517435327   -0.5066785510   -0.3093624776
 H    1.0662830565   -1.4606578425   -1.3227385941
 H    1.6138057893    0.2000758890   -1.6245865063
 H    2.6008775188    0.3149869946    0.6492657937
 H    0.6290815462    0.0703784151    2.1359105659
 H    0.3275664689   -1.5579537848    1.4982955512
 H    2.4455974951   -2.7475615493    0.5029237477
 H    4.8458360067   -2.5981212994   -0.1768541822
 H    4.7610489683   -0.7805906354   -0.1270967041
 H    4.1223388950   -0.8647632884    2.3114704926
 H    4.2026064837   -2.6828895295    2.2789694992