16

 O    0.1684618053    0.0854586198    0.4920688988
 C    0.1554607754    1.2715986646    0.2369282581
 N    1.2095951311    1.9569928879   -0.2925654068
 C    1.5210643936    3.3736867181   -0.1736763042
 C    2.5097436828    3.5464486166    0.9834620784
 O    2.5587009580    2.5343990649    1.9547754421
 C    2.9707526498    1.3236239271    1.2941214391
 C    2.6479299799    1.5853147323   -0.1751038601
 C    3.0042549516    3.0896997161   -0.3495436279
 H   -0.7417736495    1.9136148300    0.3495863717
 H    0.8907537502    4.1494727887   -0.5917773366
 H    2.7089848962    4.5406169916    1.3649021842
 H    4.0479707196    1.1536437777    1.4360115174
 H    2.4020392693    0.4903878728    1.7095853466
 H    3.0011183311    0.8492379951   -0.8953004216
 H    3.7538568054    3.5313570568   -0.9892173892