11

 O   -0.3310600833    0.2565364955    0.3282110351
 C    0.1729270723    1.3281076950    0.1246452537
 C    1.4696694372    1.5264330310   -0.6478181412
 N    1.4611302671    2.7397367537   -1.4381540284
 C    2.2573586061    3.8085739384   -1.1436279442
 O    3.0212259756    3.8636007432   -0.2057624022
 H   -0.2772090394    2.2763891101    0.4976762456
 H    2.2835158276    1.6411730500    0.0792369337
 H    1.6672461792    0.6378356609   -1.2551018968
 H    0.8759389885    2.7896316900   -2.2568853508
 H    2.1248938390    4.6327080821   -1.8702922245