18

 C   -0.1245114820    1.5721272961    0.0463614755
 C    0.0540298542    0.0607884211    0.0145027966
 O   -1.1905963943   -0.5951995475   -0.1570637436
 C    1.1576214928   -0.5359645000   -0.9381549960
 C    1.7811452806   -1.2603284684    0.2683424883
 C    2.1813493571   -0.2505262532    1.3201854381
 C    0.7379256955   -0.6204470958    1.2088736643
 C    2.2858942349   -2.5931842836    0.2588272885
 N    2.6954528642   -3.6759858268    0.2362400511
 H    0.8165397291    2.0919339231    0.2453498185
 H   -0.4989883778    1.9324900338   -0.9198740323
 H   -0.8481785784    1.8497627087    0.8183445702
 H   -1.6054401593   -0.2468595262   -0.9540239891
 H    0.7052837683   -1.2209246424   -1.6558279698
 H    1.8213543601    0.1638455042   -1.4550177421
 H    2.6977891286   -0.6608812868    2.1808481796
 H    2.5444299450    0.7230498964    1.0021330969
 H    0.1916781013   -1.0980409926    2.0122295753