21

 O   -0.0263714918   -0.0561811112   -0.4740430574
 C   -0.0282327864    1.1105393790   -0.1443973346
 C   -1.3373082890    1.8904785703   -0.0388305453
 C   -1.7355632095    2.5336873850    1.3105302730
 C   -0.8633139674    3.7141180874    1.7952752318
 C    0.1817592806    3.3606554765    2.8662981185
 C    1.0595598600    2.1403761264    2.5198916475
 C    1.7665951730    2.2697845430    1.1975161684
 C    1.2783940245    1.8381622443    0.0361100448
 H   -1.2843747397    2.6907718390   -0.7918787631
 H   -2.1208579683    1.1947557210   -0.3537712445
 H   -2.7630309732    2.8876997375    1.1747650627
 H   -1.7947416669    1.7585906329    2.0844692105
 H   -0.3644020155    4.1710112178    0.9334192797
 H   -1.5138177724    4.4914722024    2.2114313312
 H    0.8179743209    4.2367367300    3.0432352358
 H   -0.3259744072    3.1518411032    3.8164470678
 H    1.7947820273    1.9929500352    3.3186787779
 H    0.4358855345    1.2396872800    2.5136558958
 H    2.7404065951    2.7559189882    1.2060047664
 H    1.8638074015    1.9299434919   -0.8762911268