15

 O    0.0742873286    0.0623083308   -0.1678954983
 C    0.0012437549    1.2497710701   -0.0861267771
 C   -1.1266039151    2.2789032263    0.1093918500
 C   -0.0780894402    3.0779965167    0.9510475638
 C    1.0198836533    2.4108776275    0.0854385655
 O    1.1685527261    3.1069466527   -1.1671853270
 C    0.0349775478    3.4452293001   -1.8497950517
 O    0.1215427435    4.0534294186   -2.8763545505
 C   -1.2998683614    3.0035799807   -1.2371708321
 H   -2.0712181543    1.9618000220    0.5521634238
 H   -0.1263536033    4.1678192636    0.9023852240
 H   -0.0302152872    2.7451814772    1.9899319601
 H    2.0229803094    2.2339651696    0.4685666793
 H   -1.7979176352    2.3673125509   -1.9758522610
 H   -1.9177597370    3.9008711034   -1.1273837586