15

 C    0.0746124469    1.4412909201    0.0685678138
 N   -0.0569368837    0.0126768416   -0.0719157849
 C   -1.2529255524   -0.6332295160   -0.0187503776
 C   -2.4989329444   -0.0699344115    0.0227014459
 N   -3.6511283707   -0.8286599803    0.0407752110
 C   -3.5225381062   -2.0955376547    0.0303493637
 O   -2.3415775583   -2.7725816411    0.0085280373
 C   -1.1443799727   -2.0963721361   -0.0114391989
 O   -0.1071275338   -2.7114197963   -0.0147469886
 H    1.1309663322    1.7091417227    0.0158598378
 H   -0.4491862466    1.9665116312   -0.7404472838
 H   -0.3301574419    1.8062386334    1.0243320539
 H    0.7479860975   -0.5846389798    0.0331939129
 H   -2.6407244719    1.0041567663    0.0369261765
 H   -4.3641861240   -2.7773036295    0.0396894210