20

 C    0.3859365079    1.5661172112   -0.2478185466
 C    0.1824426027    0.0798195072   -0.0484076135
 C    1.3509289759   -0.8727176958   -0.0337377745
 C    0.5533221595   -0.6454638217    1.2315369231
 C    1.1649662839    0.0636318128    2.3960657037
 N    0.3961572657    0.1273229044    3.6320060247
 C    1.6641627155   -0.6341201071    3.6387782568
 C    1.5361733325   -2.1048126220    3.8236423404
 O    2.4297737564   -2.8076401496    4.2259631284
 H    1.3409057237    1.9112514833    0.1598937084
 H    0.3866886886    1.8121446230   -1.3151207522
 H   -0.4110488758    2.1485282752    0.2277073080
 H   -0.7207288815   -0.2995858430   -0.5194451276
 H    1.2686718690   -1.8314923410   -0.5333998126
 H    2.3450133974   -0.4367965866   -0.0771313203
 H   -0.1250824578   -1.4406173906    1.5218515548
 H    1.7612069808    0.9366922648    2.1357564852
 H    0.5194110618    1.0158359555    4.1090015967
 H    2.5435682911   -0.2069101694    4.1151615186
 H    0.5352274626   -2.5141214406    3.5668094886