12

 N    0.0109745029    1.3964702606    0.1145010231
 C   -0.0813292518    0.0426481548    0.0365607289
 C   -1.2143686674   -0.7119360167    0.0170041227
 N   -1.0717376482   -2.0747742400   -0.0143673354
 N    0.0815908560   -2.7360788045   -0.0324150306
 N    1.1805898926   -2.0754415576   -0.0278140639
 C    1.2053562436   -0.6728315386   -0.0008002002
 O    2.2581410093   -0.0520226916   -0.0156846991
 H    0.9467806426    1.7385756761   -0.0614999949
 H   -0.7623812217    1.9797106579   -0.1566209322
 H   -2.2276961715   -0.3298516919    0.0289555558
 H   -1.8767283264   -2.6818322485   -0.0250423343