17

 C    0.1114019118    1.5255037854    0.0478751802
 C    0.0501728603    0.0192487499    0.0251151207
 C    0.0741981532   -0.6853685585   -1.1910130353
 N    0.1642753135   -0.0037054298   -2.4109968381
 C    0.0759806857   -2.0851562812   -1.1565356547
 N    0.0514891220   -2.7958889128   -0.0326988859
 C    0.0038448328   -2.1393873143    1.1223133863
 C   -0.0061767590   -0.7440832606    1.1957706708
 O   -0.0582714770   -0.1950489003    2.4424842301
 H    0.7244551989    1.8931546312   -0.7804756688
 H   -0.8782498620    1.9937701116   -0.0395142183
 H    0.5729927897    1.9070961995    0.9656068993
 H   -0.3975610267    0.8336786154   -2.4735993176
 H    0.0006635571   -0.5972707695   -3.2127426298
 H    0.1012012493   -2.6439469409   -2.0910300619
 H   -0.0310057368   -2.7185226597    2.0403717151
 H   -0.1530554027    0.7595614147    2.3724262079