17

 N   -0.0964844695   -1.1768557506   -0.2201887999
 C   -0.0498411504   -0.0264363451   -0.1157763605
 C   -0.0053666241    1.4340031342    0.0181291693
 C   -0.7284996472    1.8861868863    1.3084485818
 C   -0.0253066637    1.3518530858    2.5624943665
 C    1.4703082946    1.5094267032    2.4816110087
 C    2.1237387310    1.7848797052    1.3538255043
 C    1.4544308797    1.9496583141    0.0141044881
 H   -0.5299385969    1.8449455617   -0.8518671925
 H   -0.7185296264    2.9819770657    1.3171765773
 H   -1.7750885860    1.5698381746    1.2854340358
 H   -0.4086218440    1.8737513092    3.4475096082
 H   -0.2749634825    0.2920379251    2.7126990283
 H    2.0277251828    1.3788425800    3.4056715924
 H    3.2046328941    1.8976023797    1.3680550645
 H    2.0285877571    1.4312120281   -0.7617069321
 H    1.4456245213    3.0091119330   -0.2771320104