16

 C   -0.0215313349    1.3484068477   -0.2145683530
 C    0.1653080760   -0.1130374868    0.1170507682
 C    1.4569932550   -0.8156748576    0.1090934774
 O    2.5403468583    0.0448449749    0.5218629320
 C    1.9717543842    0.1747725238    1.7946250482
 N    2.4201788369    0.7106444684    2.8324784928
 C    0.7472353887   -0.6111942142    1.4670958330
 C    0.0415258721   -1.5908692229    2.3105770068
 O   -0.8517252195   -2.3012949426    1.9098554122
 H    0.8651989928    1.9336002849    0.0360738011
 H   -0.2128210650    1.4646949111   -1.2862749324
 H   -0.8759936325    1.7607251569    0.3289247980
 H   -0.6597887135   -0.7715125144   -0.1504315245
 H    1.7188092925   -1.7442984486   -0.3804060503
 H    3.3430480790    1.1198187351    2.6792544877
 H    0.4026245997   -1.6386135957    3.3581321830