22

 C   -0.3824094542    1.4085030284   -0.4602444035
 O   -0.5400961318    0.0248915847   -0.6578444416
 C   -0.9691689643   -0.6499365188    0.5082453551
 C   -1.0388275764   -2.1152019925    0.2149506963
 C    0.0587677910   -2.9583783155   -0.4521308988
 C   -1.0625733195   -3.8018269710   -1.1587029678
 C   -1.0897404104   -5.3137403957   -0.9712057217
 C   -2.1148872117   -2.9462496959   -0.4261560345
 N   -1.9238988544   -2.9446199079    1.0227281333
 H   -0.0462712098    1.8390501284   -1.4067857251
 H   -1.3283659488    1.8909668080   -0.1667026154
 H    0.3671884653    1.6289006580    0.3169007792
 H   -0.2642186932   -0.4592896408    1.3381354501
 H   -1.9590699221   -0.2952791383    0.8361319996
 H    0.6657394327   -2.3894875401   -1.1579902975
 H    0.7201380075   -3.4959488749    0.2376429414
 H   -1.0757561670   -3.5626970611   -2.2266966771
 H   -1.1073836183   -5.5937210483    0.0885435388
 H   -1.9732731953   -5.7556511601   -1.4447344715
 H   -0.2032628009   -5.7796863106   -1.4149637026
 H   -3.0899630417   -2.6581231889   -0.8044983457
 H   -1.4687774868   -3.7866107573    1.3707757789