18

 N   -0.0786594499    1.2556162117    0.1597882544
 C   -0.0497355861    0.0034524175    0.0112705071
 O    1.1068834284   -0.7556938391   -0.0511256618
 C    0.8451155842   -2.1715495362   -0.3280720699
 C   -0.5775996105   -2.1706276838   -0.8785976187
 C   -1.9396292676   -2.6674287009   -0.2769236898
 C   -1.5745323040   -1.9489558691    1.0435072967
 C   -1.1652850606   -0.9695834073   -0.1128735438
 C   -2.5376466446   -1.2890156299   -0.7640689654
 H    0.8707697371    1.6305598988    0.2160339925
 H    1.5942456304   -2.4891273611   -1.0561682044
 H    0.9922197021   -2.7394461231    0.5943678665
 H   -0.5813271310   -2.0604850332   -1.9672235587
 H   -2.4008568618   -3.6486791647   -0.3944624473
 H   -2.4060072927   -1.6132302539    1.6662752203
 H   -0.7805015835   -2.3791250427    1.6540137755
 H   -2.6085818531   -1.1373051038   -1.8434907887
 H   -3.4303850069   -0.9384129890   -0.2425927645