17

 O   -0.0188651551    0.2460188332    0.9777513810
 C   -0.0141864800    1.1546270249    0.1921334206
 C   -1.3400617502    1.8537382319   -0.1707827143
 O   -1.5763377553    2.3218913548   -1.4787013026
 C   -0.5957714450    3.1405383661   -2.0893189320
 C    0.6109933060    2.3038415867   -2.5969537278
 C    1.3226588029    2.6322418124   -1.2623486391
 C    0.3798548128    3.8522145619   -1.1110182346
 O    1.1747382416    1.6105105699   -0.2699343181
 H   -2.1146897895    1.1131454331    0.0294246148
 H   -1.4639443315    2.6598341825    0.5701697403
 H   -1.1298117693    3.7567515570   -2.8152138608
 H    0.4191830157    1.2507116180   -2.8116937909
 H    1.1160155801    2.7700141619   -3.4471125082
 H    2.3960111936    2.8192802013   -1.2820453131
 H    0.8221355856    4.7312912460   -1.5862703144
 H    0.0406316176    4.1318524884   -0.1126437108