11

 O    0.0565714181    1.3825321884    0.0101396627
 C   -0.0233245813   -0.0166532045    0.0018738210
 C   -1.4619116816   -0.4143245997    0.0128957195
 N   -2.4881837723    0.3502913648    0.0221482615
 O   -3.5867137990   -0.5555235874    0.0295510350
 C   -3.1231430280   -1.8280892219    0.0240195254
 O   -3.7517914298   -2.8315285060    0.0274281078
 O   -1.7371946543   -1.7400393429    0.0132198437
 H    0.9852237803    1.6314617348   -0.0071189713
 H    0.4380230030   -0.4719579446   -0.8901422361
 H    0.4547176048   -0.4833530009    0.8791360208