14

 C   -0.0667882554    1.5354860848   -0.0695198503
 C   -0.0293171952    0.0380962184    0.0623699334
 O    1.2161393350   -0.6149756472   -0.1412779999
 C    0.6529976126   -0.6675231421    1.1911481900
 C    1.3550014507    0.0846275401    2.2044921877
 C    1.9267850480    0.6979914847    3.0648162484
 C    0.1613614942   -1.9598257628    1.6099670117
 C   -0.2587387192   -3.0284807405    1.9625586966
 H    0.7665522335    1.9985933044    0.4618305268
 H   -0.0092007675    1.8154468097   -1.1264596365
 H   -1.0065192009    1.9268231928    0.3333062151
 H   -0.8785955926   -0.4982958446   -0.3641316063
 H    2.4392794095    1.2363834939    3.8237199482
 H   -0.6227348128   -3.9762238818    2.2749093549