16

 O   -0.0686195075    1.4316374593    0.1269107248
 C    0.0479753940    0.0298263209   -0.0124965079
 C    0.7559887724   -0.6492146337    1.1468847989
 C    0.0383476693   -1.6265922478    1.6996926902
 C   -1.3089100072   -1.7932871126    1.0464278619
 C   -2.4622225367   -1.0033651771    1.7108795806
 O   -2.2937139745    0.0921697518    0.7774589958
 C   -1.3381784316   -0.6654889764   -0.0120309407
 H   -0.8308883349    1.5631223547    0.7098425540
 H    0.5796786409   -0.1389596846   -0.9574827446
 H    1.7402491303   -0.3276113080    1.4686957353
 H    0.3481573716   -2.2319019812    2.5453850292
 H   -1.5424146749   -2.8138441047    0.7371802246
 H   -3.4532360406   -1.4608398608    1.6032958564
 H   -2.3129393576   -0.6883500461    2.7491656445
 H   -1.7331913229   -0.8834606939   -1.0080846629