19

 O   -0.0310278280    1.2925144299   -0.4667770400
 C    0.0730254858   -0.0854560095   -0.1518889370
 C   -1.2985211937   -0.6334187244    0.2035189594
 O   -2.2095910836   -0.4650499413   -0.9188650268
 C   -2.5517825702   -1.8665144102   -0.9174686379
 C   -1.9748444268   -2.6363220663   -2.1015864680
 O   -0.6018467771   -2.8507206640   -1.7931764770
 C   -0.5289722495   -3.0889277099   -0.3909316343
 C   -1.5657578634   -2.1591505781    0.2451308675
 H   -0.6885057633    1.3530671449   -1.1703682784
 H    0.4962337304   -0.6564922292   -0.9892223603
 H    0.7506922489   -0.1665944374    0.7056771209
 H   -1.6861671929   -0.0979157397    1.0795809012
 H   -3.6245547426   -2.0233508454   -0.7699060958
 H   -2.5063859912   -3.5961811121   -2.2143914941
 H   -2.0340491057   -2.0801387302   -3.0401856024
 H   -0.7809561453   -4.1370058524   -0.1604379734
 H    0.5018212322   -2.9075433928   -0.0759549034
 H   -1.9702478740   -2.5375437919    1.1831316499