21

 C    0.1220839309    1.4687744180   -0.0038194816
 O   -0.1473558347    0.0855918916   -0.1000051610
 C    0.5670456876   -0.5716524793   -1.1180247174
 C    1.9076237808   -1.2424895428   -0.6288722276
 C    2.6235200710   -0.7617224416    0.6248747919
 C    1.1047982273   -2.5528869183   -0.5292219218
 O    1.2604181383   -3.5672676619    0.0880636663
 C   -0.0493240600   -1.9872172952   -1.3717208986
 C   -1.4838039712   -2.2914722021   -0.9673626841
 H    1.1688345371    1.6743498568    0.2578375513
 H   -0.1080330259    1.9859772837   -0.9477103127
 H   -0.5221901521    1.8666863855    0.7837993236
 H    0.6554331913    0.0727085191   -2.0016198352
 H    2.6044291575   -1.3226343374   -1.4734493451
 H    1.9038580414   -0.5497529201    1.4198145277
 H    3.2997415481   -1.5431264149    0.9842739683
 H    3.2149793515    0.1400314319    0.4393085435
 H    0.1281638564   -2.2648217989   -2.4189493824
 H   -1.6864887677   -1.9278672274    0.0416691459
 H   -2.1974355954   -1.8185839112   -1.6487582473
 H   -1.6539756822   -3.3717993356   -0.9876143737