19

 C    0.0206977236    1.3988101242   -0.1522238541
 O    1.3157718917    1.9495136973   -0.0185815491
 C    2.0547155409    1.4775480578    1.1097255688
 C    1.4406449986    1.8839697843    2.4562422359
 O    0.1624579288    1.3071928751    2.6831796953
 C    0.0883614628   -0.0937390320    2.4599477314
 C    0.6875409692   -0.5219384726    1.1134712081
 C    2.1416910505   -0.0492280885    1.0310472202
 O   -0.0223456057   -0.0074769239   -0.0149148494
 H   -0.6675422060    1.8707357909    0.5590884033
 H   -0.2927450986    1.6112089067   -1.1781222438
 H    3.0392947057    1.9481655908    1.0234271027
 H    2.1450251054    1.6043538217    3.2595559928
 H    1.2889779616    2.9661914991    2.4954472316
 H    0.6058995887   -0.6466138372    3.2637723089
 H   -0.9750703058   -0.3449703831    2.5016543573
 H    0.6060843128   -1.6103948048    1.0300936842
 H    2.5894384545   -0.3571559869    0.0830066133
 H    2.7388007013   -0.4559679288    1.8541695627