18

 C   -0.1012041140    1.5791095513   -0.0502442821
 C   -0.0067318020    0.0514793387    0.0431882624
 N    0.7456793373   -0.5287692571   -1.0607906685
 C    1.9987207274   -0.9986721337   -0.7632452113
 O    2.8006970624   -1.4373537572   -1.5557107177
 C    2.1773350239   -0.8410785752    0.7512811259
 C    0.7965127194   -0.4602608494    1.2513290521
 C    0.4656037199   -0.1259531873    2.6369720265
 O    0.1294836822   -1.4059495112    2.0922528270
 H    0.8928078954    2.0365927000   -0.0219950836
 H   -0.5828180263    1.8771633437   -0.9871691421
 H   -0.6953203310    1.9848783164    0.7740244973
 H   -1.0127881740   -0.3803363720    0.0950987341
 H    0.4525268881   -0.4558701836   -2.0227230271
 H    2.5339304270   -1.7672838110    1.2051323013
 H    2.9248744589   -0.0622117881    0.9360062169
 H    1.2510366770   -0.1277183004    3.3920936430
 H   -0.3805609315    0.5242954061    2.8571655959