20

 C    0.1370009800    1.5430636181   -0.0906720753
 C    0.0450070611    0.0265893943   -0.0084540599
 O   -1.3162993960   -0.3924332717   -0.0791323646
 C    0.9512199665   -0.8213526563   -0.9643633259
 C    1.4127330003   -1.6939177096    0.2359706322
 C    2.7618783700   -1.2677480542    0.8663881396
 C    2.0148501036   -0.2304733878    1.7596936628
 C    0.6477707892   -0.7252821499    1.2085904195
 H    1.1687853027    1.8986936230   -0.0202523005
 H   -0.2619722367    1.8947246963   -1.0509098327
 H   -0.4491028374    2.0063495259    0.7093191146
 H   -1.6644140736   -0.1119253624   -0.9332333637
 H    0.3742240168   -1.3517485401   -1.7262174297
 H    1.7580727270   -0.2682368457   -1.4562651737
 H    1.2007325938   -2.7608321873    0.1662387900
 H    3.2329960372   -2.0628398962    1.4503053001
 H    3.5085835445   -0.8710909132    0.1714054277
 H    2.1365338021   -0.4046371275    2.8311311809
 H    2.2495972856    0.8194460111    1.5679019560
 H   -0.0931748267   -1.0535636767    1.9376189728