16

 C   -0.0222352414    1.4848926217   -0.0222355982
 C    1.2696877604    1.8206860111   -0.0336592424
 C    1.9901268500    0.4743521710    0.0183200154
 C    1.1588754333   -0.4429858026   -0.9722685096
 C    1.5333930493   -1.8651746289   -0.5581868619
 C    1.5317723862   -1.8133774526    0.7757047762
 C    1.1586193471   -0.3628156205    1.0773248329
 C    0.0049981402   -0.0415235565    0.0382463095
 H   -0.9023576238    2.1121951478   -0.0476581569
 H    1.7324416712    2.7970231027   -0.0710164109
 H    3.0807779182    0.4393971602    0.0200031192
 H    1.0815641631   -0.1856324385   -2.0298773764
 H    1.7428923458   -2.6939211459   -1.2200477428
 H    1.7396386573   -2.5882707009    1.5003443758
 H    1.0806999470   -0.0237278753    2.1115841339
 H   -0.9304205438   -0.6030095727    0.0599130662