19

 C   -0.1930667063    1.5923375270    0.1051661975
 C    0.0060626807    0.0948679919    0.0905585464
 C   -1.2243815411   -0.7755611634   -0.1636555963
 C   -0.8723819885   -2.1219867826    0.5177230836
 N   -0.0137666121   -1.7971925036    1.6716996686
 C    0.7540328604   -0.6330054587    1.2634852226
 C    1.8112711871   -0.9035709218    0.1979779710
 N    2.9282405373   -1.4723226265    0.1885106454
 O    1.1156142293   -0.2789152522   -0.8159165473
 H    0.7475592305    2.1073037642    0.3207554111
 H   -0.5598431010    1.9476972264   -0.8633030175
 H   -0.9263187542    1.8724688930    0.8683753561
 H   -2.0940999038   -0.3177424447    0.3219636468
 H   -1.4413379557   -0.8703124632   -1.2309068159
 H   -1.7481642956   -2.6893375545    0.8391375364
 H   -0.3048492232   -2.7554806691   -0.1730031962
 H   -0.5888615823   -1.5499056319    2.4705858644
 H    1.0990072720   -0.0441752732    2.1138296787
 H    3.3458940964   -1.4504403972   -0.7442340053