18

 C   -0.0084055717    1.5523962668    0.0550790258
 C    0.0350809260    0.0522168831    0.0148339182
 C   -0.8829541683   -0.8288257325    0.8096963805
 C    0.6011544911   -0.9622781920    1.0220097116
 C    1.2780128603   -1.7447756575   -0.1350173754
 N    0.5309259105   -2.7973119796   -0.8313559222
 C   -0.0806706919   -1.9452979791   -1.7423824473
 O   -0.8989245997   -2.1363304972   -2.6000159737
 C    0.6988926144   -0.7369167663   -1.1572402551
 H    0.9688629253    1.9895411762   -0.1796797473
 H   -0.7310089230    1.9447229226   -0.6704549993
 H   -0.3067269200    1.9098886933    1.0460017116
 H   -1.4049290459   -0.3212604609    1.6152389954
 H   -1.4605592104   -1.6242556183    0.3474650418
 H    1.0630243572   -0.7841915080    1.9859938278
 H    2.3487422876   -1.9210104803   -0.0352275949
 H    0.2485614444   -3.7223885209   -0.5376140557
 H    1.3349046840   -0.1591410094   -1.8249556518