19

 C   -0.0205986807    1.4958775875    0.0530894138
 C   -0.0021242429    0.0046948898   -0.0405868928
 C   -0.0220583185   -0.7545169995   -1.1389040354
 C    0.0077815015   -2.2293857041   -0.8202246850
 C    1.2679066826   -2.4867659914    0.0347436706
 O    1.2206096610   -1.6559755524    1.1995409141
 C    0.0451281633   -0.8581243721    1.2098748520
 O   -1.1058734346   -1.6891096676    1.2647087298
 C   -1.1948183935   -2.5216460973    0.1035981314
 H    0.8693734072    1.8714533634    0.5737114311
 H   -0.0553962148    1.9575807286   -0.9376492635
 H   -0.8897129035    1.8465254547    0.6239035364
 H   -0.0558570630   -0.3750355279   -2.1547381318
 H   -0.0077083590   -2.8742098664   -1.7010722400
 H    1.3032041652   -3.5352251351    0.3597127322
 H    2.1821232821   -2.2634442386   -0.5291541496
 H    0.0631937393   -0.2927208673    2.1422799742
 H   -2.1450475274   -2.3245363417   -0.4081301795
 H   -1.1823634042   -3.5704590925    0.4290940619