19

 C    0.3179526931    1.0872643207    0.3449086284
 O   -0.3456763242    0.0474331153   -0.3442890586
 C    0.4533364628   -0.5703787993   -1.2957476289
 C    1.4779504055   -1.6388392780   -0.9708886056
 O    2.7920699515   -1.6361463043   -1.3989892287
 C    0.9174647660   -2.5499571109    0.1195248084
 O   -0.3014990322   -2.7626317178   -0.6365096126
 C    0.1935046530   -1.9864120228   -1.7303509336
 C   -0.1412168129   -2.4443082309   -3.1114941154
 H    1.2089424428    0.7203256852    0.8765802845
 H    0.6287455560    1.8940649816   -0.3367714487
 H   -0.3866734609    1.4934527145    1.0740818619
 H    0.7791380494    0.0740624483   -2.1181616150
 H    3.2382395283   -0.8692427872   -1.0235416512
 H    1.4838263043   -3.4824670025    0.2176496075
 H    0.7227152462   -2.1138818335    1.1051683027
 H   -1.2209020700   -2.3761376118   -3.2848543628
 H    0.3646611874   -1.8229918818   -3.8554957820
 H    0.1641841240   -3.4845786947   -3.2580014803