21

 C   -0.1365010174    1.6131361845   -0.1094849301
 C   -0.0692494958    0.1000482766    0.1115480529
 C   -1.4347054873   -0.5872359245   -0.0188127961
 O   -2.0336920760   -0.3271519008   -1.2881005399
 C   -1.3498608002   -2.0912804699    0.2624236271
 N   -2.6707146684   -2.6829933031    0.4051566470
 C   -3.3197453903   -3.1574709040   -0.8086993347
 C   -2.7751140974   -4.1219009616    0.1857099921
 H    0.8590098961    2.0649518954   -0.0678812011
 H   -0.5807350312    1.8415395510   -1.0816868376
 H   -0.7554714159    2.0931192509    0.6563506121
 H    0.6251567525   -0.3532995954   -0.6122616861
 H    0.3436405057   -0.1178882735    1.1043366446
 H   -2.1330575375   -0.1510097765    0.7052892969
 H   -1.4231715851   -0.6418322126   -1.9648781523
 H   -0.7548712429   -2.5739695705   -0.5401904070
 H   -0.8068685830   -2.2517905846    1.2020029319
 H   -4.3872337178   -2.9707880440   -0.8780960773
 H   -2.7823675307   -3.0530165682   -1.7487753289
 H   -1.8712944409   -4.6635745736   -0.0912637123
 H   -3.4343624267   -4.6567933955    0.8635298386