22

 C   -0.0101874340    1.6966642525    0.1155096511
 C    0.0249671293    0.1656886556    0.1915963552
 C   -1.3534071002   -0.4776331858    0.0487791898
 C   -1.9596290450   -0.6779801011   -1.3747392875
 C   -1.2986879316   -0.1226550129   -2.6212962463
 O   -1.7979351406   -2.1116663254   -1.2757339859
 C   -1.4460106710   -2.0290204283    0.1238072455
 C   -0.2322770796   -2.8718999051    0.4634891385
 H    0.9893179130    2.1212274181    0.2517090086
 H   -0.3888492662    2.0455843330   -0.8500548836
 H   -0.6584807785    2.1133957488    0.8944202456
 H    0.7140305595   -0.2252892659   -0.5652338464
 H    0.4459370197   -0.1324356861    1.1604502104
 H   -2.0446744727    0.0211844686    0.7354138049
 H   -3.0297890472   -0.4199183008   -1.3908866923
 H   -0.2201074622   -0.3001772276   -2.6255223916
 H   -1.7227282502   -0.6185615031   -3.5006391904
 H   -1.4819292712    0.9521446474   -2.7200906213
 H   -2.2947943318   -2.3516260626    0.7465034130
 H    0.6416393069   -2.5771668530   -0.1229673248
 H    0.0130979327   -2.7899106912    1.5279006774
 H   -0.4461562792   -3.9235131350    0.2469898402