20

 C    0.0560875369    1.3721920241    0.1877756316
 O    0.0098489193   -0.0276233877    0.0499092711
 C   -1.3076419606   -0.5359958454    0.0288226929
 C   -1.2125414764   -2.0463583274   -0.0785429760
 C   -0.7888372780   -2.7625976343    1.2189182328
 O   -2.1148759769   -3.3023870009    1.4058495080
 C   -2.5249510726   -2.8618404505    0.0892457239
 C   -3.8836108641   -2.1875923388    0.0949849554
 H    1.1083984144    1.6664917870    0.1943551552
 H   -0.4503295445    1.8825235341   -0.6470910791
 H   -0.4127652786    1.7069066818    1.1268402008
 H   -1.8426046798   -0.2424240312    0.9477558161
 H   -1.8701824174   -0.1165807169   -0.8233679225
 H   -0.6248467904   -2.3005174887   -0.9633909824
 H   -0.0393225160   -3.5534640531    1.0858739069
 H   -0.4826300854   -2.1172483495    2.0500479725
 H   -2.5497828593   -3.7173487292   -0.6028658579
 H   -3.9060577213   -1.3232393596    0.7636554466
 H   -4.1593255160   -1.8625642503   -0.9140918299
 H   -4.6414638135   -2.8985260435    0.4391744139