14

 O    0.0034632314    0.0207489073    0.1087341003
 C   -0.0133740158    1.2054429734    0.0557018800
 O   -1.1524689192    1.9611058856    0.0078304146
 C   -0.8185402743    3.3352339110    0.0344905469
 C   -0.7851781149    4.0250844787    1.4093854302
 N   -0.0088773658    3.1336885491    2.2865361073
 C    0.7183803624    4.0455859047    1.3886811940
 C    0.7326958395    3.3563290934    0.0131642047
 O    1.1030094085    1.9917762780   -0.0231487835
 H   -1.3517921365    3.8713088876   -0.7503336584
 H   -1.4895331543    4.7444556135    1.8053322702
 H   -0.0014768437    3.5362643676    3.2214028062
 H    1.4135031358    4.7840363386    1.7653505990
 H    1.2294010069    3.9063975915   -0.7858286714