17

 C    0.5822980188    0.5313079035    1.2235463508
 C   -0.0213717653    0.0196597218   -0.0650976842
 C    0.4114648687    0.5937462076   -1.3471124299
 O    0.8831071949   -0.6887263801   -0.9274330549
 C   -1.4021037196   -0.6113074877    0.0565006943
 C   -2.5754047957    0.0422623400   -0.6170972337
 N   -2.0446547418   -1.2197520760   -1.1150862998
 C   -1.6357032394   -1.3322568694    1.2948494243
 N   -1.8178610345   -1.8767696943    2.2978712621
 H    1.5619751397    0.9720197163    1.0280418910
 H   -0.0622318019    1.2905937598    1.6783272112
 H    0.7037096542   -0.2815019839    1.9444068638
 H   -0.2392606412    0.5929880253   -2.2212394080
 H    1.1480291301    1.3958505331   -1.3387910463
 H   -3.5574017657   -0.0235739006   -0.1588816415
 H   -2.3700281805    0.9674168183   -1.1484740900
 H   -1.4411992310   -1.1126113939   -1.9265784793