17

 C   -0.0198162485    1.5268112885    0.0520652255
 C   -0.0038785552    0.0332646491   -0.0510083410
 C   -0.0348130350   -0.6740723755   -1.2137091343
 N   -0.0182167058   -2.0426747562   -1.2492196387
 C    0.0288712304   -2.7190067879   -0.1386886604
 C    0.0473116550   -4.2164427530   -0.1582218876
 C    0.0663229608   -2.0781920272    1.1896893552
 O    0.1106534349   -2.6594814195    2.2615827837
 N    0.0457037182   -0.6859193483    1.1148907241
 H    0.8770462608    1.8998376092    0.5607128815
 H   -0.0590635406    1.9754725912   -0.9418581037
 H   -0.8898932518    1.8768728355    0.6200984882
 H   -0.0743553871   -0.1621147223   -2.1675669574
 H    0.0177430839   -4.5754178297   -1.1874230915
 H    0.9440469578   -4.5964884867    0.3435904007
 H   -0.8043720344   -4.6188312819    0.4013892815
 H    0.0703612868   -0.2127440054    2.0092013541