18

 C    0.0118849869    1.5234553476   -0.1770690521
 C    0.0780280042    0.0196680984   -0.0397887999
 O    1.1229289049   -0.5898072201   -0.0350800993
 C   -1.2619228804   -0.7437045736    0.0731241178
 C   -1.7685646684   -1.0183509303   -1.3536452037
 C   -1.1052702332   -2.0438274898    0.9103110748
 O   -1.9833688207   -1.8403676495    2.0458568227
 C   -2.5521461549   -0.6342809954    1.8490744755
 N   -2.2540651596    0.0542882685    0.8255845267
 H    1.0068631180    1.9152582585   -0.3906502584
 H   -0.6938970289    1.8187073113   -0.9590534822
 H   -0.3735334951    1.9518227748    0.7533581458
 H   -1.0405776424   -1.6173668730   -1.9093133200
 H   -2.7147677028   -1.5652662747   -1.3079657872
 H   -1.9447092312   -0.0856011647   -1.8952738006
 H   -1.4409359237   -2.9392541868    0.3806819704
 H   -0.0848899846   -2.1914984202    1.2662423161
 H   -3.2524330780   -0.3363308311    2.6220047037