20

 C    0.0583149342    1.4968756082    0.1415595403
 C    0.3587000417    0.0029701982   -0.0005622647
 C    0.4728751136   -0.4343910655   -1.4609610721
 N    0.7022323277   -1.8795989586   -1.5373201073
 C    1.2085121882   -2.5580639815   -2.6929084864
 C    2.2353811782   -1.7219040991   -3.4786475242
 C    3.0678204473   -1.6775246848   -2.1667405511
 O    4.1793536133   -1.3113237793   -1.9151832095
 C    2.0288314616   -2.4768262120   -1.4018216390
 H    0.8457085003    2.1077287563   -0.3137181583
 H   -0.8881539905    1.7614643951   -0.3431916012
 H   -0.0166786912    1.7847416132    1.1941971070
 H    1.2964893030   -0.2377236497    0.5154013157
 H   -0.4237064603   -0.5924578443    0.4829880030
 H   -0.4712997961   -0.2388313588   -1.9840496227
 H    1.2471095806    0.1663949249   -1.9612924173
 H    0.6774296801   -3.4251605638   -3.0689407404
 H    2.7816708476   -2.2947416864   -4.2342727172
 H    1.8947374286   -0.7826516204   -3.9200343521
 H    2.2048908321   -3.1977775417   -0.6111188725