16

 O   -0.0844661446    1.3815042734   -0.0782334493
 C    0.0194381482   -0.0009404871    0.0065454017
 C   -0.3727247654   -0.7282748539    1.2719318020
 C   -1.2706422107   -0.7988947879    0.0739622017
 O   -2.4746323857   -0.0568630040    0.0814351212
 C   -3.1627020164   -0.4708350292   -1.0814104388
 O   -2.7451188833   -1.8046084420   -1.3580179226
 C   -1.5415867944   -2.0112649469   -0.7328414352
 N   -0.8099207754   -3.0320355150   -0.8275004223
 H   -1.0210858169    1.6011509737    0.0168496800
 H    0.8363447334   -0.3975952266   -0.5871008201
 H    0.1485961146   -1.6436219925    1.5306477910
 H   -0.7238641085   -0.1220161339    2.1004261940
 H   -4.2371574444   -0.4605613379   -0.8845246394
 H   -2.9152508519    0.1670265766   -1.9430977461
 H   -1.2049318787   -3.7167234868   -1.4717546076