15

 O   -0.4296451701    0.4733001013    0.6419405929
 C    0.1265485488    1.1151918083   -0.2169936738
 C    1.3215737446    1.9835190688   -0.0167258744
 C    1.4759088369    2.8292099192    1.2266959855
 C    0.6561461381    2.5291695739    2.4839049786
 N    1.2719893843    1.2947186195    2.9413902473
 C    2.0651742309    0.7040135517    1.9843298945
 O    2.5057686621   -0.4114687938    1.9756168862
 N    2.3823863656    1.7216244903    0.9876692649
 H   -0.2496062966    1.1204991470   -1.2627059769
 H    1.7227866349    2.3915389291   -0.9411384365
 H    1.8753674265    3.8307914489    1.1008826674
 H    0.7812929187    3.3374302378    3.2118873065
 H   -0.4137868037    2.4035527904    2.2807090142
 H    0.7863688490    0.6749781177    3.5708790534