23

 C   -0.6935720503    1.5593929981    0.1964053636
 C   -0.4848754784    0.0503550818    0.3387310109
 C    0.8110219726   -0.3125732430    1.0790136634
 C    0.9848764660   -1.8303613360    1.2016858227
 C    2.2002335582   -2.7105163039    1.0261496607
 C    3.5030844192   -2.2890034458    1.7616713193
 C    3.4190456992   -1.0202499318    2.5671376568
 C    2.7545934952   -2.2681026892    3.0837282346
 C    1.4478278377   -2.6894178453    2.3550909261
 H    0.1289003312    2.0224882366   -0.3603974278
 H   -1.6235563088    1.7864023043   -0.3343023568
 H   -0.7422473168    2.0469726504    1.1766319901
 H   -1.3376511103   -0.3915316552    0.8710054987
 H   -0.4724931941   -0.4158506788   -0.6554035850
 H    1.6570621962    0.1296959042    0.5401487466
 H    0.7895295830    0.1540280057    2.0707792557
 H    0.1424968485   -2.3430132728    0.7329577178
 H    2.2154657948   -3.5026183220    0.2869627856
 H    4.4525252824   -2.7597192222    1.5411728272
 H    4.3441973765   -0.7837677120    3.0871549523
 H    2.8755738488   -0.1445417529    2.2456640242
 H    3.0477540266   -2.7205497270    4.0223337654
 H    0.8110987226   -3.4632084532    2.7672542377