17

 C   -0.0760801226    1.5757230740   -0.1725450909
 C    0.0061264788    0.0815913549    0.0107261260
 O   -1.1429170601   -0.6324210921   -0.3787503010
 C    1.2647559642   -0.7163635827   -0.1847422256
 O    2.4243988248    0.0002023186    0.2585480184
 C    1.9523474674   -0.0500372497    1.6190922657
 C    1.9660862046    1.2404625772    2.4011825831
 O    2.3393471734    2.3096686074    1.9976139783
 C    0.6140015697   -0.6608982255    1.1905260227
 H    0.8810508430    2.0564118376    0.0315829225
 H   -0.3508660472    1.8004319202   -1.2109368144
 H   -0.8421448642    2.0079195553    0.4786140886
 H   -1.2732978033   -0.4817839768   -1.3220270093
 H    1.3968500729   -1.5266727107   -0.8926372882
 H    2.5372775788   -0.7837390431    2.1982609775
 H    1.5918092510    1.1032859535    3.4439330833
 H    0.0513306688   -1.4112595680    1.7274620332