10

 N   -0.1783640935    1.2932722243    0.1380451903
 C   -0.0205826550    0.0618552837   -0.0175525987
 O   -1.1525040239   -0.7348983107    0.0477907472
 C   -0.9978674048   -2.0540325268    0.0242276964
 N    0.1103850626   -2.7332617422    0.1205228899
 O   -0.3081349826   -4.0271344191    0.0427872778
 N   -1.6870731712   -4.0505399805   -0.0902784016
 N   -2.1058968196   -2.8649798649   -0.1031175144
 H    0.7113624786    1.7806746285    0.0495180864
 H    0.8908869495   -0.5047393022   -0.2142851434