18

 C    0.0304329748    1.5435209091   -0.0636973921
 C    0.0308519429    0.0199495152    0.0180463397
 O    0.6223969807   -0.4569146821   -1.1758089708
 C    0.9010291888   -1.8456644773   -1.1601457241
 C    1.9975538833   -2.1573365437   -0.1402664743
 C    1.6859916082   -1.4813883513    1.1616654119
 C    0.7706285460   -0.5054174890    1.2476629049
 C    0.4296811912    0.0671838879    2.5100222131
 N    0.1232275053    0.5467002600    3.5194905332
 H    1.0559908349    1.9204146820   -0.1061958296
 H   -0.4942546481    1.8562546834   -0.9695791106
 H   -0.4704439358    1.9786097010    0.8042139617
 H   -1.0140697291   -0.3349746281    0.0788851869
 H   -0.0089129275   -2.4183121922   -0.9190654224
 H    1.2089894877   -2.1099792428   -2.1748316848
 H    2.0860360300   -3.2401802691    0.0113672641
 H    2.9734144806   -1.8173018617   -0.5128229347
 H    2.2076625961   -1.8099454112    2.0554835279