19

 O    0.0219123058    1.4488547936    0.0320484837
 C    0.0291125871    0.0243713624   -0.0316494567
 C    0.6412193256   -0.6176156359    1.2075427814
 C   -0.0962270535   -1.6586341834    1.5769532079
 C   -0.6410130338   -2.4300141795    2.7547629414
 C   -2.0583976678   -2.1443708095    2.1190555523
 C   -1.3389520380   -1.8501030018    0.7571319649
 C   -1.4470985424   -0.5583601110   -0.0761620608
 O   -2.3383760165    0.3450773089    0.5484287035
 H   -0.2003563355    1.6766084576    0.9428950818
 H    0.5652231089   -0.2105849472   -0.9590852886
 H    1.4893190003   -0.1761558029    1.7188328375
 H   -0.4040034537   -3.4986628991    2.7221335202
 H   -0.4284700926   -2.0506882659    3.7569485619
 H   -2.7818497190   -2.9621958232    2.1388303371
 H   -2.5066071081   -1.2376292505    2.5256401618
 H   -1.3258017883   -2.7405292250    0.1194541143
 H   -1.7614441515   -0.7491564148   -1.1123726715
 H   -2.1499807070    1.2068751271    0.1548669080