18

 C    0.0797535470    1.3729134352   -0.2126446481
 N    0.0256510478   -0.0724199643    0.0173614858
 C   -1.2485358264   -0.5693579561    0.6753555696
 C   -0.9921111800   -2.0817291187    0.7089274832
 C    0.5370735810   -2.0706893040    1.0761437580
 O    1.3634379966   -2.5636712245    0.0495745881
 C    0.7180443872   -0.5533822208    1.2814080927
 C   -0.5779725200   -0.0995126926    1.9890592822
 O   -0.8656471760    0.5915811936    2.9194902351
 H    1.0971177219    1.6442204292   -0.5077653669
 H   -0.5903348840    1.6211892394   -1.0406166758
 H   -0.2035361004    1.9822287675    0.6597217198
 H   -2.1977067899   -0.1824538745    0.3082799866
 H   -1.6120787169   -2.5927673314    1.4500474934
 H   -1.1392862419   -2.5538305712   -0.2651180967
 H    0.7692027170   -2.6488068626    1.9724276977
 H    1.2251922447   -1.9649994989   -0.6976189942
 H    1.7111794523   -0.1706114352    1.5082850594