18

 C   -0.1603714281    1.6874510031    0.2363381718
 C    0.0948087555    0.1765129648    0.1261533875
 C    0.8930277018   -0.2253501662   -1.1244886491
 O    1.6310463702   -1.4027385357   -0.7666181322
 C    1.7238751154   -1.5294923831    0.5900264325
 N    2.3361525562   -2.4541209517    1.1905907304
 C    0.9783829642   -0.3914673433    1.2558339497
 C   -1.2668370300   -0.5204558013    0.1516912857
 O   -1.7719826871   -1.0995470452   -0.7720305749
 H    0.7880598808    2.2274872581    0.3150433128
 H   -0.6989655655    2.0626716821   -0.6397836747
 H   -0.7565969876    1.9253774544    1.1234775354
 H    0.2418158725   -0.4760907646   -1.9635355652
 H    1.5944636071    0.5633399660   -1.4218972068
 H    2.7709016568   -3.0909773294    0.5205692063
 H    1.6946333585    0.3614568211    1.6033020526
 H    0.4264975084   -0.7423722148    2.1310768746
 H   -1.7924766491   -0.4273911044    1.1306357837