12

 N    0.0032360641    1.2882933749   -0.1194339325
 C   -0.0137420913    0.0297269437    0.0333979938
 N    1.1164029115   -0.7547823147    0.2571778877
 C    1.3393060080   -1.9335059343   -0.1321683694
 O    0.6588127641   -2.8274990812   -0.9077252775
 N   -0.6793365038   -2.7724293044   -1.2990709788
 C   -1.4835706802   -1.8865686525   -0.8510583561
 C   -1.3542555461   -0.6721020330    0.0220264987
 O   -2.3222498232   -0.2656782266    0.6131575903
 H    0.9687954667    1.6272288216   -0.0870175207
 H    2.2825316116   -2.4175092078    0.1171127863
 H   -2.5021821914   -2.0445888456   -1.2032200918