19

 C   -0.6590963666    1.1017567545    0.0409689567
 C    0.2943386464   -0.0822120314    0.0073462972
 C    1.1826172012   -0.1713104487   -1.2637127075
 C    2.5719899599   -0.4827899273   -0.7386900216
 C    2.4808217947   -0.3302854274    0.7437276901
 O    1.1954608383    0.0223887012    1.1319370502
 C    2.7460259549   -1.7207043227    0.1558660258
 C    1.7994009829   -2.7919475988    0.2009894746
 C    1.0248977286   -3.7129702084    0.2353725315
 H   -0.1106982982    2.0422591941   -0.0729025544
 H   -1.3922817042    1.0242991788   -0.7685400894
 H   -1.1999998637    1.1309902667    0.9909028993
 H   -0.2691104249   -1.0139564875    0.1199610205
 H    0.8020089944   -0.9267895171   -1.9567159732
 H    1.2062828382    0.7886690147   -1.7906506757
 H    3.4341323647   -0.1539431594   -1.3066432547
 H    3.2448939865    0.1248232134    1.3639646247
 H    3.7817420116   -2.0376707617    0.2538304781
 H    0.3386780254   -4.5218031330    0.2805018178