21

 C   -0.1766557038    1.5230973073   -0.0146143090
 C    0.0718831693    0.0142430077   -0.0559348011
 O    0.8616770403   -0.3555991634   -1.1788675776
 C    0.6909550492   -0.5190353815    1.2445106959
 C    0.7997962593   -2.0372855795    1.2830769151
 O    2.0220117969    0.0670042825    1.2992309615
 C    2.5695336179    0.2605962431    2.5207182197
 C    3.9475994316    0.8653698436    2.3943269860
 O    2.0193798033   -0.0159172376    3.5556673876
 H    0.7578477285    2.0643208273    0.1647009522
 H   -0.5911243864    1.8565757223   -0.9691186373
 H   -0.8798314647    1.7865099273    0.7826255802
 H   -0.8847803324   -0.5035040029   -0.1944862669
 H    1.7469212809   -0.0095589504   -1.0146327116
 H    0.1295722777   -0.1563374286    2.1097823457
 H   -0.2005748193   -2.4814399681    1.2662719976
 H    1.3507206517   -2.3990911430    0.4118245669
 H    1.3002924785   -2.3609657392    2.1981186225
 H    3.8941728024    1.8173662472    1.8585795277
 H    4.3673237682    1.0207613049    3.3872965990
 H    4.5962081210    0.2016706708    1.8153986058