17

 C   -0.2180246974    1.5350226285    0.0741865133
 C    0.0795677422    0.0305675868   -0.0298673578
 C    0.7462888210   -0.5075811726    1.2142475586
 N    1.9987390383   -0.0857224158    1.4458618749
 C    2.6181969265   -0.5231476043    2.5423809410
 C    2.0423614113   -1.3942435093    3.4637309678
 C    0.7448058381   -1.8315447744    3.2236672891
 C    0.0881637774   -1.3820291681    2.0834250656
 H    0.7040624350    2.0869319016    0.2743703334
 H   -0.6540440208    1.9120015821   -0.8558980034
 H   -0.9210322044    1.7427690103    0.8876640951
 H   -0.8448898560   -0.5243233337   -0.2224349171
 H    0.7471126464   -0.1436956023   -0.8812600502
 H    3.6330836833   -0.1605990192    2.6928458460
 H    2.5976820943   -1.7168497456    4.3371529789
 H    0.2520816903   -2.5123049932    3.9105524015
 H   -0.9243008954   -1.7036406210    1.8631977931