17

 C   -0.3093590867    1.5536220836    0.0227040817
 C    0.0262726365    0.0662045242   -0.0558318601
 O    0.7512568230   -0.2642641642   -1.2578151997
 C    2.0360316101   -0.7220530522   -0.8689524575
 C    2.8126547742    0.3755042698   -0.1106097101
 N    2.3246916849   -0.1445276119    1.2177347955
 C    1.8832159970   -1.4082554073    0.5111894168
 C    0.8778157319   -0.4985959834    1.0740049454
 H    0.5835925031    2.1725186340    0.1332186016
 H   -0.8386054939    1.8659308909   -0.8817854516
 H   -0.9617871359    1.7419077651    0.8821756925
 H   -0.9180412106   -0.4978342366   -0.0802308061
 H    2.5005068585   -1.2339955932   -1.7108586759
 H    3.8965831284    0.2343924573   -0.1417962103
 H    2.5695779265    1.4149516754   -0.3475714180
 H    2.1443258678   -2.4068692975    0.8381157941
 H    0.4072221652   -0.7026012639    2.0294947915