15

 C    0.4308118087    1.3486712646   -0.1954208031
 C   -0.1709608098   -0.0192593005    0.1349614575
 O   -0.0481652220   -0.8842310428   -1.0291059759
 C    0.9958483474   -1.7200331596   -1.2069165597
 O    1.2179263871   -2.2318359135   -2.2731545949
 N    1.7572153201   -1.9757494623   -0.0780249251
 C    1.3744755844   -1.5738374896    1.2000106145
 C    0.4286740252   -0.6516474452    1.3569021757
 H    1.5133025110    1.2707287682   -0.3328152736
 H   -0.0154892650    1.7484600117   -1.1101482871
 H    0.2398531351    2.0487860941    0.6241326980
 H   -1.2543340540    0.0885399941    0.2545748701
 H    2.4494732116   -2.6951258411   -0.2048085039
 H    1.8868915345   -2.0660548226    2.0175529881
 H    0.1029749755   -0.3304912857    2.3367869692