17

 O    0.1395665843    1.3058047871   -0.3792126393
 C   -0.0109849310    0.0096283769    0.1608047858
 C   -1.4368424714   -0.5240156596    0.0434959879
 C   -1.8589494877   -1.1509909835   -1.2782089675
 C   -1.6288268749   -2.0303410965   -0.0865713100
 C   -2.4069281154    0.2345541133    0.7763003595
 C   -3.1804472203    0.9228860608    1.4082497991
 C   -4.0623881918    1.6801557901    2.1136365541
 C   -4.8430868890    2.3559010890    2.7407585817
 H   -0.4541205437    1.8913922762    0.1045442149
 H    0.6604989523   -0.6394461914   -0.4106421425
 H    0.3028611185   -0.0282016286    1.2151384286
 H   -2.8784569735   -0.9875414103   -1.6055666580
 H   -1.1192310730   -1.1413711344   -2.0710416598
 H   -0.7305761653   -2.6380567155   -0.0544008659
 H   -2.4884299314   -2.4666265954    0.4074685924
 H   -5.5316736468    2.9472384317    3.2914152191