18

 C   -0.1159874278    1.5290935769   -0.3232246257
 O    0.1537568595    0.1774843292    0.0044347778
 C    0.6531121440   -0.5923805212   -1.0529652236
 C    1.0531843078   -1.9547517840   -0.4575305529
 C    2.1857705351   -1.8308242870    0.5411790643
 O    3.1815334979   -2.5087864706    0.5147972178
 C   -0.4028118297   -0.8078124987   -2.1647853069
 N    0.1223495964   -1.1303207368   -3.3810155558
 O   -1.5934003826   -0.7120236356   -1.9561342001
 H    0.7851344315    2.0348127040   -0.7031145254
 H   -0.9184217677    1.6092854906   -1.0647053947
 H   -0.4316499914    2.0183110805    0.6004026202
 H    1.5396617101   -0.1050762532   -1.4996670095
 H    0.1681888173   -2.3465604323    0.0605563899
 H    1.3466508597   -2.6630263506   -1.2360033974
 H    2.0332785325   -1.0509084274    1.3155849245
 H    1.1112745842   -1.2137138230   -3.5399347577
 H   -0.5085275169   -1.3574322708   -4.1323865947