18

 O   -0.0884912038    1.4450834897    0.1155371733
 C    0.0284174955    0.0390260782    0.0034597747
 C   -1.3268724105   -0.6365385237    0.1489844276
 O   -2.1691489697   -0.1754080380   -0.9355706746
 C   -2.9974553886   -1.1745203994   -1.3672492274
 N   -3.8260173640   -1.0735931683   -2.3122348826
 C   -2.7599086326   -2.4046206676   -0.5183294548
 C   -1.3553919040   -2.1698775423    0.0514150930
 O   -0.3349286765   -2.5717048766   -0.8486467910
 H   -0.6815182433    1.7302390242   -0.5884049594
 H    0.4811733986   -0.2655659202   -0.9472967213
 H    0.6872294175   -0.2901345830    0.8133921436
 H   -1.7896358124   -0.3157439857    1.0912588285
 H   -3.8034877938   -0.1344539880   -2.7133425750
 H   -3.5033508220   -2.4366993005    0.2869107831
 H   -2.8568747772   -3.3227109516   -1.1002207889
 H   -1.2125799246   -2.6283193306    1.0387294327
 H   -0.4361175487   -3.5127383566   -1.0215673616