27

 C    0.0729372294    1.5208566103   -0.1672860624
 C    0.1661716365   -0.0042555251   -0.0696438643
 C    0.6838504628   -0.4929265990    1.2883569798
 C    0.7717303300   -2.0207193012    1.3836354841
 C    1.3842708419   -2.5656726988    2.6888231994
 C    0.5371027490   -2.2284769042    3.9252694615
 C    1.6021684622   -4.0662591630    2.5867445085
 C    2.8199424588   -4.6244475423    1.8960627005
 C    2.6756380493   -4.7488163179    3.3947707823
 H    1.0524279909    1.9880462395   -0.0149229038
 H   -0.2977663742    1.8383490477   -1.1471013593
 H   -0.6056317025    1.9255679406    0.5920995879
 H   -0.8219143126   -0.4445957098   -0.2591243477
 H    0.8222131833   -0.3836596937   -0.8643908874
 H    1.6772634471   -0.0592916531    1.4730374533
 H    0.0310772466   -0.1003743385    2.0784247580
 H   -0.2323243935   -2.4512365352    1.2553349216
 H    1.3689570757   -2.3938510765    0.5413052748
 H    2.3728744309   -2.0982026064    2.8155827066
 H    0.9862540727   -2.6496228128    4.8300874081
 H    0.4369302973   -1.1493093140    4.0726154338
 H   -0.4725144438   -2.6465808591    3.8302929880
 H    0.6830715592   -4.6342781283    2.4525871499
 H    2.7144466853   -5.5180046639    1.2906117944
 H    3.5537285548   -3.9189570238    1.5187576811
 H    3.3146124310   -4.1274838329    4.0147794765
 H    2.4705897420   -5.7276957186    3.8142373648