17

 C   -0.0327416937    1.5149911392   -0.1011192749
 C   -0.0118528828    0.0273420645    0.0189268429
 N   -0.0498340568   -0.7583880552   -1.0234584982
 O   -0.0266980423   -2.0357713299   -0.5366357851
 N    0.0232811781   -2.0426751631    0.8279708067
 C    0.0336618280   -0.7893683139    1.1970952834
 C    0.1175282054   -0.3795063369    2.6322339442
 C    1.5660884243   -0.1002127224    3.0806822667
 O    1.6292254760    0.3750306503    4.4101256085
 H    0.8783023944    1.9593281460    0.3125370514
 H   -0.1142457316    1.8042950048   -1.1500263178
 H   -0.8810638959    1.9399496958    0.4454526860
 H   -0.4778300968    0.5234164942    2.8031451100
 H   -0.3050792258   -1.1768725538    3.2522896470
 H    2.1731194209   -1.0055618271    2.9350574621
 H    2.0056746951    0.6875364561    2.4595295004
 H    1.3889637035   -0.3479741686    4.9984784868