18

 C   -0.1570125089    1.5870782792    0.1216053853
 C   -0.0301376954    0.0716477851    0.1056171197
 C    1.0514138951   -0.5858141399   -0.7837191785
 C    2.1929352451   -0.3047098457    0.2527755514
 C    0.9129869552   -0.6193940583    1.1172939624
 C    1.1543141756   -1.8328554828    0.1517098854
 N    2.6384515358   -1.7224329260    0.2146102627
 C    3.4918338165   -2.3229021513    1.0990202289
 O    4.4322281847   -1.7787040351    1.6369872295
 H    0.8193768276    2.0755797211    0.2052840816
 H   -0.6339584549    1.9503422817   -0.7950509869
 H   -0.7695163877    1.9205500308    0.9660676686
 H   -1.0152782149   -0.4028372651    0.0243211404
 H    1.1621168178   -0.5923788301   -1.8684235621
 H    2.8881405178    0.5273367431    0.3188830757
 H    0.8667802094   -0.6595532429    2.2066840441
 H    0.6203947377   -2.7803461370    0.0886532152
 H    3.2749070337   -3.4066805068    1.2057163866