14

 O    0.0277352977    1.3831951078    0.0093152549
 C   -0.0098092911   -0.0189050808    0.0030769542
 C   -1.4614532455   -0.4792233714    0.0125909442
 O   -2.3994769468    0.2832914503    0.0237132647
 C   -1.6821128513   -1.9442032273    0.0078992467
 N   -0.6905571569   -2.8462879149   -0.0041535274
 N   -1.3332969324   -3.9976327329   -0.0040870088
 N   -2.6637903799   -3.9441800977    0.0069377690
 C   -2.9095352640   -2.6377823608    0.0148062110
 H    0.9502786123    1.6535896987    0.0018646890
 H    0.4740597528   -0.4614392400   -0.8836476499
 H    0.4882231373   -0.4696306207    0.8777655415
 H   -0.8424567906   -4.8784140420   -0.0120033454
 H   -3.9130582416   -2.2468494883    0.0247041563