17

 C    0.0669209787    1.5238661927    0.0582989548
 C   -0.0809186613    0.0343643286   -0.0337773969
 C   -0.9547399525   -0.7796772557    0.8288523576
 N    0.5088814187   -0.9083700501    1.0147071129
 C    1.0718616436   -1.7595859544   -0.1180024044
 C    0.5282172668   -0.8027854421   -1.1941469711
 N   -0.2353389677   -1.9216585171   -1.7410976263
 C    0.1463803952   -2.8322381551   -0.7617199513
 O   -0.1783291515   -3.9657031875   -0.5426807940
 H    1.0805467240    1.8397697090   -0.2118959477
 H   -0.6345043301    2.0264123601   -0.6184685350
 H   -0.1336114330    1.8700720658    1.0758869623
 H   -1.4212471991   -0.2719083375    1.6679176319
 H   -1.5319566816   -1.6114376103    0.4364099235
 H    2.1236877033   -1.9895692163    0.0323391124
 H    1.1580148999   -0.2626320266   -1.9005408299
 H   -1.0445245135   -1.9407883736   -2.3478508489