16

 C   -0.0162982279    1.5003941488   -0.0785635253
 C    0.0060739592    0.0105918624    0.0427966969
 N    0.0006822925   -0.7488656459   -1.0489550476
 N    0.0252432260   -2.0540871044   -0.6177861597
 C    0.0453465358   -2.0962826953    0.7335690019
 C    0.0343946153   -0.7934514464    1.2199624501
 C    0.0566301501   -0.9007408045    2.6519739625
 C    0.0794075699   -2.2383045984    2.9471965426
 N    0.0725759823   -2.9889308314    1.7633710055
 H    0.8662582129    1.9518946722    0.3889532054
 H   -0.0361601510    1.7882932068   -1.1317010741
 H   -0.8964480612    1.9275722661    0.4155793402
 H    0.0247395239   -2.7910143403   -1.2982360207
 H    0.0561752917   -0.1041820802    3.3795170173
 H    0.1002289551   -2.7454569932    3.8986799786
 H    0.0859538554   -3.9908347663    1.7097950063