20

 C   -0.0696304383    1.5430384401    0.1701568109
 C    0.0156833436    0.0245397437   -0.0258447980
 C   -1.3812760849   -0.5197882586    0.2885163800
 C    0.8608786260   -0.5793521441   -1.1934896708
 C    2.0914785065   -0.0668072392   -0.4193075928
 N    1.2257882878   -0.6642460079    0.7154408799
 C    1.0720060323   -1.8412610516   -0.3004905805
 C    0.1431790772   -2.9277877800   -0.0708674235
 C   -0.4908740613   -3.9384250976    0.0885061798
 H    0.8702208834    2.0883025244    0.1052790108
 H   -0.7494123173    1.9656628435   -0.5774322971
 H   -0.5005958244    1.7512600577    1.1551152085
 H   -1.5916960485   -1.4967460388   -0.1358874102
 H   -1.5115770067   -0.5864799590    1.3740630404
 H   -2.1341531996    0.1786716872   -0.0899129579
 H    0.6625184405   -0.5518247521   -2.2716735986
 H    3.0344140511   -0.6000077557   -0.5584577787
 H    2.2720311061    0.9998300231   -0.3419873321
 H    2.0482435840   -2.3113928265   -0.4574759459
 H   -1.0894501178   -4.8029078185    0.2378992057