21

 C   -0.1229324471    1.4900142496    0.1109225608
 C    0.1154226533    0.0080030334   -0.0115522068
 O   -0.4658695075   -0.7895230960    1.0306587300
 C    0.9782336238   -0.7803412096    0.8894815688
 C    1.4860150627   -1.9471050437    0.1118279968
 C    0.9678979463   -1.9282973873   -1.1171920518
 C    0.0987757165   -0.7065404485   -1.3880939437
 C   -1.3330594098   -1.1068325501   -1.7877056251
 C    0.7401639154    0.1562956345   -2.4912377715
 H    0.6228161935    2.0683028334   -0.4420989384
 H   -1.1124215405    1.7600442189   -0.2757666650
 H   -0.0835365409    1.7840510301    1.1625018618
 H    1.5164599804   -0.3575538277    1.7332981512
 H    2.1385117254   -2.7075790269    0.5228626372
 H    1.1110796735   -2.6926159820   -1.8748453575
 H   -1.8037667521   -1.6813863032   -0.9873729442
 H   -1.9446007968   -0.2189974030   -1.9843877969
 H   -1.3285912202   -1.7136704498   -2.6993721282
 H    0.8319095282   -0.4212587208   -3.4172232795
 H    0.1321734986    1.0398049391   -2.7118261423
 H    1.7433282174    0.4887892599   -2.2064836157