21

 C   -0.2415134792    1.5705382100    0.0229263228
 C   -0.0039014211    0.0671828234   -0.1458398402
 O    0.6864260325   -0.2073083480   -1.3622511935
 C    0.7349516501   -0.5252853109    1.0641845385
 C    0.8906999833   -2.0770554704    1.3112396154
 C    0.5897324694   -2.9881622225    0.1248194628
 C    2.4170693325   -1.8678258426    1.5937808061
 C    2.2663021768   -0.4595705842    1.0158985775
 O    3.0278838587    0.3247455426    0.5157103589
 H    0.7104435734    2.0913839818    0.1737393756
 H   -0.7200058134    1.9740782435   -0.8733390354
 H   -0.8832944549    1.7787752661    0.8854604366
 H   -0.9694601322   -0.4417095481   -0.2537864976
 H    1.5329790492    0.2552026411   -1.3137637326
 H    0.3782473288   -0.0476566346    1.9849172880
 H    0.3349618583   -2.4147639344    2.1891913985
 H    1.1035133653   -2.6524656155   -0.7791473721
 H    0.8992746663   -4.0149305929    0.3466231912
 H   -0.4822002814   -3.0053051438   -0.0978126333
 H    2.6692183074   -1.8514344389    2.6588716995
 H    3.1255657699   -2.5195131716    1.0748302832