13

 C   -0.0228631898    1.5331098608   -0.0024988038
 C   -0.0010439883    0.0329075024   -0.0222075670
 N   -0.0554385820   -0.5842144757   -1.1706277783
 N   -0.0321614088   -1.9158595602   -1.1203734689
 C    0.0439489772   -2.7357720603    0.0180850715
 O    0.0561397952   -3.9388086133   -0.0923820709
 N    0.1004187500   -2.0401989575    1.2313574754
 C    0.0780358175   -0.7465240370    1.1867110830
 H    0.8813633699    1.9360909510    0.4672715671
 H   -0.0872528449    1.9155861819   -1.0221449381
 H   -0.8791672773    1.9091604064    0.5684639909
 H   -0.0747482455   -2.3868203321   -2.0147373935
 H    0.1227709269   -0.2175324764    2.1409530625