16

 O   -0.1596691678    0.0254205487    0.0472335491
 C   -0.1862426558    1.2126876449    0.0977826895
 C   -1.1972974037    2.2800816633    0.5440141091
 C   -0.1257610220    3.2858600099    0.1067585643
 C    1.1514524117    3.0161606065    0.7813588157
 N    0.7966895236    2.1687722180   -0.4025409481
 C   -0.3990699982    4.4954664488   -0.7133721106
 C    0.1784003379    4.6591173596   -2.0544518452
 O   -1.1910731585    4.2848514991   -1.8826785635
 H   -2.0731943557    2.2846732712   -0.1093356570
 H   -1.5132898171    2.2781396427    1.5897749814
 H    1.9945096972    3.6672599139    0.5738840466
 H    1.1655561628    2.5543130514    1.7658851552
 H   -0.6677425867    5.3888480316   -0.1470062859
 H    0.3423307675    5.6613236634   -2.4469075884
 H    0.8269142548    3.8760019070   -2.4391551721