19

 C   -0.0674391772    1.6503809930    0.1348228898
 C    0.0318785602    0.1344134964    0.0332037427
 C    0.7359495888   -0.5079046302   -1.2171433993
 C    1.3048330518    0.3774269624   -2.3178928187
 C    1.7450011873   -1.0827273874   -0.1955791381
 O    2.7273513235   -1.7803344406   -0.2368024092
 N    1.0865457726   -0.4849792161    0.8493789390
 C    1.2848372368   -0.5774208443    2.2720653326
 H    0.9010446471    2.1297360078   -0.0321898172
 H   -0.7780201985    2.0381501497   -0.6021514663
 H   -0.4254415933    1.9494958181    1.1257033651
 H   -0.9531100550   -0.3116248433    0.2297542128
 H    0.1267326845   -1.3063768885   -1.6524392389
 H    1.9408944675    1.1720786284   -1.9178082946
 H    1.9195093972   -0.2259674229   -2.9923052600
 H    0.5097409461    0.8416065878   -2.9103495263
 H    2.1812898526   -1.1790916053    2.4411763023
 H    1.4328680371    0.4089183524    2.7274770173
 H    0.4349503810   -1.0638048672    2.7684648572