21

 C   -0.1337849371    1.5398015549    0.0833253510
 C   -0.0177330096    0.0114694405   -0.0193152398
 C    0.7977124141   -0.4617908994   -1.2076835317
 C    1.8222592731   -1.2526255522   -0.8692912729
 C    2.8322263577   -1.8975609835   -1.7637948156
 C    1.8532991886   -1.3910231510    0.6233058112
 O    2.0688778172   -0.1297913403    1.3079275406
 C    0.7256294618   -0.6195967910    1.1712320608
 C   -0.0018064362   -0.9245063518    2.4513309399
 H    0.8581080566    1.9806432170    0.2113316808
 H   -0.5882276316    1.9611477363   -0.8188166085
 H   -0.7552504258    1.8321469728    0.9364394302
 H   -1.0316585592   -0.4131286181   -0.0688708606
 H    0.5756906563   -0.1361160343   -2.2195974984
 H    2.6257930253   -1.6884797068   -2.8168929172
 H    3.8458937575   -1.5442414561   -1.5369329141
 H    2.8440813893   -2.9870190888   -1.6315659072
 H    2.2915030430   -2.2564390617    1.1151398771
 H   -0.3917453189   -0.0057694288    2.9044235933
 H   -0.8493097918   -1.5938167101    2.2695046905
 H    0.6707142499   -1.3961098076    3.1722053205