18

 C   -0.1303264966    1.5551797863    0.0553428651
 C    0.0386220887    0.0469774752   -0.0359946112
 C    0.8679724835   -0.5263405769   -1.2100289819
 C    2.3055268619   -0.1131186561   -0.8158106241
 C    2.2218148121   -0.5938360556    0.6345184298
 C    1.3450864906   -1.8140914335    0.6729801298
 N    0.8379938395   -0.4874109296    1.1192996323
 C    0.8948449922   -2.0003887610   -0.7526206531
 O    0.6358387816   -3.0061076337   -1.3542284801
 H    0.8267739605    2.0827120068    0.0310975398
 H   -0.7449611444    1.9227291407   -0.7722700394
 H   -0.6277419029    1.8133510416    0.9948669530
 H   -0.9490669164   -0.4275830026    0.0014917020
 H    0.5336879526   -0.3503939878   -2.2283565402
 H    3.0659300047   -0.6487494767   -1.3915863783
 H    2.4988602455    0.9588875042   -0.9010946749
 H    3.0137764296   -0.4374586328    1.3567404019
 H    1.4243482572   -2.6174373484    1.3928882993