16

 O   -0.7416848539    1.3537336636    0.7827333364
 C    0.1227245122    1.0106937498    0.0149468213
 C    1.4416322034    1.7162339219   -0.1437402800
 C    1.8682527469    2.6715331089    1.0077962658
 C    2.0628648054    3.7940826846   -0.0233076704
 O    2.4181864050    4.9333885349    0.0437491656
 C    1.6268103986    2.9025480084   -1.1915154132
 C    2.8181698938    2.0707342387   -1.7539966598
 N    2.4761406101    0.9457720114   -0.8513966517
 H    0.0005762905    0.1425247652   -0.6684753242
 H    1.0208372655    2.8837274105    1.6693809522
 H    2.7346596624    2.3878633903    1.6114762195
 H    0.8639517168    3.2558505756   -1.8834943934
 H    2.7220599500    1.8052202084   -2.8111963769
 H    3.8007492382    2.5324226025   -1.6018298973
 H    3.2313315152    0.5922161855   -0.2740607239