18

 C   -0.0873069538    1.5812629513    0.0711156108
 C    1.4335026301    1.4659568245    0.0106361512
 C    1.9384584335    0.5036263047    1.1281999576
 C    2.4331179785   -0.4461243632    0.0138504839
 C    2.1489695465   -1.8405281152    0.4646825327
 C    1.1160141605   -1.7774263200    1.3142631482
 C    0.6507699928   -0.3466305611    1.3908732806
 C    0.0320981526    0.0441479920    0.0010426640
 N    1.3015568995    0.2041224812   -0.8433240551
 H   -0.5598016723    2.0151721454    0.9562864004
 H   -0.4970627643    2.0205382032   -0.8410404982
 H    2.0975398283    2.2550046375   -0.3436125059
 H    2.5493056897    0.7943631167    1.9849197736
 H    3.3903047383   -0.2360456950   -0.4628892536
 H    2.6458807335   -2.7293418792    0.0976570820
 H    0.5980230673   -2.6095315268    1.7756443738
 H    0.0323547634   -0.0740713450    2.2468232720
 H   -0.7515154941   -0.5990989509   -0.3968261780