17

 N    0.2365187607    0.7600845501   -0.9144437105
 C   -0.0382610144    0.0581965773    0.2192865564
 O    0.6763192494    0.0286615239    1.2048048706
 C   -1.3030209902   -0.7338276271    0.1575567465
 C   -2.0436208816   -1.3712551867    1.3280408814
 C   -2.8668192328   -2.1289870731    0.2515132353
 C   -3.5862748041   -0.9784644873   -0.4794406805
 N   -2.2605794443   -0.4949750506   -0.9925314819
 C   -1.6928439545   -1.8443269678   -0.7608780508
 H    1.0287960435    1.3810404642   -0.9060749701
 H   -0.4974162013    0.8832960523   -1.5945735899
 H   -1.3672584656   -2.0275798717    1.8775870513
 H   -2.5877054166   -0.7255174372    2.0246800231
 H   -3.3473074813   -3.0804721468    0.4674138005
 H   -4.1839154426   -1.3047296712   -1.3339452798
 H   -4.1491827757   -0.2537326110    0.1197213476
 H   -1.1327436487   -2.4153600773   -1.4897929492