21

 C    0.0614205693    1.4706307664    0.1459280763
 O    0.1745150964    0.0766682621   -0.0268163633
 C    0.6837118538   -0.6329020887    1.1028384653
 C   -0.3593495270   -0.7840975890    2.2100207848
 C    1.1392267355   -1.9875275852    0.5676840661
 N    2.1180854205   -1.8158708108   -0.4855631964
 C    3.0993759250   -2.7518437522   -0.7019517717
 N    3.8309105092   -2.5416233810   -1.8691364237
 O    3.3097685990   -3.6946565038    0.0401150189
 H    1.0195940766    1.9214620236    0.4483711472
 H   -0.2370444748    1.8912620908   -0.8178656970
 H   -0.6979476032    1.7446033233    0.8919041532
 H    1.5645391683   -0.0949633093    1.4905199093
 H   -1.2429382366   -1.3084614797    1.8331914302
 H    0.0543723446   -1.3563074385    3.0463266691
 H   -0.6770081700    0.1867805143    2.5992410957
 H    1.6051108865   -2.5804149349    1.3566933959
 H    0.2575046205   -2.5419213812    0.2124077452
 H    1.8360237839   -1.2082705271   -1.2383134770
 H    3.9503716239   -1.5875772661   -2.1763575758
 H    4.6836393486   -3.0807304430   -1.8820580222