15

 O    0.0610846460    0.1306069546   -0.6621488528
 C    0.1620737257    1.0378554175    0.1226914174
 C    1.3101217383    1.9724251129    0.1879035552
 C    1.6702163415    3.0061973691    1.2739652870
 C    2.1064625199    3.9459908379    0.1233086321
 C    1.9299572729    5.3926641287    0.0048360895
 O    3.2305224251    4.7908645524    0.1065316719
 C    1.8032681303    2.8749293097   -0.9065164021
 O    2.5020038412    1.6961391408   -0.5392411833
 H   -0.6305479501    1.2616397943    0.8714056292
 H    0.8151889593    3.3858430482    1.8386698765
 H    2.4610013062    2.6817255097    1.9522346712
 H    1.6983919346    5.8388164942   -0.9614419538
 H    1.6091469197    5.9654206873    0.8735699953
 H    1.4707508894    2.9620760627   -1.9349095732