18

 C   -0.0127029327    1.5648295988    0.0554105357
 C   -0.0276075833    0.0387442199   -0.0657055260
 C    0.7506922303   -0.4958708297   -1.2908967079
 C    0.9209538218   -2.0304165135   -1.2075665786
 C    1.6650441973   -2.5856358263   -2.3317952425
 C    2.2784437674   -3.0096354356   -3.2742681248
 C   -0.0045677630   -0.1187861215   -2.5533510936
 O    0.2395205148    0.8318474392   -3.2486948921
 H    1.0090934028    1.9377179550    0.1804869039
 H   -0.4294876064    2.0444148575   -0.8347532240
 H   -0.5971535961    1.8894030802    0.9213769907
 H    0.4079089435   -0.4093149114    0.8358740477
 H   -1.0635632174   -0.3250075836   -0.1125610789
 H    1.7332166531   -0.0155394503   -1.3383771844
 H    1.4250544882   -2.2804340907   -0.2664049064
 H   -0.0705622164   -2.5012706748   -1.1543351320
 H    2.8189807585   -3.3925410236   -4.1042098729
 H   -0.8709532525   -0.7875814697   -2.7777930339