16

 O   -0.0062870134   -0.0157514146   -0.0064154076
 C   -0.0324520497    1.1835136295   -0.0578133320
 C   -1.2786185465    2.0731810035   -0.1406710602
 C   -0.8202625522    3.3655779347   -0.8498036989
 C    0.6767328223    3.4426096505   -0.5820708973
 N    1.0019581858    3.2507272642    0.8271168970
 C    1.1794847016    2.0982768561   -0.1333629010
 C    2.4821612014    1.5925313857   -0.4157153315
 C    3.5787338208    1.1536481443   -0.6410983615
 H   -2.0818691536    1.5430073854   -0.6544727604
 H   -1.6122371018    2.2777992966    0.8814996960
 H   -0.9903089199    3.2962249850   -1.9292383675
 H   -1.3386455417    4.2569658698   -0.4850077768
 H    1.3116292328    4.0747203531   -1.1940943186
 H    1.9330850656    3.6171276255    1.0171526690
 H    4.5439269485    0.7597056308   -0.8435215386