18

 O   -0.3636755245    1.4385790595    0.4144628511
 C   -0.0714954704    0.1018202948    0.0836747123
 C    0.4199703521   -0.8308200581    1.2312516178
 C   -0.8300427551   -1.7397814061    1.0366869506
 C   -1.9057775048   -1.6567129717    2.1276577661
 C   -2.5964295689   -0.3177605840    1.8174768761
 O   -2.5629817564   -0.1988454458    0.3968223934
 C   -1.3636174597   -0.7694152467   -0.0681232190
 H    0.4694834651    1.8919933685    0.5787765748
 H    0.5663301067    0.0410753784   -0.8101989127
 H    1.3827549957   -1.3176923375    1.0569446273
 H    0.4532626417   -0.3261661997    2.2019787405
 H   -0.6114082963   -2.7625448968    0.7279514435
 H   -2.6181150474   -2.4806332536    2.0189484549
 H   -1.4924561465   -1.6938899431    3.1398858752
 H   -3.6436795340   -0.2810051276    2.1290229090
 H   -2.0626908350    0.5235120146    2.2800373188
 H   -1.5428356622   -1.1531564350   -1.0750809397