18

 C    0.0454260709    1.5203226013    0.1023849982
 C    0.0370345214    0.0677859988    0.0000501234
 C    0.0412913069   -1.1331835504   -0.0869594587
 C    0.0086310607   -2.5877165822   -0.1887403287
 C   -1.4188588271   -3.1631435720   -0.0920065335
 C   -1.4378584513   -4.6963895344   -0.2072245985
 C   -2.8264064759   -5.2560705822    0.0010826525
 O   -3.4163554705   -5.9552136553   -0.7810916475
 H    0.2765692546    1.8481344593    1.1219935499
 H    0.7939812154    1.9621469256   -0.5646476596
 H   -0.9281563276    1.9440817500   -0.1679509127
 H    0.4614326613   -2.9044427487   -1.1377606670
 H    0.6291943097   -3.0304600873    0.6024018115
 H   -1.8640499255   -2.8535656096    0.8607739396
 H   -2.0370548235   -2.7238494140   -0.8823484798
 H   -1.0665156507   -5.0347517121   -1.1792280783
 H   -0.7899780217   -5.1233705817    0.5730691758
 H   -3.2950329470   -4.9601900252    0.9700076134