23

 C    0.1662670374    1.4947201523   -0.2551205681
 C   -0.0857931380    0.0129618416    0.0585555377
 C    0.6505640629   -0.4773457871    1.2769457813
 C    2.0726286296   -0.9654213161    1.2292116190
 C    0.9976569238   -1.9215700693    1.6736327903
 C    0.6150390004   -1.6454408843    3.1173189996
 O    1.6747625122   -1.8612456956    4.0292976878
 C    0.2511662135   -0.1571976387    2.7323014887
 C    0.9442402795    0.9731047442    3.4837174886
 H    1.2325292753    1.6862897501   -0.4132356212
 H   -0.3711094020    1.8036560776   -1.1573531570
 H   -0.1680782812    2.1374229438    0.5660771787
 H   -1.1638191933   -0.1508551159    0.1938505437
 H    0.2098593048   -0.5964807372   -0.8052379276
 H    2.4568763677   -1.1511053559    0.2305552840
 H    2.8230659631   -0.6262277361    1.9356961355
 H    0.7951478765   -2.8426689044    1.1396728518
 H   -0.2785369826   -2.2058757878    3.4221635344
 H    1.3614590824   -1.6384911213    4.9118275508
 H   -0.8354808614   -0.0258306967    2.7948229741
 H    2.0307359206    0.8567127970    3.4813596494
 H    0.7059380233    1.9458002512    3.0409104946
 H    0.6195703153    1.0029914986    4.5309528139