17

 C    0.0465718637    1.4132791137    0.1747924353
 N   -0.0486577412    0.0198035933   -0.2250413158
 C   -1.2411970784   -0.6534580960   -0.0931856199
 N   -1.2387911457   -1.9660037491    0.0711224982
 O   -2.6173989308   -2.3228443356    0.0912925476
 C   -3.3422267297   -1.2120286318   -0.0408693949
 O   -4.6664576052   -1.3093317754   -0.0414413570
 C   -5.2237750149   -2.6211698654    0.1035606164
 C   -2.5555728256   -0.1056467485   -0.1601372525
 H    1.0604867624    1.7669378663   -0.0257990523
 H   -0.6369872466    2.0224966551   -0.4241997352
 H   -0.1803114316    1.5868958686    1.2374326089
 H    0.7429281250   -0.5529561705    0.0321554592
 H   -6.3043327869   -2.4818949452    0.0797361143
 H   -4.9090043826   -3.2714895230   -0.7174046118
 H   -4.9221022190   -3.0703645817    1.0539548901
 H   -2.8711527228    0.9138613554   -0.2863534007