18

 C   -0.4664223848    1.6506477676   -0.0994215457
 C   -0.2776224959    0.2074399898   -0.0919387626
 C   -0.1094871319   -0.9855232990   -0.0765957348
 C    0.0919776397   -2.4131517472   -0.0830150171
 C   -0.1157762389   -3.2006060714    1.1951571803
 C   -1.1218653810   -3.3215227274    0.0915155252
 N    1.1172983556   -2.8962680469   -0.9744379827
 C    2.4324539960   -3.0403288706   -0.6288238662
 O    2.8917716091   -2.9268539995    0.4840741837
 H    0.3505538573    2.1497012937   -0.6321937732
 H   -1.4042411415    1.9333042460   -0.5906682699
 H   -0.4887549425    2.0537437007    0.9191312944
 H    0.5700921869   -4.0188325218    1.3691432002
 H   -0.3766309059   -2.6270796866    2.0755946516
 H   -2.0831216003   -2.8352465235    0.2044538691
 H   -1.1289878626   -4.2328440611   -0.4958363298
 H    0.9032137868   -2.8928508539   -1.9609382020
 H    3.0452524838   -3.3142243187   -1.5127073205