20

 O    1.8880645991   -2.1314167610   -1.9431252043
 C    1.3543618489   -1.6720461071   -0.7078448883
 C   -0.1108458543   -2.0490368736   -0.7282885517
 C   -0.7308722837   -3.2065151271   -0.0622679045
 C   -0.1403379921   -3.4771226349    1.3215923410
 C   -0.5964296644   -2.0420820163    1.6883797819
 C    0.3391283700   -1.0184733892    2.3183802345
 O    0.6228858884   -1.3425964500    3.6720777469
 N   -1.1356996323   -1.7701155753    0.3022759111
 H    2.8159817276   -1.8814149225   -1.9783198431
 H    1.8849614696   -2.1259776285    0.1390859574
 H    1.4487743379   -0.5781005655   -0.6143235918
 H   -0.5335658152   -1.8227862468   -1.7058212336
 H   -1.4198665535   -3.8676514292   -0.5781224669
 H   -0.6647112429   -4.2526330327    1.8809720240
 H    0.9317678226   -3.6925356289    1.3574170793
 H   -1.4835386761   -2.0968751384    2.3320674378
 H    1.3114719297   -0.9867449103    1.8220012639
 H   -0.1124993937   -0.0184602794    2.2183337620
 H   -0.2016518755   -1.2917036734    4.1666588144