17

 O    0.2439332642    1.3079049213   -0.1135182688
 C    0.0465183884   -0.0688358936    0.1843435477
 C   -1.3930443168   -0.4789335294    0.1169331904
 C   -2.0850195424   -0.9156835249   -1.1414844092
 C   -1.9891532253   -1.9611054858   -0.0715626958
 O   -1.4167389915   -3.1708040460   -0.3449683641
 C   -2.8244665688   -1.6740906397    1.1226424974
 O   -3.2673852603   -2.4318883307    1.9477530073
 C   -2.4621087134   -0.1674609974    1.1719499431
 H   -0.0765513252    1.4611661069   -1.0086810287
 H    0.6412263978   -0.7163863539   -0.4785723345
 H    0.4297818019   -0.2004076660    1.2018867349
 H   -3.0433272533   -0.4892027511   -1.4300776159
 H   -1.4302144489   -1.1457026448   -1.9790053814
 H   -1.3978021353   -3.6695868870    0.4828877881
 H   -2.0711117641    0.1039768713    2.1559169302
 H   -3.2379231571    0.5453793406    0.8791528093