17

 C   -0.0920541256    1.5206911110    0.0167876754
 C    0.0039726888   -0.0101567351    0.0062384942
 C    0.7522322598   -0.4867598239   -1.2383137000
 O    0.5455503126   -1.8754897418   -1.5358638746
 C    1.1330967909   -2.8415585820   -0.8174334115
 O    1.2649306983   -3.9555398946   -1.2508295582
 N    1.5976513634   -2.5144999262    0.4619942763
 C    1.2707326496   -1.5062351252    1.3739947006
 N    0.6028166174   -0.4394258543    1.2614064920
 H    0.9061014343    1.9713009381    0.0066008421
 H   -0.6505542493    1.8910196376   -0.8482685965
 H   -0.5947976829    1.8479265139    0.9290348534
 H   -1.0138269487   -0.4227134149   -0.0460128504
 H    0.3780940651    0.0284935484   -2.1250440578
 H    1.8251012311   -0.2801416753   -1.1454729478
 H    2.0754674306   -3.3088079701    0.8636277379
 H    1.7013732647   -1.7356906657    2.3505760750