14

 C    0.0898487608   -6.3146978093   -0.0514522509
 C    0.0703712258   -5.1050744363   -0.0355941211
 C    0.0491723735   -3.7530003218   -0.0172345370
 C    0.0301168436   -2.5340874959   -0.0014110567
 C    0.0112942373   -1.1850104389    0.0175556211
 C   -0.0000883669    0.0299939779    0.0440017413
 C   -0.0104046585    1.4583773417    0.0423426821
 C    0.5111727290    2.2057655936    1.2321903131
 N    1.2697900056    2.2119713384   -0.0171137053
 H    0.1064046277   -7.3763202582   -0.0665229188
 H   -0.8041982869    1.9181475092   -0.5410674217
 H    0.0461852270    3.1518668435    1.4934956998
 H    0.8729061469    1.6181993379    2.0704797213
 H    2.0429717851    1.5531889582    0.0441144728