20

 C    0.0846380534    1.5423637553   -0.0888013246
 C    0.0202899244    0.0473028528   -0.0741674657
 C   -1.0620864336   -0.7300399017    0.0575511124
 C   -2.4960969830   -0.3457059415    0.2392175616
 C   -0.6747790954   -2.2107114702    0.0629445431
 C    0.8016949712   -2.2034385690   -0.4291536895
 C    1.2948108427   -0.7646308121   -0.1731032011
 C   -0.8294746474   -2.7885799616    1.4049700320
 N   -0.9554817779   -3.2287347287    2.4670616774
 H    0.7246265496    1.9094902098    0.7236620641
 H    0.5314426534    1.9050745500   -1.0231320815
 H   -0.8966420556    2.0091105701    0.0196438402
 H   -2.6371316330    0.7370282805    0.2535162426
 H   -3.1204811879   -0.7556456704   -0.5653112580
 H   -2.8910931084   -0.7499252579    1.1796104015
 H   -1.3149715250   -2.7982959584   -0.6072621661
 H    1.4095077660   -2.9675475549    0.0583263564
 H    0.8025339314   -2.4124375967   -1.5022379520
 H    1.9578100597   -0.4076678678   -0.9699162144
 H    1.8692333853   -0.6871635177    0.7607650014