18

 O   -0.6290238930    0.3267886430    0.2026298796
 C   -0.0567340462    1.3856632431    0.1769050304
 C    1.3638914339    1.5870974429   -0.3136423316
 C    1.4348268666    2.6694819011   -1.3732771586
 N    1.3439395172    4.0658238653   -0.8848385670
 C    2.5794225909    3.5971177822   -1.4885990261
 C    3.9507675514    3.6006245692   -0.8217473287
 O    4.5640696128    4.0159223953   -2.0646505318
 C    3.2922239246    4.1065259416   -2.7387938920
 H   -0.5526229676    2.3213121957    0.5185271080
 H    1.9703745314    1.8989001668    0.5466749887
 H    1.7487678794    0.6336909780   -0.6872788255
 H    0.9159337571    2.4338210000   -2.3019886377
 H    0.8196429230    4.6476273177   -1.5344122743
 H    4.0711959539    4.3470598921   -0.0271812751
 H    4.3343248591    2.6320023608   -0.4779088955
 H    3.2452082103    3.4652182981   -3.6280108196
 H    3.0486294952    5.1396279071   -3.0250116732