20

 C    0.0676368702    1.4970711226    0.0636667911
 C    0.0327930449    0.0417824048    0.0258019755
 C    0.0082199866   -1.1616381656   -0.0098814259
 C   -0.0286815491   -2.6228385043   -0.0604469107
 C   -1.4705193297   -3.1383157127    0.1250825305
 C    0.6371163672   -3.1435061100   -1.3706213968
 C    0.9295315369   -4.6451562223   -1.3365392621
 O   -0.1095676570   -2.7863965253   -2.5247876737
 H    0.8626803340    1.8618861161    0.7237484593
 H    0.2471135311    1.9159750499   -0.9327955275
 H   -0.8794430010    1.9098351734    0.4290685569
 H    0.5794349311   -3.0100393848    0.7699115474
 H   -1.5064789306   -4.2316647888    0.1531363525
 H   -1.8889620954   -2.7634790494    1.0620193705
 H   -2.1127781193   -2.7818033600   -0.6858014818
 H    1.5845055735   -2.6052416992   -1.4806031937
 H    0.0091609967   -5.2351593209   -1.2552078655
 H    1.4368477214   -4.9419031314   -2.2583327734
 H    1.5704057462   -4.9074828860   -0.4885378430
 H   -0.8983740875   -3.3381753159   -2.5493865595