15

 O    0.1045715722    1.3451470182    0.1797288524
 C    0.0134120798   -0.0289296698    0.0613709583
 C   -1.3751262455   -0.6834286289    0.0392270673
 O   -2.0638214524   -0.1095890812   -1.0743108625
 C   -1.1805760636   -1.2015046413   -1.3306624740
 C    0.2310630962   -0.6009609053   -1.4464785042
 O    0.3868097672    0.3707237967   -2.4222179948
 C    1.3553103108   -1.5940900267   -1.4760853738
 O    2.3049553162   -1.4523129527   -2.2112811070
 H   -0.3184831041    1.7182091808   -0.6056288855
 H    0.6887712644   -0.4851999711    0.7912592218
 H   -1.9744688869   -1.0684901150    0.8554570386
 H   -1.5960653820   -2.0703435926   -1.8275788734
 H    1.2779128618    0.2409835880   -2.7871440026
 H    1.2856131058   -2.4450291692   -0.7690916906