16

 C   -0.0122475792    1.5052423267   -0.0868700936
 C    0.0634587095    0.0130707134    0.0285152700
 C   -0.8268133461   -0.8312608687    0.8925812506
 C    0.6748855608   -0.8411552723    1.1346355995
 N    1.4139267652   -1.8856407577    0.4779316689
 C    1.2326121256   -1.7068995212   -0.7770121211
 O    0.4922117507   -0.6272815788   -1.1736360778
 C    1.7437400919   -2.5257302669   -1.8197907926
 C    2.1720790658   -3.2129385137   -2.7074234261
 H    0.9467244158    1.9207030001   -0.4106026490
 H   -0.7794694868    1.8054197903   -0.8081727919
 H   -0.2702098509    1.9420674531    0.8816965790
 H   -1.4265351516   -0.2996690762    1.6233161724
 H   -1.2832467928   -1.7221626366    0.4743374028
 H    1.0807376890   -0.4640337932    2.0657400318
 H    2.5561344730   -3.8245350283   -3.4866494828