21

 C    0.1244145199    1.5903188441   -0.0316720446
 C    0.1265783457    0.0600931812   -0.0257166218
 C    0.8253522106   -0.5946326951   -1.2176230742
 C    2.3346047009   -0.6531278663   -1.2138058128
 C    1.5319384380   -1.8408379007   -0.7387515834
 C    1.2598555501   -1.9863546852    0.7548747972
 O    2.3111357358   -2.5025837048    1.5375049703
 C    0.7939123843   -0.5769033100    1.2200671265
 O    1.9701960663    0.1162688145    1.6534547534
 H    1.1448842980    1.9828521423   -0.0246241229
 H   -0.3749296563    1.9724813102   -0.9275138814
 H   -0.4076315945    1.9966162152    0.8372701162
 H   -0.9170524808   -0.2853865417   -0.0280819355
 H    0.3134898156   -0.5714749467   -2.1742927758
 H    2.8200085211   -0.7566617373   -2.1785233427
 H    2.8869293966   -0.0619606394   -0.4943090072
 H    1.5495930838   -2.7474600934   -1.3330835318
 H    0.4190436453   -2.6809557829    0.8764995283
 H    2.8578243871   -1.7423965659    1.7746473200
 H    0.0926714621   -0.6515298224    2.0598949754
 H    1.7076310006    0.8531773341    2.2106245069