21

 C   -0.0479848089    1.5216341270   -0.1041934397
 C    0.0135044210    0.0197562604    0.0562861108
 C    1.3174735555   -0.7376088850   -0.1521741187
 C    0.7183488228   -0.6424382353    1.2141755876
 C    1.3190547917    0.1207540695    2.3944567180
 C    1.0425752630   -0.7994280698    3.5958199748
 O    0.7586729920   -0.0238350360    4.7453969974
 C   -0.1401504082   -1.6373146738    3.0777055549
 O    0.1481388899   -1.8472076765    1.7081758995
 H    0.8708147233    2.0016327739    0.2485636666
 H   -0.1770100075    1.7989305282   -1.1564121025
 H   -0.8836814620    1.9535254123    0.4582388340
 H   -0.8728128984   -0.5167552363   -0.2722331546
 H    1.2726202739   -1.7038597178   -0.6427517686
 H    2.2159305139   -0.1625701661   -0.3575297426
 H    2.3832439949    0.3318245730    2.2686202810
 H    0.8044463403    1.0705327933    2.5701605301
 H    1.9038037638   -1.4597498831    3.7710130829
 H    0.7025264047   -0.6157960795    5.5018280725
 H   -0.2439922125   -2.6160573726    3.5554342884
 H   -1.0716222132   -1.0660141256    3.2254142684