21

 C   -0.1979340551    1.5698477953    0.0208931178
 C    0.0219171157    0.0517186450   -0.0234468125
 C    0.8415605476   -0.4406642230   -1.1999773520
 C    1.8328391286   -1.2521681836   -0.8248465520
 C    1.8922938863   -1.4196977909    0.6618149454
 C    2.2447216083   -2.7518396631    1.2769992694
 C    2.2178742943   -0.1196059460    1.3999624655
 C    0.7816320718   -0.5267867368    1.1777727966
 O    0.0275978576   -0.9417568734    2.2793962438
 H    0.7534739672    2.1099453088    0.0538885061
 H   -0.7491516663    1.9153440145   -0.8597783151
 H   -0.7803115381    1.8521179712    0.9051782564
 H   -0.9674464110   -0.4303869201   -0.0386424625
 H    0.6225471178   -0.1449207495   -2.2204136210
 H    2.5379297394   -1.7373293726   -1.4918511446
 H    3.3033046968   -2.9933600045    1.1280395336
 H    2.0434362615   -2.7417787827    2.3513168147
 H    1.6508358892   -3.5593385241    0.8352450074
 H    2.5750694125   -0.2269151112    2.4203342350
 H    2.6501262900    0.7047762682    0.8424697845
 H   -0.0907653840   -0.1852975814    2.8634861436