17

 O    0.0384134198    1.4986514316   -0.0623455643
 C    0.0854141942    0.0806789031   -0.0789207621
 C   -1.3110817653   -0.5244442398    0.0021010786
 C   -1.5180943215   -2.0861916401    0.0904382387
 C   -0.7566113108   -2.4200327763    1.3845644316
 O   -1.1311415622   -1.2901529615    2.2229658238
 C   -2.0395593877   -0.5570267898    1.3849223565
 C   -2.8710620108   -1.6836332247    0.7301982182
 O   -4.0143187964   -2.0016232767    0.6232682238
 H   -0.1954809404    1.7751545664    0.8293571349
 H    0.5473233291   -0.1929413261   -1.0334548006
 H    0.7228620707   -0.3049318889    0.7254553349
 H   -1.9493138873   -0.0878785308   -0.7715636508
 H   -1.4343422923   -2.7589727948   -0.7592581586
 H   -1.0948339735   -3.3563138279    1.8427383472
 H    0.3317337238   -2.4527555078    1.2744303257
 H   -2.4417039894    0.3059893640    1.9093311126