18

 O    0.1298033427    1.3874286483    0.0089419711
 C    0.0936011226   -0.0234355888   -0.0887529946
 C   -1.3369349697   -0.5510833336   -0.0052961266
 C   -1.5185642634   -2.0533378669   -0.1696280835
 O   -0.9245006503   -2.8489225451    0.8653536336
 C   -2.3227085643   -2.5376485156    0.9622412310
 C   -2.6300248952   -1.3574921441    1.8557152034
 C   -1.4633093428   -0.7327870118    2.5295488760
 N   -1.9898880845   -0.1570055811    1.2761721411
 H   -0.4379137559    1.6281447586    0.7502230994
 H    0.5282371251   -0.2831992444   -1.0601848591
 H    0.7108457085   -0.5025430079    0.6859399811
 H   -1.9180581304   -0.0611223686   -0.7982482580
 H   -1.5299356279   -2.5033884226   -1.1605159590
 H   -3.0009542396   -3.3836478262    0.9067194625
 H   -3.6422810773   -1.2568616517    2.2363474309
 H   -1.6174685108   -0.0983234499    3.3979459567
 H   -0.5375461168   -1.2962829986    2.5158194938