17

 O    0.0623770385    1.3953869455    0.0753011572
 C    0.0194188875   -0.0084352980    0.0363275726
 C   -1.3664925860   -0.6238079412   -0.3195954934
 C   -1.5099742684   -0.0858843935   -1.7617431733
 O   -0.1481240132   -0.0535700886   -2.2660260598
 C    0.6814824755   -0.6098053767   -1.2161956712
 C    0.3276904842   -2.0930054384   -1.1237219785
 O    0.1230841742   -2.5809499379    0.2112267721
 C   -1.0125284370   -2.0992743273   -0.5161772275
 H    0.0564528920    1.7054782667   -0.8388301673
 H    0.4165877477   -0.3848334870    0.9753977727
 H   -2.1929620484   -0.3855379486    0.3486708653
 H   -2.1225807351   -0.7306939327   -2.4013736306
 H   -1.9238551048    0.9276836007   -1.7869531331
 H    1.7158973537   -0.3371373184   -1.4221417330
 H    0.6722004626   -2.8133246595   -1.8580977443
 H   -1.7731325931   -2.8383803252   -0.7506583580