16

 C   -0.3932308874    1.0659629844    1.0129713668
 C   -0.2076474324   -0.1588983747    0.1959002151
 C   -0.9964385571   -0.9169028540   -0.6143935347
 N   -0.2424092993   -1.9622279847   -1.1491229060
 C    0.9315583626   -1.7949472737   -0.6415956677
 O    1.0435011156   -0.7298727737    0.1819449094
 C   -2.4220510734   -0.7778994475   -0.9777409671
 C   -3.5116053072   -0.8580386435    0.0127328793
 O   -3.1074199891    0.3975225614   -0.5361550151
 H   -0.2071331410    0.8706782418    2.0753138408
 H    0.2971603481    1.8570834746    0.6998068252
 H   -1.4157436803    1.4228890183    0.8884776964
 H    1.8194417518   -2.3882671508   -0.7942499861
 H   -2.6493212709   -1.0826920730   -1.9988477818
 H   -4.4964554718   -1.2055170447   -0.2954022482
 H   -3.2611708084   -1.0123525302    1.0606280337