15

 O    0.1025475290    1.4037963774   -0.0218611753
 C    0.0355315504   -0.0085669871   -0.0137912508
 C   -1.3784444523   -0.5163184729   -0.1077648973
 C   -1.8839734410   -1.3310099907   -1.0472536275
 C   -3.2738920246   -1.7302622636   -0.9783401717
 N   -3.8170940792   -2.5213048476   -1.8322416795
 C   -3.9643982686   -1.1142039104    0.1664958660
 N   -3.4653674091   -0.3307921754    1.0513130129
 O   -2.1117027798   -0.0248218572    0.9301051788
 H   -0.4109604600    1.7220605403    0.7287340303
 H    0.5971140584   -0.3624063866   -0.8814894953
 H    0.5045362064   -0.4310814832    0.8892392995
 H   -1.2637907250   -1.6896958527   -1.8587012210
 H   -4.8039960314   -2.6704484442   -1.6090511196
 H   -5.0232339733   -1.3181071861    0.3180641104