24

 C    0.2432113699    0.6314608071   -1.7797635468
 C    0.0531972967   -0.1257180416   -0.4565287145
 C    0.5173455852    0.7101242977    0.7453096172
 C   -1.3839191143   -0.6255990491   -0.2922074589
 C   -2.4729647699    0.4341654378   -0.3169541918
 N   -1.6680851977   -1.8883758581   -1.0085118495
 C   -1.6890883952   -1.8722981311    0.4728957289
 C   -0.6920461637   -2.8029333389    1.1283153720
 O   -1.0082454290   -4.1544607123    0.8351015594
 H    1.3029486918    0.8500307970   -1.9458662127
 H   -0.1152627188    0.0336232234   -2.6232688640
 H   -0.2903760169    1.5879313739   -1.7845975228
 H    0.6845420863   -1.0175255956   -0.5143650531
 H    0.3962984359    0.1635638688    1.6863813284
 H    1.5749525321    0.9739299224    0.6444497645
 H   -0.0444097760    1.6470469241    0.8284436654
 H   -2.5012568015    0.9511747560   -1.2816782146
 H   -3.4565218654   -0.0160494570   -0.1490730801
 H   -2.3200918320    1.1901621729    0.4598313086
 H   -2.6176067743   -1.8830216299   -1.3731115108
 H   -2.6737596843   -1.9083175923    0.9379012938
 H    0.3339165364   -2.5631629399    0.8188078957
 H   -0.7414795781   -2.7029209303    2.2179023751
 H   -1.0629960374   -4.2017577851   -0.1273387393