17

 C   -0.0275098696   -1.2136676236    0.0242015392
 C   -0.0061492057   -0.0117411962   -0.0171249917
 C    0.0138800396    1.4291875246   -0.0630683908
 C   -0.8935091634    2.2105952232    0.9917474280
 C   -1.3267742548    3.1424320031   -0.1286447607
 C   -0.1438036408    3.5433326191   -1.0516763685
 C    1.2457245828    3.3465556826   -0.5523126736
 C    1.3698730708    2.1194569787   -0.0407194277
 C   -0.7993626984    2.1973271330   -1.1777271689
 H   -0.0431025925   -2.2746803795    0.0580484414
 H   -1.7258784095    1.5760312449    1.3021699429
 H   -0.3786960605    2.6161100867    1.8682380776
 H   -2.2344478096    3.7331871557   -0.1405571186
 H   -0.3765179664    4.3134647463   -1.7779011689
 H    2.0072460466    4.1160398409   -0.5673766564
 H    2.2274752156    1.6979330743    0.4670808103
 H   -1.2513054043    1.7722270460   -2.0650201236