16

 C    0.0071286611    1.5096751209    0.1989253053
 N    1.2647930664    1.9561670432   -0.4486565239
 C    2.1832749608    0.7929602396   -0.5101222204
 C    1.2895359423   -0.4126651172   -0.3461981275
 N    1.6058348726   -1.6875335185   -0.5242058707
 C    0.5999977232   -2.5463897966   -0.2925614567
 C   -0.6633667034   -2.1302997933    0.1190813768
 N   -0.9722422042   -0.8384419668    0.3158066278
 C    0.0191382207    0.0057411637    0.0677324158
 H   -0.0034663231    1.7997882055    1.2594585907
 H   -0.8665289225    1.9744085554   -0.2662857766
 H    1.0476438037    2.2358352955   -1.3978044632
 H    2.7506114735    0.7831040271   -1.4448457248
 H    2.9164310371    0.8381174071    0.3080781793
 H    0.8126485565   -3.6018776416   -0.4380723522
 H   -1.4513242545   -2.8562366041    0.2996003504