17

 C   -0.0781697139    1.5401032831   -0.1678154016
 C   -0.0352494670    0.0362146745    0.0381431320
 O    0.6379753535   -0.5791023823   -1.0692873307
 C    1.3746764219   -1.6510953265   -0.6369496623
 N    2.0432237576   -2.4377905133   -1.3622554580
 N    1.2550157265   -1.7433223382    0.7470438170
 C    0.7418072875   -0.5020371065    1.2747926093
 C    1.8283242222    0.4206704388    1.8202945189
 O    2.9944693107    0.1277734702    1.8505570476
 H    0.9285683957    1.9585320993   -0.2544962612
 H   -0.6203953847    1.7669957139   -1.0890063288
 H   -0.5973090702    2.0310247581    0.6612982332
 H   -1.0563288450   -0.3641749666    0.0769348212
 H    1.9526091063   -2.1824000296   -2.3427105475
 H    2.0667853097   -2.1371617984    1.2025177814
 H    0.0353027695   -0.6608410841    2.1032684167
 H    1.4580088097    1.3801465476    2.2444798730