16

 C   -0.0301613438    1.4180699870   -0.0446278268
 N   -0.0189102704   -0.0239285715   -0.0156119840
 C   -1.1076758564   -0.9975784410   -0.0829172782
 C   -1.8839819573   -0.9416334038   -1.3220143321
 N   -2.4799816146   -0.8720851046   -2.3097214687
 C   -0.0022687647   -2.1314798499   -0.0273027923
 N   -0.0321489646   -3.1332895376   -1.0548676015
 C    1.0084334668   -0.9419828046   -0.0557934562
 O    2.2016390701   -0.8118894042   -0.1014382049
 H    1.0102378064    1.7505378214   -0.0624961159
 H   -0.5398518424    1.7928695833   -0.9393274040
 H   -0.5218812201    1.8333209014    0.8424868906
 H   -1.7899341046   -0.9747924654    0.7741552667
 H   -0.0078814243   -2.6193188049    0.9510712974
 H    0.1626816489   -2.7393276421   -1.9700080455
 H    0.6647679710   -3.8469332237   -0.8747830946