16

 N   -0.3588055133    0.1471472157    0.7857827638
 C   -0.5752239733   -0.7509173793   -0.2124513968
 N    0.5686444564   -1.4571450934   -0.6455072239
 C    1.8250950832   -1.4589029666   -0.1163635828
 O    2.2021730215   -0.8113768497    0.8419041836
 N   -1.6587146524   -1.0193974224   -0.8356799324
 C   -2.8549270186   -0.3105752482   -0.4552631677
 C   -4.0211297521   -0.7310762411   -1.3412434144
 O   -5.1544125502   -0.3642683456   -1.1783676752
 H    0.5407282389    0.1253590013    1.2507065000
 H   -1.1557355945    0.5251017713    1.2664439261
 H    0.3712483117   -2.0613210855   -1.4301469487
 H    2.4959361657   -2.1378417546   -0.6719693369
 H   -3.1618845550   -0.4933214101    0.5896639127
 H   -2.7558933693    0.7854799146   -0.5530682050
 H   -3.7249848086   -1.4147916364   -2.1673704124