12

 N   -0.0274929339    1.3793507729   -0.1361413627
 C    0.0509659637   -0.0115129749   -0.0501872814
 N   -1.0480429949   -0.7463400672    0.0556383093
 N   -0.5836103178   -2.0366032243    0.0242341991
 C    0.7568042492   -2.0951399073   -0.0787060086
 O    1.3538388127   -3.3063912801   -0.1111085987
 C    1.2308149437   -0.8003932645   -0.1338563091
 H    0.6898261470    1.8519207176    0.3977442114
 H   -0.9444296926    1.7085381049    0.1399837716
 H   -1.2248971912   -2.8067615102    0.0869241902
 H    2.3021461392   -3.1787091162   -0.2095903942
 H    2.2525383648   -0.4748222007   -0.2408479569