19

 C   -1.7912819955    0.5799026159    1.2962331041
 C   -0.9226261222   -0.6393817550    1.1312253230
 O    0.1810654829   -0.5763511921    0.2114056077
 C    0.4712167026   -0.7816136320    1.5886558849
 C    1.3025151494    0.2414392353    2.3245308355
 C    1.5074208866   -0.0272385272    3.8144704750
 C    2.6430819509   -0.2556551449    2.8682043488
 C    1.2717696047    1.6123353567    1.8900757612
 C    1.3060834094    2.7683618230    1.5586500441
 H   -1.2015253398    1.4893023318    1.4051944944
 H   -2.4469061337    0.6909590433    0.4257792924
 H   -2.4296203135    0.4628867313    2.1791581533
 H   -1.4831181938   -1.5745320307    1.0485232043
 H    0.7946160134   -1.7991740778    1.8273464247
 H    1.5418407529    0.8347384537    4.4691090527
 H    0.9966425292   -0.8910192353    4.2271559286
 H    2.9204457955   -1.2758963010    2.6254211637
 H    3.4626228482    0.4521385186    2.8662642598
 H    1.3223451330    3.7831391264    1.2469257116