19

 C   -0.0740414056    1.4493024802    0.1307470699
 N    0.0636067325    0.0150675573   -0.0083569333
 C    0.6095472706   -0.5664239294   -1.1045862774
 O    1.0639853150    0.0453149896   -2.0585502044
 C    0.5773473714   -2.1007180396   -1.0877443464
 N    0.3810769386   -2.6220155231    0.2617871766
 C   -0.4153750455   -2.7098379232   -2.1153887732
 O    0.6308724112   -3.4306429049   -2.7836818305
 C    1.6454583311   -2.7741720725   -1.9928403101
 H    0.4152012244    1.8073488201    1.0432571670
 H    0.4015839500    1.9110886105   -0.7356768659
 H   -1.1276982458    1.7501031112    0.1606039048
 H   -0.3096320120   -0.6149675025    0.6869287381
 H    0.1691614268   -3.6147221775    0.2249403252
 H    1.2387584206   -2.5299463029    0.8010882345
 H   -1.1774533484   -3.3703214367   -1.6812196184
 H   -0.8966483729   -1.9753945622   -2.7710192637
 H    2.2321855625   -2.0651397624   -2.5834879809
 H    2.3007622158   -3.4915012319   -1.4832149020