18

 C    0.1255524498    1.5703732189    0.0980236775
 C   -0.1372616370    0.0692872426   -0.0608194783
 C    0.6059935716   -0.5482579871   -1.2384306630
 N    2.0751499740   -0.6300617372   -1.1065456468
 C    2.1870715830   -1.9932141930   -1.2832538161
 O    3.1187691103   -2.7462209742   -1.3504042826
 C    0.6540194001   -2.0907710256   -1.3490548765
 C   -0.2480014897   -3.1341142046   -0.8643065774
 O   -0.0719622792   -2.8712454550   -2.2642021403
 H    1.1855022199    1.7695609358    0.2897445311
 H   -0.1617458960    2.1218481717   -0.8038690954
 H   -0.4423812561    1.9827051051    0.9368469270
 H    0.1473086057   -0.4614910281    0.8553610963
 H   -1.2108873159   -0.1022361411   -0.2099469634
 H    0.2942798653   -0.0861624031   -2.1839233182
 H    2.7821700098    0.0877380768   -1.0737224508
 H    0.1700512532   -4.0748288547   -0.5116296609
 H   -1.2191635588   -2.8582135270   -0.4570080621