19

 C    0.0696578665    1.4176076246    0.0339320093
 C    1.3198253871    0.6417584128   -0.0361677330
 C    1.7134946359    0.1144215437    1.3396470225
 C    0.3075467706   -0.5282365309    1.3880869520
 C    0.1018327875   -2.0674912829    1.5722049023
 C   -0.9196598952   -1.7596372517    2.6686736429
 N   -0.1901084539   -0.9760591849    3.6967439450
 C   -0.7306927321   -0.2956954499    2.4899074636
 N   -0.0333860492   -0.0577501242   -0.0025721916
 H   -0.1860342118    1.9487019066    0.9487849938
 H   -0.2947796229    1.8833324729   -0.8764415284
 H    1.9392152381    0.6191831795   -0.9267681559
 H    2.5068878317   -0.6347563456    1.3111059394
 H    1.9587918301    0.8591606041    2.1021097586
 H   -0.3437232824   -2.4892060495    0.6691000330
 H    0.9716775077   -2.6519573468    1.8826948679
 H   -1.8119546582   -2.3158067070    2.9267854770
 H   -0.8465780538   -0.7906591602    4.4555567646
 H   -1.4370278757    0.5212557694    2.5755536669