15

 N    0.1452240497    1.3919759943    0.0065407310
 C   -0.0093884483   -0.0223703225    0.0453131878
 C   -0.4965511554   -0.7149217811    1.2756889269
 O   -1.2373590439    0.0870085783    2.1787910998
 C   -2.3544589719    0.4712143820    1.4940715972
 N   -2.5371975776    0.0276023529    0.3185138923
 C   -1.3771286611   -0.7767762957    0.0071746566
 C   -1.5312328915   -1.9226461374   -0.8301962627
 C   -1.6224434898   -2.8895364267   -1.5396085558
 H   -0.3392279898    1.8104334742   -0.7795361239
 H   -0.1882477888    1.8298903788    0.8566731120
 H    0.7520691130   -0.5853593103   -0.4886577914
 H    0.0165637386   -1.5377395728    1.7559505437
 H   -3.0125512364    1.1364595052    2.0387600131
 H   -1.7182827968   -3.7417905692   -2.1657266766