25

 C   -0.1066695427    1.5823574887    0.0867214064
 C   -0.0958079614    0.0569642117   -0.0625608007
 C    0.7080968254   -0.4707234785   -1.2687924625
 C    0.2228072687    0.1210146048   -2.5939501032
 O    2.0855449389   -0.0868475441   -1.1670069909
 C    0.6364770908   -2.0243289102   -1.3573608939
 C    1.3049392802   -2.7621507698   -0.1926295919
 O   -0.7393653720   -2.3695714138   -1.4755041527
 C   -0.9934390234   -3.6320402007   -2.0447862758
 H    0.9090404536    1.9872553405    0.0470684740
 H   -0.6894648220    2.0664783507   -0.7021630595
 H   -0.5506721264    1.8708281781    1.0444117976
 H    0.3310744038   -0.3818695536    0.8498545787
 H   -1.1163318374   -0.3310573480   -0.1322351234
 H    0.2946227418    1.2101627259   -2.5820471426
 H    0.8496326076   -0.2448949977   -3.4128265607
 H   -0.8109090413   -0.1721366421   -2.7861878421
 H    2.3741818164   -0.2510092546   -0.2634921920
 H    1.1618606285   -2.3041677698   -2.2851868080
 H    0.7954689909   -2.5648074471    0.7547242809
 H    1.2888763780   -3.8426181820   -0.3605707506
 H    2.3551912997   -2.4702821498   -0.1045107845
 H   -0.5149371718   -3.7358593299   -3.0311013337
 H   -0.6524422439   -4.4615730355   -1.4083896599
 H   -2.0762136520   -3.7171587930   -2.1686533993