23

 O   -0.0774679571    1.4666095004   -0.0325817886
 C    0.0339815798    0.0521635845    0.0510840710
 C   -1.3696454395   -0.5321375829   -0.0380401054
 C   -1.3945828246   -2.0598573690    0.0723990256
 O   -0.8120451426   -2.5109656936    1.2982120305
 C   -2.7933320190   -2.6337182564   -0.1102588353
 C   -3.4617158548   -2.5748517221   -1.5147344169
 C   -4.0047767685   -4.0098251593   -1.2747144009
 C   -2.9569463547   -4.1786580378   -0.1411772838
 H    0.8017084737    1.8415089839    0.0719848601
 H    0.6527190991   -0.3478540382   -0.7695280676
 H    0.5013027650   -0.2629752756    0.9943862055
 H   -1.9846069996   -0.0960002696    0.7616149740
 H   -1.8258975334   -0.2225346245   -0.9857700479
 H   -0.7422422619   -2.4862219677   -0.7027335351
 H   -1.3714230117   -2.1950291778    2.0170837629
 H   -3.4624516073   -2.1943125032    0.6427684752
 H   -4.1841605495   -1.7776380063   -1.7045105859
 H   -2.7086406703   -2.5552115321   -2.3100344228
 H   -5.0269016122   -3.9954896708   -0.8854052397
 H   -3.9657076761   -4.7113942904   -2.1112398005
 H   -2.0417203154   -4.6626186367   -0.4962216314
 H   -3.2728770194   -4.6764250847    0.7780715967