19

 C    0.2190299266    1.4619615799   -0.1039101638
 C    0.0172509543   -0.0272685287    0.1111457899
 N    1.2464228745   -0.8677958657    0.1242698398
 C    0.4749645771   -0.7287338773    1.3621180321
 C    1.1582172257   -0.0194276421    2.4954090990
 C    2.4034336221   -0.5965303557    3.0640738028
 N    2.4482353425    0.6463331062    2.2772674975
 C   -1.1380594293   -0.5874292130   -0.5476916647
 C   -2.0942800729   -1.0473817840   -1.1148708502
 H    1.0701371763    1.8302930096    0.4696048723
 H    0.3901789562    1.6697160898   -1.1642387385
 H   -0.6745329319    2.0102907949    0.2089507299
 H    1.0622948007   -1.7616723225   -0.3223982640
 H   -0.1447748529   -1.5707653728    1.6658397783
 H    0.4859559972    0.5163355994    3.1628609874
 H    2.6214396380   -0.4858849669    4.1224183698
 H    2.7891924978   -1.5048242326    2.6076645026
 H    2.7528062482    0.4077435410    1.3332736427
 H   -2.9416080801   -1.4528389294   -1.6103875029