17

 N    0.6484632136   -0.2014208640    0.1775572565
 C   -0.5489852123    0.1722946531   -0.3812230619
 O   -0.6506476654    0.9158813104   -1.3332068070
 N   -1.6512001087   -0.3967527478    0.3045064542
 C   -2.8856343514   -0.6082560143   -0.4250344700
 C   -2.0816747872   -1.7790486958    0.0384868535
 C   -1.3413495505   -2.6110634458   -0.9579558653
 C   -0.5661997684   -3.7886381200   -0.5482181698
 O   -1.8535931090   -3.9303482889   -1.1520599925
 H    1.4483690401    0.3368431131   -0.1143504595
 H    0.6451911525   -0.5305361689    1.1290682978
 H   -3.7934833203   -0.3314408179    0.1023677015
 H   -2.8667749675   -0.3700882537   -1.4852020617
 H   -2.4061700130   -2.3297583695    0.9195205780
 H   -1.0503899805   -2.0935941760   -1.8726502891
 H    0.2763289879   -4.1157281377   -1.1549994082
 H   -0.5145849299   -4.0583608963    0.5061639336