18

 C    0.0008489100    1.4965533760    0.0448746867
 C   -0.0417667493    0.0048941755   -0.0216428407
 C   -0.0820971452   -0.7826778874   -1.1007944864
 C   -0.0165453801   -2.2339611939   -0.7460853037
 C    1.2803730454   -2.6563256966   -0.0837760106
 C    0.0851700036   -2.2675341808    0.7608507516
 C   -0.0062555808   -0.8270595741    1.2627961653
 O    1.0199760830   -0.4342480373    2.1690610004
 H    0.8639864847    1.8298243405    0.6319688744
 H    0.0550500990    1.9490341094   -0.9488520648
 H   -0.8872407885    1.8936653361    0.5543590079
 H   -0.1082432651   -0.4327426305   -2.1277986700
 H   -0.5902376554   -2.9651793089   -1.3041332986
 H    1.5426183253   -3.7093442678   -0.0907074862
 H    2.1269727067   -1.9815742396   -0.1735995123
 H   -0.3888440120   -3.0497503248    1.3406883656
 H   -0.9320976857   -0.6801297813    1.8351819756
 H    1.8587355245   -0.7147645544    1.7856017557