23

 C   -0.0232085601    1.4686638021   -0.4408267471
 C   -0.0471685181    0.0883690830    0.2285069541
 C   -1.4135307695   -0.5641548062    0.1965544763
 C   -1.8951253104   -1.3412468140   -1.0231705249
 O   -1.0008328298   -1.6219642654   -2.0705474906
 C   -1.5778276861   -2.0754569492    0.2554487066
 O   -0.4151839297   -2.8568451089    0.2320277253
 C   -2.6751091826   -2.6994787030    1.0892202709
 C   -3.1103225973   -4.0744865954    0.5720828223
 H    0.9713905163    1.9216813343   -0.3809386019
 H   -0.2968998572    1.4107423129   -1.5014657131
 H   -0.7323456445    2.1542800611    0.0355615225
 H    0.6856158938   -0.5725156219   -0.2423918992
 H    0.2717414816    0.1860232311    1.2733564488
 H   -2.1951223466    0.0083614630    0.6931519102
 H   -2.9326779498   -1.2386092808   -1.3385230434
 H   -0.6993042495   -0.7935877022   -2.4570498195
 H   -0.1112354197   -2.8614232156   -0.6864547152
 H   -2.3151470376   -2.7878544143    2.1223186045
 H   -3.5305107778   -2.0139655830    1.1162188059
 H   -3.5283810921   -4.0030241417   -0.4379500678
 H   -2.2542602151   -4.7526121140    0.5332182678
 H   -3.8721784383   -4.5164623023    1.2212493176