18

 C    0.4220269881    1.3880108353    0.3760689980
 C    0.1591441747   -0.1100801720    0.1967295688
 N    0.4648954266   -0.8048566934    1.4463025535
 C   -1.3408004348   -0.3795940409   -0.1325443556
 C   -2.2538303622    0.1840121506    0.8571115604
 N   -2.9853932123    0.6558978886    1.6168570099
 C    0.9384385443   -0.7682559273   -0.9795934295
 N    1.4372093330    0.0461181968   -1.9460259733
 O    1.0485226167   -1.9806817472   -1.0257064997
 H    1.4910780275    1.5857782090    0.5085866371
 H    0.0601135663    1.9742901165   -0.4748253113
 H   -0.1026114263    1.7435240959    1.2658304729
 H    0.5748225748   -1.7946299656    1.2332474544
 H    1.3624751081   -0.4900509553    1.8043089242
 H   -1.5927163614    0.0329374987   -1.1165094568
 H   -1.4886874362   -1.4624454649   -0.1907160475
 H    1.4244273949    1.0469825712   -1.8743815317
 H    1.9544073583   -0.3787347063   -2.6994330037