21

 C    0.0270822383    1.4998908738   -0.0818960990
 C   -0.0273977246   -0.0003513480    0.0536152065
 C   -1.3021934374   -0.7290663992   -0.3737926884
 C   -1.1976382167   -2.1407813613    0.2471887750
 C   -0.2901808106   -1.9570401175    1.4668603067
 C   -0.7578016879   -2.2547761843    2.8446889693
 N    0.2681434872   -3.1005072558    2.2006366435
 C    0.5860456045   -0.7713704637    1.1747551718
 N    1.2444027281   -0.7152087710   -0.1428685895
 H    0.9849910077    1.8818930337    0.2787782159
 H   -0.0796729385    1.8008645427   -1.1307563356
 H   -0.7791215175    1.9765515608    0.4869676103
 H   -2.1671853482   -0.1940372751    0.0357093258
 H   -1.4270488949   -0.7532947078   -1.4624499223
 H   -2.1719932552   -2.5613206415    0.5095743405
 H   -0.7345206398   -2.8405875532   -0.4595209269
 H   -0.3988499620   -1.6670443493    3.6859332714
 H   -1.7632943445   -2.6502644662    2.9673576188
 H   -0.1566513712   -3.9645677162    1.8703504754
 H    1.1343424628   -0.3108975165    1.9912933993
 H    1.1263283803   -1.5883760243   -0.6514747583