25

 C    0.1319618752    1.5649654403    0.1418380704
 C    0.0398069104    0.0374517784    0.0982039491
 C   -1.3967544201   -0.4761793621   -0.0560426096
 C   -1.4830964565   -2.0063852409   -0.1012717300
 C   -2.9119821462   -2.5790473007   -0.1410292699
 C   -3.6830467002   -2.1621472399   -1.4025893408
 C   -2.8736399621   -4.1181022688   -0.0119430101
 C   -4.2406760893   -4.7141001313    0.2292841669
 O   -4.7504425168   -5.5846463448   -0.4281196481
 H    1.1675511830    1.9000706194    0.2562766191
 H   -0.2626362342    2.0123414189   -0.7772864514
 H   -0.4443300533    1.9726790320    0.9799030805
 H    0.6505733293   -0.3435147601   -0.7310499663
 H    0.4776166087   -0.3831761574    1.0132635235
 H   -2.0061005178   -0.1016863255    0.7789167616
 H   -1.8319103940   -0.0456195677   -0.9664928215
 H   -0.9254497790   -2.3779635099   -0.9729053291
 H   -0.9691797272   -2.4122869287    0.7807726019
 H   -3.4515022928   -2.1877056570    0.7350841748
 H   -3.1561655613   -2.4926422990   -2.3056327227
 H   -4.6828296944   -2.6075166635   -1.4265794463
 H   -3.8043094984   -1.0774554697   -1.4623821727
 H   -2.4374123564   -4.5847460509   -0.9012150698
 H   -2.2506758677   -4.3881160803    0.8535461997
 H   -4.7773132091   -4.2727582807    1.1042178107