15

 C   -0.1241166429    1.5404392780    0.0291399683
 C    0.0930639438    0.0385622424    0.0493055166
 O    1.1900835246   -0.4706363719    0.1703953087
 N   -1.0524476138   -0.7160529222   -0.0598234857
 C   -1.0755619298   -2.1100265731   -0.0283284917
 C   -0.0561935629   -3.0080794475    0.0991721701
 O   -0.5570383305   -4.2578625852    0.0768184968
 N   -1.9304150098   -4.2081814315   -0.0673392817
 C   -2.2309869306   -2.9347079270   -0.1292803829
 H    0.6425605727    1.9946791116   -0.6012928907
 H   -1.1120661594    1.8364240571   -0.3330681042
 H    0.0078008360    1.9322874686    1.0425744125
 H   -1.9360337339   -0.2440461599   -0.1577486243
 H    1.0069998661   -2.9005380070    0.2066617676
 H   -3.2646109494   -2.6382793622   -0.2440963295