16

 O    0.0318605819    1.4326301883    0.1727633544
 C    0.1166185547    0.0216977850    0.0916007938
 C    0.4431486341   -0.5890782370    1.4555833579
 O    0.3829311097   -2.0206327085    1.4104218932
 C   -0.6243588826   -2.5297273827    0.6711938615
 C   -0.7922257008   -4.0153520634    0.8295508839
 O   -0.1065127792   -4.7073479685    1.5333518485
 N   -1.4183360501   -1.9343593197   -0.1237360607
 C   -1.2456073734   -0.5065148958   -0.3546064304
 H    0.9218287880    1.7929186161    0.2406702327
 H    0.8830290713   -0.2940471575   -0.6319210196
 H    1.4547268938   -0.3413559631    1.7873355173
 H   -0.2714851380   -0.2162469053    2.1999409632
 H   -1.6260237103   -4.3999171751    0.2104318941
 H   -2.0300301300    0.0417428517    0.1837862102
 H   -1.4082595991   -0.3071309946   -1.4185226499