16

 C    0.0347986608    1.4208115769    0.0784863163
 C    0.0026593272   -0.0594387323   -0.0502303312
 N   -0.1339851763   -0.7654782812   -1.1310126928
 C   -0.1002329434   -2.0840782583   -0.6966444841
 N   -0.2794693756   -3.1244966518   -1.6113913022
 C    0.0553011876   -2.1166823808    0.6541952007
 C    0.1450969767   -3.1829632157    1.6804696671
 O    0.1290982054   -0.7961778937    1.0726178574
 H    0.9750740244    1.7587138761    0.5268105649
 H   -0.0674688160    1.8655080741   -0.9116597011
 H   -0.7801080368    1.7798013256    0.7161535590
 H   -0.1182872219   -2.7963852448   -2.5548918704
 H    0.2961588027   -3.9342232999   -1.4229904604
 H    1.1286384863   -3.2207082604    2.1659947236
 H   -0.6040783431   -3.0498042500    2.4700284239
 H   -0.0376887180   -4.1557408037    1.2154336694