13

 N   -0.1440320122   -1.2416531647   -0.0448355107
 C   -0.0830398273   -0.0875062981   -0.0342473789
 C   -0.0080353239    1.3607429036   -0.0046678698
 C    0.1396186398    2.1222710810    1.3526114002
 C    1.5812675748    1.5880156429    1.5182643888
 C    1.3835517697    2.0876970459    0.0616131291
 O    0.6776588077    3.2710263821    0.5877870652
 C    2.3464958352    2.2557388938   -0.9971724915
 N    3.1224185918    2.3618758548   -1.8462915499
 H   -0.7011685748    1.8339845430   -0.7001262945
 H   -0.6290079340    2.3207084768    2.0947921915
 H    2.2356781458    2.2182733446    2.1180574559
 H    1.7295506173    0.5194072942    1.6762012744