17

 N   -0.1488502071    1.2857381778    0.2536758435
 C   -0.0809283085    0.0236518005    0.2530818405
 O    1.0761040007   -0.6982968784    0.3460970619
 C    0.8045828029   -2.1018980400    0.1750794065
 C   -0.6824774563   -2.2808431917    0.5143585996
 C   -1.2378868233   -0.9140323636    0.1515637103
 C   -2.6260825246   -0.4326925196    0.4693700727
 C   -2.2467738983   -0.6853428110   -0.9609168447
 H    0.7820343250    1.7006709429    0.3017954634
 H    1.0198263355   -2.3770254580   -0.8648200013
 H    1.4805326339   -2.6535861771    0.8317313337
 H   -1.1386453900   -3.1046587784   -0.0392340789
 H   -0.8075401094   -2.4793565498    1.5846752830
 H   -3.2966223847   -1.1333936261    0.9558635305
 H   -2.7087858780    0.5982334652    0.7941896843
 H   -2.0807177863    0.1746446977   -1.5993375668
 H   -2.6480561215   -1.5633831903   -1.4566265380