16

 O    0.2714297257    1.3595008184    0.0505408439
 C    0.0626984443   -0.0117666066   -0.0046366587
 C   -1.3027502394   -0.6622667791    0.0476794836
 C   -2.5622046635    0.1665026862   -0.0391644982
 O   -2.4106652020    1.3175764436   -0.8910082405
 C   -1.8728236720    1.1669881701   -2.1496676458
 O   -2.1070942288    1.9779375140   -3.0055877538
 N   -1.0612901946    0.0754753130   -2.3097062491
 C   -0.5117063178   -0.7052830874   -1.2358909161
 H   -0.5695346402    1.8159275931   -0.0716208546
 H    0.8636767164   -0.5389427537    0.5057689427
 H   -1.4146478040   -1.5753665930    0.6251158805
 H   -3.3898646413   -0.4481399273   -0.4152728592
 H   -2.8558255580    0.5751262169    0.9315558745
 H   -0.5401251620    0.1113522062   -3.1727410778
 H   -0.0775852728   -1.6382765045   -1.5779184213