23

 C   -0.2464950821    1.5318603412   -0.1809631799
 C    0.0171429781    0.0349102613   -0.0795294957
 C    1.3506332330   -0.4796204470   -0.6657448567
 O    1.7993955035   -0.9473362566    0.6205976038
 C    0.5564557802   -0.5574746095    1.2565330042
 C    0.7807324766    0.3395453543    2.4628847877
 C    1.5284117270   -0.3892723681    3.5847971217
 C    1.8082010674    0.5047542571    4.7848972920
 O    2.4806120447   -0.2723514873    5.7644887011
 H    0.6179957075    2.1206106824    0.1406618843
 H   -0.4661604044    1.8093022313   -1.2176878657
 H   -1.1050790543    1.8320991916    0.4288716736
 H   -0.8522340913   -0.5151590960   -0.4495417454
 H    1.2683160567   -1.2962436441   -1.3944465486
 H    2.0153515025    0.2926177536   -1.0758320848
 H   -0.0002187797   -1.4524091268    1.5738477976
 H    1.3478277118    1.2265918900    2.1568782578
 H   -0.1955683384    0.6914960663    2.8246909608
 H    0.9479533940   -1.2559214790    3.9247053598
 H    2.4776738881   -0.7756492027    3.1993783189
 H    2.4197068092    1.3670119198    4.4710192557
 H    0.8597676667    0.9076240948    5.1790850286
 H    2.6761349932    0.2947419130    6.5158691192