21

 C    0.1558530141    1.5016358727    0.1044897002
 C   -0.0986714786    0.0068806343   -0.1341513393
 C    0.6930362649   -0.5285869677   -1.2846187965
 O    0.3961566046   -0.0108743960   -2.5919576035
 C    0.8948761325   -1.2602298184   -3.1802320898
 C    2.3115400635   -1.0001524398   -3.6798494029
 C    3.0540589142   -0.5535629909   -2.3871421945
 C    2.1361888116   -1.0115729214   -1.2510877227
 C    1.0228825269   -1.9015275614   -1.7837340303
 H    1.2037845997    1.6857074485    0.3622571845
 H   -0.0744524591    2.0783567978   -0.7957854459
 H   -0.4665536591    1.8799653074    0.9207366154
 H    0.1555655666   -0.5715144055    0.7621118869
 H   -1.1645982591   -0.1621695844   -0.3308741650
 H    0.1843544839   -1.6748343029   -3.8976174435
 H    2.7395632172   -1.9225381636   -4.0901195221
 H    2.3283742542   -0.2386089595   -4.4644738681
 H    4.0413110883   -1.0172949342   -2.3049473475
 H    3.1997032369    0.5304303695   -2.3703722618
 H    2.5476475416   -1.2308076334   -0.2714406176
 H    0.7492455252   -2.8949548612   -1.4554730458