19

 O    1.3885545909    1.5967301477    0.1642647621
 C    0.6297137250    0.6792227589   -0.5723971884
 C    1.5741503815   -0.2168660533   -1.4087757612
 O    0.8843418434   -1.1107469128   -2.2614177860
 C    0.5652468609   -0.5936193893   -3.5209406705
 C   -0.4222385758   -1.3707532220   -4.3253034648
 C   -0.7983154963   -0.0031521382   -3.7868400723
 C   -0.2256411755   -0.1641108240    0.3484185737
 O   -0.2246842087    0.0137680261    1.5443587655
 H    1.1353048201    1.4555873203    1.0910818426
 H   -0.0525277580    1.1982915205   -1.2667971182
 H    2.2498547135    0.4404994799   -1.9714136392
 H    2.1842539613   -0.8232645961   -0.7313309743
 H    1.4172868649   -0.1524823217   -4.0381799718
 H   -0.2467649724   -1.4909178410   -5.3880570709
 H   -0.8686480780   -2.2297388307   -3.8375799740
 H   -1.5022837282    0.0184090260   -2.9627084573
 H   -0.8789155635    0.8309061282   -4.4754889465
 H   -0.8365557950   -0.9531656684   -0.1283081484