18

 C   -0.2824014191    1.5396506157    0.1520587602
 N    0.0048127637    0.1074590082    0.0619225616
 C   -0.0058105320   -0.6587771619    1.2294795591
 N   -0.2614044066   -0.1423443066    2.3619357296
 C    0.3115044158   -0.5245083555   -1.1359302431
 O    0.6354053069   -1.7001797012   -1.1907340165
 C    0.2300871965    0.2985424171   -2.3873064331
 C    1.4418009972    0.2588285951   -3.2697877591
 N    0.2290539417   -0.4532069571   -3.6472336203
 H    0.4747270196    2.1180155785   -0.3814175787
 H   -1.2715114717    1.7760812646   -0.2527952554
 H   -0.2656007628    1.8038067461    1.2082935740
 H    0.2248217820   -1.7027477844    1.0211236962
 H   -0.2242400770   -0.8559110517    3.0868358349
 H   -0.3908259272    1.1858746949   -2.3819605006
 H    1.6819890814    1.1322647170   -3.8690608207
 H    2.2909926024   -0.3148088907   -2.9090916948
 H    0.3398711492   -1.4367817282   -3.3963101833