16

 C    0.0134464059   -1.2173040520   -0.1883988774
 C    0.0291946769   -0.0211192786   -0.0634553604
 C    0.0588561991    1.4148452806    0.0543125468
 C   -0.5470230477    2.2914362124   -1.0760083164
 C    0.7069223529    3.2176733704   -1.0238236727
 C    1.3464021468    2.3164502815    0.0658083310
 C    0.9220586025    2.6507484345    1.5003147630
 O   -0.3123787736    1.9050939725    1.3697080728
 H   -0.0047752466   -2.2745359770   -0.2885409582
 H   -0.6561153189    1.7561332281   -2.0215830769
 H   -1.5039574753    2.7373509345   -0.7986703253
 H    1.2702166885    3.2357481125   -1.9587401660
 H    0.5257525417    4.2500221337   -0.7133222906
 H    2.3523787402    1.9360658089   -0.1012026555
 H    1.5633569006    2.2186021117    2.2789330725
 H    0.7447424970    3.7094317764    1.7264425433