16

 C    0.2537292248    1.4372409434    0.1003703930
 C   -0.1732208955   -0.0069410021    0.0063706213
 O   -0.6461143433   -0.6298205191    0.9368674238
 C    0.0260642957   -0.6781910511   -1.3055644758
 N   -0.7206423591   -1.9553290994   -1.5818170033
 C    0.7176748907   -2.0273195916   -1.5493881174
 C    1.2135533597   -1.5913242035   -2.9363916370
 C    0.5819682465   -0.2040215175   -2.6293687821
 O    0.6906841069    0.8787074544   -3.1279009232
 H    1.3409698538    1.5102629687   -0.0227712438
 H   -0.1852805988    2.0170604614   -0.7173213498
 H   -0.0334585915    1.8462002212    1.0692508559
 H   -1.0757819396   -2.2164185154   -0.6565623672
 H    1.2602227365   -2.5829029975   -0.7949883147
 H    2.2987140133   -1.5058725751   -3.0353636848
 H    0.7975357999   -2.1532997468   -3.7746803249