19

 N    0.4595486032   -1.1482968778    0.2430322816
 C    0.3032661842   -0.0042462892    0.2172809489
 C    0.1071019848    1.4487895090    0.2153778870
 N    1.3330375553    2.1372143189   -0.1651708834
 C    1.2160458520    3.5986913598   -0.2086088998
 C    1.0673553366    4.2806338715    1.1893945621
 C    2.4739223907    4.7286005783    1.5095231542
 C    3.2654159818    4.6813999494    0.4389744606
 C    2.5313427360    4.1892664759   -0.7846320790
 H   -0.6706721585    1.6889922466   -0.5208820573
 H   -0.3042686482    1.7280397533    1.2020112137
 H    2.0890360534    1.8697862562    0.4590433545
 H    0.3602533917    3.8235515023   -0.8532551681
 H    0.3832338794    5.1396658821    1.1465002208
 H    0.6500511187    3.5993930547    1.9407973172
 H    2.7693719974    5.0699124742    2.4953271584
 H    4.3061286570    4.9840947987    0.4131749258
 H    3.0751982713    3.4289697640   -1.3545483302
 H    2.3281155630    5.0163588424   -1.4780583769