23

 C   -0.1230732972    1.5420860631    0.1248788305
 C   -0.0658321171    0.0315044339    0.1390852995
 C    1.1800652487   -0.7011789925   -0.2906623503
 C    0.7617556002   -0.7222110773    1.1588576199
 C    1.5541614762    0.0071430427    2.2560683993
 C    1.5433941867   -0.9534624071    3.4682826936
 C    0.2464290692   -1.7533342753    3.2880635042
 C    0.2169969574   -2.0198486190    1.7746567219
 O   -1.0631325362   -2.3358688898    1.2490837265
 H    0.8488396500    1.9892387283    0.3569650157
 H   -0.4245805005    1.9083863702   -0.8627688759
 H   -0.8470876853    1.9256898461    0.8534927858
 H   -0.9978701434   -0.4575832453   -0.1233854553
 H    1.0649737563   -1.6150388041   -0.8665264940
 H    2.0538620651   -0.1112654950   -0.5547701370
 H    2.5710116334    0.2640851148    1.9444206058
 H    1.0599470744    0.9473175747    2.5267162520
 H    2.4052721371   -1.6301511930    3.4236853750
 H    1.5975474767   -0.4280561528    4.4254444743
 H    0.2073699103   -2.6688205062    3.8873777780
 H   -0.6266506892   -1.1415943465    3.5461061311
 H    0.9190639747   -2.8400634355    1.5461184434
 H   -1.2946390976   -3.2203266746    1.5473873059