15

 O    0.0383684299   -0.0493681115   -0.3996579204
 C   -0.0040616908    1.0645641134    0.0480002383
 N   -1.1748507264    1.8208505240   -0.0256895990
 C   -1.6020897437    2.9563333264    0.6659136708
 N   -0.9496633445    3.9444092155    1.1123410551
 C    0.4465809264    4.0774489473    0.8699822556
 C    1.4715997382    3.7073259984    1.9181035461
 C    1.4138439760    2.9468967029    0.6238260497
 O    1.0354806240    1.5934815800    0.7246230847
 H   -1.9131996604    1.2648608666   -0.4344228280
 H   -2.6853989111    2.9586309261    0.7943695201
 H    0.6639124659    4.9931008054    0.3236577057
 H    2.3020577047    4.3771772921    2.1075548430
 H    1.0979154656    3.1716095641    2.7835550734
 H    2.2015539561    3.0810493592   -0.1122422551