15

 N    0.0773049520    1.4287226583    0.0573729401
 C    0.0243677334    0.0455891262   -0.0412916538
 C   -1.0439108563   -0.7895445436   -0.2024439975
 O   -0.5626933076   -2.0458542982   -0.3287071475
 N    0.8423299341   -1.9574286168   -0.2225467233
 N    1.1484591559   -0.7369284285   -0.0627812235
 N   -2.3996744370   -0.4956161216   -0.2357309270
 C   -3.2219364032   -1.0841781480   -1.3169344374
 C   -3.3612730401   -1.5660565258    0.0791631704
 H    0.8540026515    1.7468625496    0.6219066664
 H   -0.7972371826    1.8223221730    0.3792728768
 H   -3.9569822251   -0.4079840770   -1.7411824774
 H   -2.7154107406   -1.7342495653   -2.0236753378
 H   -2.9580549981   -2.5452483709    0.3161913798
 H   -4.2033018263   -1.2453629014    0.6845328318