15

 N   -0.1721925199    1.3387123665   -0.1861197195
 C   -0.0158301246    0.1037914902    0.0762953132
 C   -1.1803514652   -0.8378418013   -0.1201585823
 O   -1.1985953910   -1.9359742056    0.7989888588
 C   -0.0431260926   -2.6068345313    1.0273005475
 N   -0.0101905088   -3.7874705377    1.4786189678
 C    1.2576997001   -1.8714881752    0.8206351750
 N    2.4072447076   -2.3767999024    1.0067899980
 N    1.1441215064   -0.5315594885    0.4711990741
 H    0.6974931594    1.8658200917   -0.0846150913
 H   -2.1102168052   -0.2915102536    0.0252584892
 H   -1.1573940911   -1.2278815351   -1.1466553541
 H   -0.9538629000   -4.1609578037    1.5872420812
 H    2.2920379742   -3.3478501949    1.3012753459
 H    2.0125592907   -0.0128973791    0.4906614866