17

 N   -0.2752753768    1.0470440909    0.6895529373
 C    0.0490957029   -0.2329642161    0.0552458131
 C    0.4602554832   -1.2819073749    1.1349927311
 C   -1.0391299156   -1.6329507555    1.3180662962
 O   -1.7091800464   -0.8656506755    2.2991145721
 C   -1.3007956596   -1.0512724329   -0.1047498322
 O   -2.4749879334   -0.3333195387   -0.2811771925
 C    0.9045019947   -0.1083484048   -1.1240199719
 N    1.5814977643    0.0010198427   -2.0558755819
 H    0.5600863997    1.6095993389    0.8197618735
 H   -0.9142584385    1.5616347022    0.0886101674
 H    1.0283765644   -2.1100675892    0.7063020417
 H    0.9855354862   -0.8857760712    2.0061441360
 H   -1.3035785927   -2.6770316917    1.4913835867
 H   -1.3240493302    0.0259115739    2.2482136899
 H   -1.1923233324   -1.7968892519   -0.8969982999
 H   -2.8247714298   -0.1936554661    0.6131664634