21

 C   -0.3107937525    1.5820242664   -0.1116941034
 C    0.0664235231    0.1144936196   -0.0064101258
 O    0.9035783262   -0.2404392173   -1.1041107217
 C    1.4791417541   -1.5115489422   -0.7984238089
 C    2.6775582589   -1.7552588880   -1.6963946533
 C    1.7811487802   -1.4494612620    0.7070150496
 O    2.9638401388   -0.6888489310    1.0249425294
 C    2.1790076059    0.4081034757    1.5377640233
 C    0.8542550177   -0.3259734542    1.2374431096
 H    0.5741093258    2.2229380977   -0.0783264430
 H   -0.8284117391    1.7700521589   -1.0561524965
 H   -0.9786077573    1.8641453954    0.7082182428
 H   -0.8557620681   -0.4941034237   -0.0439996490
 H    0.7184219125   -2.2993091167   -0.9499709812
 H    3.4649092900   -1.0342617313   -1.4680064826
 H    3.0714119427   -2.7645046700   -1.5412731089
 H    2.3900417874   -1.6540517655   -2.7460481319
 H    1.7870992348   -2.4327456431    1.1887763799
 H    2.3808717302    0.5852083868    2.6010045161
 H    2.3590025856    1.3339820054    0.9799662829
 H    0.2216605534   -0.5362060910    2.0997697927