17

 O    0.1674847267    1.3219287058   -0.2830573264
 C    0.0304540737   -0.0329750557    0.1323743515
 C   -1.3839603872   -0.5174063249    0.0951159770
 C   -2.1208931932   -1.0624600265   -1.0981605266
 C   -1.9848165520   -1.9453730583    0.1238827724
 O   -1.4345760215   -3.1944202677    0.0125059489
 C   -2.8842216421   -1.4501389367    1.2116201541
 N   -3.6986082243   -2.0433743034    1.9694225640
 N   -2.3390012112   -0.1212981085    1.1529198440
 H   -0.2155800717    1.8730007986    0.4071553912
 H    0.6329113550   -0.6273899878   -0.5614931885
 H    0.4377590850   -0.1776325102    1.1434057901
 H   -3.0847862688   -0.6587022035   -1.3980925864
 H   -1.4897721123   -1.3905829314   -1.9198312351
 H   -1.3281420540   -3.5511204232    0.9024564034
 H   -4.1070938746   -1.4035383291    2.6535071259
 H   -2.9906215174    0.6310919126    0.9415587704