16

 C   -0.1105595755    1.3864066961   -0.0113045709
 N   -0.0913270624   -0.0697019765    0.0346607767
 C    0.6267612582   -0.6402987723    1.0775242267
 C    1.2905261723   -0.1088653240    2.1666855992
 N    1.7835417351   -1.1081351696    2.9651649514
 C    1.4413706966   -2.2418513645    2.3853093035
 N    0.7275373004   -1.9997171917    1.2238196953
 C    1.7311808221   -3.5531576500    2.8168586103
 C    1.9568555572   -4.6864140983    3.1581545056
 H    0.8900248170    1.8375802728   -0.0936857034
 H   -0.7117207390    1.7056555576   -0.8652994341
 H   -0.5816954840    1.7682632085    0.8991517195
 H    0.1292321946   -0.4769251138   -0.8658052133
 H    1.4363732807    0.9310708670    2.4111493013
 H    0.2937730842   -2.6972972856    0.6422603645
 H    2.1666323325   -5.6781287458    3.4738492777