17

 O    0.2270685202    0.1796739529    0.4606586676
 C    0.1044469920    1.3067585916    0.0864552060
 C   -1.0348510780    1.9389338187   -0.7016228579
 C   -0.7941014536    3.4435151279   -0.5494280899
 C    0.7276158417    3.5092019158   -0.2783201735
 O    1.0530207552    2.2614607895    0.3476384268
 C    1.5402768527    3.6931724909   -1.5447425830
 C    2.7343180378    2.8974345953   -1.8434508911
 O    1.4808927535    2.6238728712   -2.4872537000
 H   -0.9382108280    1.6103072648   -1.7400367369
 H   -1.9939470217    1.5870952522   -0.3196894996
 H   -1.0776308198    4.0249332511   -1.4288502221
 H   -1.3415023351    3.8400851334    0.3099634733
 H    0.9892013267    4.3043298935    0.4270161624
 H    1.4523580907    4.6899908562   -1.9819520606
 H    3.5039120605    3.3127357822   -2.4913472175
 H    3.0585095550    2.1436315927   -1.1317525140