14

 O    0.1365000231    0.2751069730    0.6454349894
 C    0.1215057425    1.3050066055    0.0556249539
 O   -0.9729282553    2.1388153802    0.0069460824
 C   -0.7009482456    3.1948179147   -0.8819386269
 C    0.4546553147    4.1899012228   -0.6304723426
 C    1.3783096998    3.9644015915    0.5188024231
 C    1.8291497415    2.7110528774    0.4809672530
 N    1.2435307353    1.9492940366   -0.6299222125
 C    0.6233017761    2.9646911279   -1.5070757424
 H   -1.5779555589    3.5248071473   -1.4223315144
 H    0.3232594810    5.1755996757   -1.0602348205
 H    1.6435631319    4.7172348105    1.2474337330
 H    2.4559752218    2.1753212712    1.1788148523
 H    0.8495861624    2.9334246255   -2.5657677378