13

 C   -0.0322532690   -1.1791158996    0.0021033184
 C   -0.0180241209    0.0256628294    0.0080434857
 C    0.0187671868    1.4341449795    0.0115676729
 C   -0.8740882591    2.4502249530    0.7777940677
 C    0.3071248662    3.4488762783    0.7726872978
 C    1.1612978160    2.4921859991    0.0258603550
 N    0.3246710676    3.4843407528   -0.7336937388
 C   -0.8187282512    2.4747330500   -0.7194123490
 H   -0.0485778826   -2.2405624131   -0.0024811331
 H   -1.6772147990    2.2297398339    1.4656140635
 H    0.5502203800    4.3129758607    1.3781638529
 H    2.2339940887    2.4120612212   -0.0992618960
 H   -1.5677968235    2.3639594248   -1.4927974771