17

 O   -0.1147417651    1.4012876097   -0.0018914100
 C   -0.0126076138   -0.0084635931    0.0284691254
 C   -1.4117955142   -0.5997079566   -0.0428153363
 C   -1.2642971030   -0.8664439934   -1.5439420456
 C    0.2564950936   -0.6420841901   -1.3836235297
 O    0.8776931540   -1.9177234155   -1.2787806029
 C   -0.0472841627   -2.7790217720   -0.6097676424
 C   -1.3740800651   -2.0186987662   -0.6040737242
 O   -2.5581266811   -2.7470577192   -0.5883681041
 H    0.7763594514    1.7585122376   -0.0796171190
 H    0.6604460654   -0.3466236194    0.8304723471
 H   -2.2819988085   -0.2440563681    0.4966009214
 H   -1.9224501873   -0.6712719267   -2.3784908806
 H    0.8053894035   -0.0275750447   -2.0965643303
 H   -0.1569560103   -3.7116677698   -1.1754922424
 H    0.3195710000   -3.0222796314    0.3974412009
 H   -2.7556161867   -2.9842001111    0.3239378327