22

 C    0.0788464617    1.5047793141   -0.1010591567
 C    0.0420977853   -0.0201830604    0.0788768742
 C    0.7414353461   -0.4443597601    1.3771523762
 C   -1.3936686177   -0.5572964912    0.0234353783
 O   -2.2016958845   -0.0697989585    1.0839457377
 C   -2.1473473452   -0.4941474556   -1.3682200648
 C   -2.3049286565   -2.0151654236   -1.3009675094
 N   -0.9276144408   -2.5673675405   -1.2490399966
 C   -1.5804106440   -2.0853279601   -0.0077256286
 H    1.1115681681    1.8634686644   -0.1519301356
 H   -0.4271226073    1.8211828685   -1.0196598063
 H   -0.3931449487    2.0225400331    0.7435801855
 H    0.5664968776   -0.4793445968   -0.7662451542
 H    0.8004717989   -1.5344946105    1.4568592840
 H    1.7627309322   -0.0522681052    1.4166988171
 H    0.1969984633   -0.0727893434    2.2508190773
 H   -2.2827039572    0.8843406434    0.9814097955
 H   -3.0938647712    0.0399492446   -1.2608911384
 H   -1.5901287635   -0.1179298112   -2.2300300643
 H   -3.1268812056   -2.6157878326   -1.6699396761
 H   -1.0094445143   -3.5837401727   -1.2486124321
 H   -1.7254844766   -2.7284635057    0.8511510471