18

 C    0.0002809895    1.4634033401    0.0170725315
 N    0.0314031793    0.0180196888    0.0373163750
 C    0.0685791223   -0.8071162434   -1.0313752130
 O    0.0739252031   -0.2970875598   -2.2795573951
 N    0.0907830656   -2.0777649143   -0.7200547319
 C    0.0773980299   -2.0895105019    0.6641204145
 N    0.1465418266   -3.3093675889    1.3587270177
 C    0.0513812108   -0.8192647606    1.1742313851
 C    0.0587197189   -0.3019984191    2.5693681149
 H    0.8920864496    1.8858793167    0.4928324639
 H   -0.0332760098    1.7960092403   -1.0204981064
 H   -0.8845331349    1.8441099788    0.5381939711
 H    0.0934616652   -1.0567138630   -2.8742512387
 H    0.0549580994   -4.0756100243    0.7029495894
 H   -0.5702770737   -3.3987590092    2.0683319246
 H    0.8515399319    0.4384675549    2.7389427623
 H   -0.8888496716    0.1670862982    2.8703774427
 H    0.2465211078   -1.1322464333    3.2559052222