21

 C   -0.0946550462    1.5747641969   -0.0046856227
 C    0.0136910935    0.0553958344    0.0062749594
 C    1.0612343456   -0.5748919268   -0.9782070453
 C    1.8672090855   -1.0505673447    0.2264158969
 C    2.8403762827   -2.1880444538    0.4955981232
 O    3.5863671339   -1.3627944092    1.4284607278
 C    2.8440412064   -0.1760482409    1.0597388331
 C    1.7314556573    0.1938272867    2.0704791577
 C    0.7320847734   -0.6417863158    1.2241213487
 H    0.8858741534    2.0569375527    0.0706846251
 H   -0.5545581198    1.9186131761   -0.9375830029
 H   -0.7100985437    1.9395618950    0.8250403544
 H   -0.9828982895   -0.3700995745   -0.1412169770
 H    0.6411018192   -1.3978712064   -1.5651191157
 H    1.5673375563    0.1105092476   -1.6665041195
 H    2.4418897010   -3.0956928681    0.9662496445
 H    3.4618291422   -2.4749913804   -0.3654377045
 H    3.4939955104    0.6078085613    0.6550572168
 H    1.9330875380   -0.2155203280    3.0633058679
 H    1.5068426979    1.2594725915    2.1685599218
 H    0.1186322425   -1.3789513035    1.7461503001