18

 C   -0.0887193746    1.6293924374    0.0853481570
 C    1.4110777581    1.2416002668    0.0424961968
 O    1.1285368760    0.1786420977    1.0350264940
 C    0.0253114868    0.0842677780    0.0507443902
 C    1.0762678019    0.2262164515   -1.0713455821
 C    0.9597166095    0.3548893860   -2.5982602269
 C    2.4901369268    0.1404331187   -2.5615233724
 N    2.0077413632   -0.8923072226   -1.5196610743
 C    0.8982903697   -1.1890076912   -2.5520481626
 H   -0.4179586636    2.0304476772    1.0439881631
 H   -0.5244815918    2.1450390766   -0.7742961583
 H    2.2936042386    1.8600106000    0.2033743417
 H   -0.7393137464   -0.6729521752    0.2214265955
 H    0.3702435896    1.0564347214   -3.1985565087
 H    2.9580873680   -0.3213454784   -3.4346198262
 H    3.1195870064    0.9277499603   -2.1408464751
 H    0.0143826113   -1.6655809785   -2.1223631593
 H    1.2631613207   -1.7368738157   -3.4245309626