14

 C   -0.3105689414    1.5350594722    0.0029302848
 C   -0.0059506522    0.0667343027   -0.0238033070
 C    0.1050473576   -0.6585853562   -1.1438686460
 O    0.3789535750   -1.9810685813   -1.1869146069
 C    0.5671176286   -2.6851179418   -0.0306173433
 N    0.8195739321   -3.9096841974   -0.1160942733
 O    0.4650863348   -1.9956417639    1.1401185724
 C    0.1837101762   -0.6268521500    1.2452656924
 O    0.1239009322   -0.1527846954    2.3411973474
 H    0.4917947384    2.0896587005    0.4992764905
 H   -0.4326499264    1.9291187475   -1.0090650496
 H   -1.2273035147    1.7314940990    0.5674134185
 H   -0.0139906495   -0.2591757341   -2.1441388132
 H    0.9366217594   -4.3120277320    0.8109058533