13

 C   -0.2532840025    1.3318628941   -0.2371892672
 O   -0.3698738168   -0.0250139284   -0.6863229702
 C    0.7754204869   -0.5923533245   -1.0935790153
 O    1.8508024914   -0.0467088603   -1.0933039019
 C    0.5804483265   -2.0134697840   -1.5361130865
 C   -0.3292101975   -2.9230845847   -0.8120160891
 O   -0.6837122533   -2.3864379389   -2.0765286901
 H    0.4163110429    1.3961989869    0.6242399031
 H    0.1387138971    1.9665650982   -1.0354867902
 H   -1.2619163910    1.6399743681    0.0367557304
 H    1.4536720852   -2.4176238693   -2.0421082972
 H   -0.0977690013   -3.9868707505   -0.7942637249
 H   -0.8952257776   -2.5389710366    0.0334502290