21

 C   -0.1050513095    1.5342379206   -0.3018791635
 C   -0.0539795329    0.0278617460   -0.0230777198
 C    0.7411094065   -0.7023741135   -1.1101292244
 C    1.5756706611   -1.5954207165   -0.5436951607
 C    2.9956399395   -1.1118528134   -0.2398442902
 C    2.3469241364   -0.7671258354    1.1610694516
 C    3.1904989288   -0.5373827907    2.3900889510
 C    0.7944056238   -0.3989444144    1.1966395662
 C    1.2632003817   -1.7879537022    0.9523094950
 H    0.8968974474    1.9345454780   -0.4903286489
 H   -0.7299442726    1.7574714672   -1.1728422347
 H   -0.5229857804    2.0688479407    0.5578167246
 H   -1.0835430929   -0.3290673503    0.1343167372
 H    0.9992757235   -0.1711972753   -2.0236822323
 H    3.7614374283   -1.8813845648   -0.0780169221
 H    3.3950584486   -0.3119136649   -0.8712147600
 H    3.6656278802    0.4502262016    2.3715383482
 H    2.5924591927   -0.6016266372    3.3047060076
 H    3.9872136028   -1.2874426698    2.4604798953
 H    0.4726230045   -0.0994640240    2.1938403254
 H    1.0429716123   -2.7048039518    1.4848723548