18

 O    0.2547310914    1.3619018524   -0.0651919075
 C    0.0491692438    0.0014129423   -0.0025916254
 C   -0.4501709736   -0.7218177882    1.2565144047
 C   -0.8959930302    0.0330131804    2.4388026426
 C   -1.9998532196    0.7896300479    2.4822783320
 C   -2.9226418295    0.9005334670    1.3309637787
 N   -2.4505869977    1.6576896433    0.1380160807
 C   -2.5757599311    0.1819174389    0.0694532463
 C   -1.3179411506   -0.6338015502   -0.0111642319
 H   -0.6204885690    1.7912030637    0.0151425115
 H    0.8251242606   -0.5396908118   -0.5388551059
 H    0.0353562700   -1.6709270964    1.4650188741
 H   -0.2668564959   -0.0367537364    3.3223939580
 H   -2.2612943461    1.3268717107    3.3886428259
 H   -3.9765281498    1.0190128967    1.5694272639
 H   -3.2286575952    2.1049612203   -0.3374954201
 H   -3.4058010553   -0.2038290360   -0.5147991141
 H   -1.4288643823   -1.5477112646   -0.5848432434