17

 C   -0.2677547114    1.5159910665    0.0558169845
 C    0.1036888895    0.0453009210   -0.0078953808
 C    1.2158813444   -0.4502817138   -0.9732191073
 C    1.9144469867   -1.0323283747    0.2626521696
 C    2.1483342850    0.0419740571    1.2573922784
 N    0.7992235104   -0.5365422654    1.2064349610
 C    2.5014982913   -2.3281263817    0.3389185854
 C    3.0091024237   -3.4189304678    0.3630281470
 H    0.6058021382    2.1675179031    0.1520954708
 H   -0.7984995651    1.8091975212   -0.8562803138
 H   -0.9289680754    1.7046850525    0.9078292574
 H   -0.8049423123   -0.5468761348   -0.1448549561
 H    0.8709824520   -1.2101399497   -1.6749464982
 H    1.7889809190    0.3054713073   -1.5188765792
 H    2.6810362893   -0.2313597747    2.1623079774
 H    2.3303489614    1.0571221483    0.9121499295
 H    3.4540315633   -4.3823813745    0.3964798144