13

 O   -0.8309971710    1.2324537374   -0.1446923737
 C    0.2813659713    0.8730980360    0.1594936737
 C    1.4496042463    1.7898805919    0.1585965948
 N    2.6405934291    1.3726353143    0.3947157601
 C    3.5017126585    2.5658211846    0.2824837083
 C    2.6179148861    3.6707330380   -0.3665864163
 N    1.2791211153    3.1325542442   -0.0979195896
 H    0.5286369326   -0.1672387807    0.4429409777
 H    3.8267380169    2.8550646551    1.2905839162
 H    4.4015873687    2.3385928443   -0.2947769203
 H    2.7567982986    4.6539451440    0.0896888495
 H    2.8068017328    3.7609524097   -1.4455995268
 H    0.4812395649    3.4098862512   -0.6500786536