14

 C   -0.0206197563    1.4422859373    0.0261384658
 N   -0.0000773408   -0.0055843998    0.0488457728
 C   -0.0196915083   -0.7837505595   -1.1036700053
 O   -0.0534621806   -0.4275998700   -2.2494237413
 O    0.0110416774   -2.0735059851   -0.6625689434
 N    0.0479674528   -2.1020723939    0.7569053205
 C    0.0398453511   -0.8609158359    1.1214670593
 C    0.0707666259   -0.4264386537    2.5428657877
 H    0.8782574839    1.8588820741    0.4900086353
 H   -0.0526364611    1.7378366191   -1.0240137948
 H   -0.9047172374    1.8342528825    0.5374417763
 H    0.1003330220   -1.3093104643    3.1824879521
 H    0.9523538388    0.1901404146    2.7470196589
 H   -0.8164826075    0.1644157545    2.7933254363