18

 C    0.0325824930    1.5206632304    0.1381578033
 C    0.0772039546   -0.0085251716    0.0968876670
 N    0.7574480961   -0.5870269275    1.2380897436
 N    2.0855449499   -0.7393371079    1.2723016904
 C    2.3292100535   -1.1335029411    2.5189073991
 N    3.6058007534   -1.3846907898    3.0304127592
 C    1.1040237582   -1.1885015332    3.2198372814
 N    0.9008079988   -1.6276515900    4.5311370310
 N    0.1271564221   -0.8290004881    2.3925248768
 H    1.0448495299    1.9338470820    0.1516214331
 H   -0.4874898109    1.9063352516   -0.7443650875
 H   -0.4968597262    1.8658532127    1.0304429188
 H   -0.9320224180   -0.4272515683    0.0890155873
 H    0.6047902727   -0.3577201292   -0.7942323866
 H    4.3025933414   -1.3669434654    2.2955468761
 H    3.6506339674   -2.2733787638    3.5172232969
 H    1.5385680683   -1.1828769108    5.1820111935
 H   -0.0541943742   -1.4661139899    4.8270652566