21

 C   -0.1159468932    1.5152414538   -0.1625780845
 C   -0.0402986397    0.0079071413    0.0389018999
 C   -0.5228812327   -0.5186444520    1.3905935216
 C    0.9470948318   -0.4827940514    1.0772973588
 C    1.7386051564   -1.7689173467    0.9479989422
 O    0.9771193998   -2.8669071797    0.4933181847
 C    0.8804332692   -2.9854167145   -0.9108885002
 C    0.0188218525   -1.9690340364   -1.6081612484
 C   -0.3528593312   -0.7533661217   -1.2021525718
 H    0.6171350595    1.8552278902   -0.9030417724
 H   -1.1094688595    1.8151309356   -0.5161843520
 H    0.0792184737    2.0504215550    0.7714826137
 H   -0.9309610844    0.1939815481    2.1003196393
 H   -0.9928543952   -1.4948491715    1.3896223498
 H    1.5235926434    0.3046252992    1.5597861888
 H    2.6169233509   -1.6168510357    0.2988930321
 H    2.1113145693   -2.0517163439    1.9405646258
 H    1.8925441615   -2.9831898439   -1.3577947730
 H    0.4667077197   -3.9848622127   -1.0924094098
 H   -0.3397973636   -2.3024167399   -2.5811669627
 H   -0.9954485779   -0.1983245232   -1.8852318318