19

 C   -0.1293027402    1.4987978940   -0.1198327802
 C    0.1569132311    0.0319402424    0.0390143298
 C   -0.9788539727   -1.0093398427    0.0552171405
 O   -0.3739276658   -1.7032550995    1.1776947930
 C    0.6882821695   -0.7376025419    1.2729652299
 C    1.9109771791   -1.0632885250    0.3979202887
 C    2.2655977958   -2.5054655165    0.0883488168
 O    3.0974142636   -2.5693982918   -1.0571980886
 O    1.2842443997   -0.4178317836   -0.7562676483
 H    0.7624320561    2.0939956864    0.0949998533
 H   -0.4354296467    1.7112936136   -1.1503915659
 H   -0.9354118372    1.8152782797    0.5488373095
 H   -1.9688140400   -0.6184639590    0.3224922322
 H   -1.0493270313   -1.6318114503   -0.8427902189
 H    0.8327408844   -0.3588792422    2.2863454001
 H    2.8078781334   -0.4992281032    0.6871276450
 H    2.8303354086   -2.9405168939    0.9202553364
 H    1.3445443590   -3.0894579916   -0.0385753159
 H    2.6330542036   -2.0835962951   -1.7494823572