21

 C   -0.0005567397    1.5733154221   -0.0101707899
 C    0.1135468977    0.0659538279    0.0885467795
 C    1.3629005701   -0.7312770216   -0.2048384695
 C    2.6063348691   -0.0305640801    0.2842461262
 C    3.2537309668   -0.8189468854    1.4055938957
 C    2.0215176776    0.0047783830    1.6910640890
 O    2.0508698849    1.0927428177    2.5545969707
 C    0.7614429402   -0.6978385441    1.2230611469
 C    0.0606844065   -1.7852002798    1.9923948840
 H    0.8850206581    2.0767874199    0.3814789108
 H   -0.1396381204    1.8835408558   -1.0522313161
 H   -0.8633047307    1.9329612384    0.5613126208
 H   -0.7778340106   -0.4509316854   -0.2684011127
 H    1.3560775222   -1.5826963021   -0.8777500019
 H    3.1356840923    0.7677272332   -0.2227152451
 H    3.2243459894   -1.9058315242    1.4044530135
 H    4.1732701087   -0.3884887909    1.7921411560
 H    2.1676746088    0.7642172591    3.4522901711
 H   -0.5059938590   -1.3719240019    2.8361089497
 H   -0.6489639315   -2.3292935440    1.3606571555
 H    0.7734551394   -2.5135011678    2.3969550858