12

 C   -0.0477371289    1.5389313796    0.0011429382
 C   -0.0138336671    0.0456008026   -0.0110244853
 C   -0.1173995675   -0.8333152010   -1.0400806711
 O   -0.0362346302   -2.1056080558   -0.6171386603
 N    0.1315056671   -2.1032028878    0.7700633811
 C    0.1416333853   -0.8363195776    1.1021841814
 O    0.2857470993   -0.4291279908    2.3740128992
 H    0.8790537173    1.9550701246    0.4101605662
 H   -0.1795442705    1.9359418268   -1.0084471327
 H   -0.8684137706    1.9136694675    0.6220007480
 H   -0.2491354863   -0.7009501966   -2.1035947700
 H    0.3711343721   -1.2169281815    2.9275043552