17

 O   -0.0782130147    1.4475889898   -0.0255617939
 C    0.0025590336    0.0281061310   -0.0120448210
 C   -1.4230512989   -0.5130107751    0.0980135106
 C   -1.4329161419   -2.0298241948   -0.1172270245
 O   -2.7183094437   -2.5650276344    0.0209343095
 C   -0.8586404825   -2.3651155152   -1.4923212700
 O   -1.3755842033   -3.2345805400   -2.1706142265
 C    0.3148303021   -1.5865986432   -1.9202090372
 C    0.6993497194   -0.4937549304   -1.2481952552
 H    0.8017383193    1.8085353252    0.1227661783
 H    0.5790426528   -0.3104279818    0.8681231091
 H   -1.8486754315   -0.2679128347    1.0741883734
 H   -2.0416199322   -0.0296932767   -0.6659971804
 H   -0.7431343218   -2.4880474393    0.6196457920
 H   -2.8104077772   -3.1902071167   -0.7166204350
 H    0.8196760596   -1.9217120178   -2.8206854133
 H    1.5589200011    0.0810695241   -1.5891455260