17

 O   -0.7018920968    0.6404270447   -0.3980647736
 C    0.4159555299    0.7906320072    0.0209532071
 C    1.1650132895    2.1247766133    0.0358956930
 O    2.4652587332    1.9453574315    0.5693399682
 C    3.3591782614    1.7649066231   -0.5325604100
 C    2.8576993207    2.7239934553   -1.6167903851
 C    1.3542300616    2.7708262800   -1.3516842158
 C    0.3065665728    2.8262321099   -2.3763770420
 O    0.6668193077    3.9867064114   -1.6114864811
 H    1.0001571573   -0.0429853369    0.4728036717
 H    0.6065990708    2.8096658631    0.6846642591
 H    4.3690200958    1.9798035334   -0.1779165440
 H    3.3306040140    0.7212205416   -0.8840848973
 H    3.2648834339    3.7282936591   -1.4677680714
 H    3.1047809173    2.3960169336   -2.6288190021
 H    0.5926752650    2.8557157932   -3.4269819919
 H   -0.6736263640    2.4092924765   -2.1616761146