19

 C   -0.1032516838    1.4998396356    0.2139527343
 C   -0.2394576028   -0.0011945507   -0.0541502818
 C    0.7139794299   -0.4819687588   -1.1374525710
 O    0.5038198552   -1.8785697378   -1.3272935127
 C    1.3284684478   -2.4418912181   -2.3297273434
 C    2.7640546582   -2.6094046865   -1.7853565774
 O    3.7526723284   -2.2356861642   -2.3529159488
 C    0.8244313668   -3.7612987482   -2.6902848104
 C    0.4769945463   -4.8751687518   -2.9763751203
 H    0.9091661418    1.7574387749    0.5436445572
 H   -0.3192132513    2.0880112812   -0.6846706092
 H   -0.7979100051    1.8208512635    0.9950356900
 H   -0.0435391532   -0.5712651558    0.8609887970
 H   -1.2631175295   -0.2436269699   -0.3608045842
 H    0.5305963224    0.0532339476   -2.0834626050
 H    1.7579068967   -0.2795624967   -0.8490408032
 H    1.3829471623   -1.7956874178   -3.2193459294
 H    2.7855864473   -3.1018289234   -0.7886819071
 H    0.1490809525   -5.8508167332   -3.2395531744