14

 N   -0.0150957254   -1.1674681371   -0.0266798446
 C    0.0482458961   -0.0362085304    0.1984597986
 C    0.1419369865    1.3960529616    0.4699275547
 C    1.1695511614    2.0821597109   -0.4494936366
 C    1.2584233455    3.5434005102   -0.1642817718
 N    0.6007998184    4.2343855185    0.7194997513
 C    1.1002746866    5.4986127043    0.5140421117
 N    1.9998808596    5.5963325278   -0.4234666782
 O    2.1119418915    4.2771218667   -0.8868533548
 H   -0.8433112368    1.8536899926    0.3399084315
 H    0.4152824777    1.5479572711    1.5183840650
 H    2.1589271497    1.6298090007   -0.3225826893
 H    0.8999561003    1.9364090485   -1.5009875463
 H    0.7832530589    6.3632971245    1.0784749890