20

 C   -0.1100532730    1.4058218932   -0.1634949199
 C    0.0754938962   -0.0883039133   -0.0311789740
 C    1.4453624255   -0.7022239050   -0.1020062334
 C    0.7064239907   -0.6731805198    1.2157870878
 C    1.0898109262    0.0361508819    2.5325649035
 C    0.5539809304   -1.2064747279    3.3227843166
 C    0.2183609906   -1.8480891619    1.9882117016
 N   -0.2752392083   -2.9455776391    1.5902030152
 O   -0.6018664831   -3.7769275788    2.6825914342
 H    0.7263677702    1.9507485893    0.2859635318
 H   -0.1692511777    1.7007206869   -1.2169571537
 H   -1.0297698720    1.7409159579    0.3286495696
 H   -0.7310622594   -0.6920163514   -0.4396353229
 H    1.5629531735   -1.6697508793   -0.5781722770
 H    2.2958631680   -0.0339764460   -0.2051932798
 H    2.1592362596    0.2205169299    2.6583292157
 H    0.5480750953    0.9642995214    2.7303532359
 H    1.2980088823   -1.7524845761    3.9089095484
 H   -0.3137238138   -1.0202101543    3.9615278012
 H   -0.9542105711   -4.5573593575    2.2422024692