20

 C    0.1230604432    1.5013612398   -0.1550846194
 C   -0.0207007607   -0.0004509722    0.1303110028
 C   -1.4422961801   -0.4764501876    0.0606755453
 C   -2.2170624232   -0.8423719813   -1.1877325070
 C   -3.6218170878   -0.2812017221   -1.0813729728
 N   -3.8633558991   -0.3400920869    0.3677510248
 C   -3.1459900589   -1.5017489217    0.9254262495
 C   -2.0283579197   -1.8690649164   -0.0893322552
 C   -2.5855770635   -0.1324984483    1.0710449350
 H    1.1671602518    1.8195838665   -0.0767793849
 H   -0.2315382318    1.7451326833   -1.1617480590
 H   -0.4610018041    2.0968688069    0.5545564009
 H    0.5831211605   -0.5715901865   -0.5857981601
 H    0.3938491663   -0.2255552074    1.1220741264
 H   -1.6978014941   -0.9580405179   -2.1318474864
 H   -3.6989629051    0.7556653033   -1.4248886938
 H   -4.3698957043   -0.8855523464   -1.6048853994
 H   -3.6466470996   -2.1583356683    1.6251367884
 H   -1.5302670136   -2.8217037261   -0.2024665968
 H   -2.5355799660    0.5464022196    1.9136536116