18

 C    0.1328811089    0.8415037820    1.0368918176
 N   -0.1054545773    0.1537637707   -0.2309879439
 C    1.0866591565   -0.5006651685   -0.7683233464
 C   -1.2705363563   -0.5819866968   -0.3010123016
 C   -2.4331073804   -0.4613257245   -0.9755278880
 N   -3.3034576517   -1.5020135226   -0.6618130694
 C   -2.6246790290   -2.2170861656    0.1847746450
 N   -3.0003725956   -3.4109886860    0.7521978779
 O   -1.3951152639   -1.7631342870    0.4801367741
 H    0.9248369253    1.5856813379    0.9010254133
 H   -0.7792738981    1.3577777093    1.3444895604
 H    0.4398935630    0.1595794782    1.8469438264
 H    1.4744145003   -1.2968748418   -0.1121918777
 H    0.8506679254   -0.9372449054   -1.7413061024
 H    1.8775516663    0.2447701192   -0.9036360448
 H   -2.7057581507    0.3173151330   -1.6703398017
 H   -3.9969925666   -3.5649222063    0.7047451620
 H   -2.6093875259   -3.5861275257    1.6662878193