21

 C   -1.7021630647   -0.4803492021    2.3320439278
 C   -0.7599028473   -0.9219685262    1.2412746401
 O   -0.3876596256    0.0467316425    0.2531603787
 C    0.6406496174   -0.4859829633    1.0970296727
 C    1.3588518085    0.4753523924    2.0190538052
 C    2.2013445856   -0.2484698100    3.1073737268
 C    3.5097227295    0.5713274906    3.2475816768
 C    3.5515117200    1.3666413554    1.9641525225
 C    2.3961558861    1.3199708224    1.3049923961
 H   -1.4189143624    0.4861987379    2.7529920109
 H   -2.7189605707   -0.3898225726    1.9353995861
 H   -1.7236346926   -1.2214437191    3.1386033265
 H   -1.0048929857   -1.8973567727    0.8136343804
 H    1.3164634003   -1.1718493420    0.5780320921
 H    0.6105825683    1.1364413903    2.4743352657
 H    1.6602937768   -0.3565284005    4.0505226312
 H    2.4419985925   -1.2593339317    2.7583276025
 H    3.4793870440    1.2427907721    4.1173712221
 H    4.3904639978   -0.0659686892    3.3862376904
 H    4.4223039122    1.9367773463    1.6587348233
 H    2.1701463998    1.8383092595    0.3799284621