16

 C   -0.0308208107    1.4575993664    0.0105615720
 C   -0.0386347692   -0.0528822340    0.0330360267
 O   -0.1159365341   -0.6964882834    1.0554164826
 C    0.0591313685   -0.7517902314   -1.3188149678
 N    0.0545990672   -2.1734498969   -1.1194585345
 C    0.1101016642   -3.0428415021   -2.1589709140
 N    0.1818175960   -2.6518674849   -3.3787764164
 C    0.0828228610   -4.4445592305   -1.7654898436
 N    0.0633491459   -5.5698673391   -1.5009607578
 H    0.9040504788    1.8235597394   -0.4284680235
 H   -0.8459847610    1.8352315153   -0.6161961123
 H   -0.1348811047    1.8428015610    1.0249820412
 H   -0.7754173537   -0.4316425032   -1.9597573920
 H    0.9681078583   -0.4202118444   -1.8414456776
 H   -0.0182446847   -2.4852670402   -0.1618409070
 H    0.2171404282   -3.4434198420   -4.0154532359