21

 C   -0.0713969079    1.5462753941    0.0734295025
 C   -0.0089110348    0.0143916969   -0.0229235762
 C    0.7930176009   -0.4846512418   -1.2097313456
 C    1.7830624118   -1.3021433356   -0.8505356236
 C    1.8210452935   -1.4622166978    0.6404552892
 C    2.4330338860   -2.6791967610    1.2741072110
 O    2.0690972068   -0.1916131317    1.3093506567
 C    0.7104337343   -0.6396377458    1.1707770180
 C   -0.0473229786   -0.8810042494    2.4477890584
 H    0.9348367116    1.9520135183    0.2056410333
 H   -0.5057936013    1.9804358774   -0.8325485640
 H   -0.6865980438    1.8632134486    0.9220015928
 H   -1.0360649376   -0.3756940341   -0.0774877979
 H    0.5838581402   -0.1544645225   -2.2219894061
 H    2.4935610374   -1.7805326636   -1.5148290831
 H    3.5054963453   -2.7255160111    1.0540298503
 H    2.3151855651   -2.6649243964    2.3596532952
 H    1.9721076832   -3.5922821709    0.8821791145
 H   -0.3858000229    0.0688560384    2.8775819187
 H   -0.9327396294   -1.4992893518    2.2651541029
 H    0.5795651502   -1.3767941403    3.1920076729