14

 C   -0.1854695579   -1.2500546956   -0.1384279797
 C   -0.0430985020   -0.0611679607   -0.0472568177
 C    0.0919129317    1.3816155596    0.0899801241
 C   -0.5420623817    1.9453452433    1.4038132971
 N    0.4081591243    3.0168696531    1.7308370064
 C    1.5707843964    2.7069775395    1.0405929560
 N    1.5101808409    1.8302248781    0.1107107663
 C    2.7793375579    3.4176364853    1.3643411574
 N    3.7306792129    3.9998317937    1.6655461788
 H   -0.2983221927   -2.3021670624   -0.2309182874
 H   -0.3764568366    1.8657873024   -0.7787583495
 H   -1.5491811874    2.3355578212    1.2471888242
 H   -0.5719456433    1.1764677484    2.1848558588
 H    0.4921391374    3.3191499639    2.6912340852