17

 O   -0.2874322292    0.2495173825    0.8932414181
 C   -0.1481167036    1.2219523599    0.1973421517
 C   -1.2320006378    1.8444207697   -0.7280103556
 C   -0.9893742383    3.3817961315   -0.7012508295
 C    0.4769177687    3.4689685715   -0.3372530309
 C    1.3804361173    4.2537105726    0.6359044395
 C    1.9416237709    2.8784189237    1.1621228453
 C    1.0025045844    2.1733649837    0.1724941439
 O    1.2978648598    2.6532553729   -1.1500320154
 H   -1.1169152016    1.4372034322   -1.7366481034
 H   -2.2188344032    1.5555722265   -0.3625571833
 H   -1.2288640917    3.8706929667   -1.6500224153
 H   -1.5948391857    3.8546730580    0.0788842589
 H    2.0907742328    4.9356136124    0.1642419269
 H    0.8126553553    4.7884336964    1.4000741708
 H    3.0044392447    2.6839231201    1.0107697170
 H    1.6779599172    2.6871105298    2.2034545312