19

 C   -0.2321498533    1.3749499181    0.1466317059
 N   -0.2080989107   -0.0752797347    0.2196479874
 C    0.6675488353   -0.6453661006    0.9141400747
 O    1.6428123946   -0.0030125752    1.6545088409
 C    2.5259538989   -0.9576581416    2.2473715305
 C    1.8991442463   -2.3076723886    1.9470507730
 C    0.5106975636   -2.5741157190    2.3995347685
 C   -0.2181077319   -1.7617653503    3.4429146890
 N    0.7778226256   -2.0603348653    1.0209042279
 H    0.6766557852    1.8612115350    0.5198555296
 H   -0.3925185884    1.6738394217   -0.8945530766
 H   -1.0862727088    1.7566649915    0.7199946047
 H    3.5159302793   -0.8741177747    1.7850462279
 H    2.6187790680   -0.7320705201    3.3152235603
 H    2.5643327134   -3.1282480861    1.6961784681
 H    0.1936865117   -3.6137596660    2.3562002698
 H    0.1453880300   -0.7345235515    3.5125301406
 H   -1.2877450516   -1.7255406616    3.2142607680
 H   -0.1004680072   -2.2347217310    4.4234755297