17

 O    0.1586868142    1.4120664027   -0.1861957868
 C    0.0533899011    0.0350910724   -0.0356272858
 C    0.0178181799   -0.6448892953    1.3689711103
 C   -1.4526933334   -0.1528731009    1.5212784398
 C   -1.3716146485   -0.6750574908    0.0607875023
 C   -2.4410481823   -0.6832141458   -0.9699003771
 O   -3.5013250112   -0.1175552605   -0.8459332435
 C   -0.5927257499   -1.8881240302    0.6410206358
 O    0.1653706148   -2.6220414291   -0.2818225030
 H   -0.4082685398    1.8591882519    0.4506527889
 H    0.7340836433   -0.4102873247   -0.7572533933
 H    0.7977518518   -0.6384751284    2.1318436126
 H   -2.0967199758   -0.7169479849    2.2003057221
 H   -1.6195561309    0.9161911558    1.6602471077
 H   -2.1888612858   -1.2421280427   -1.8984058288
 H   -1.1978267301   -2.5394540946    1.2837855297
 H    0.7050321227   -3.2553517049    0.2014685289