14

 N   -0.0970018005    1.2605721355    0.3162037500
 C    0.1136721668   -0.0168435830   -0.1079849634
 O    1.1514310266   -0.4369764286   -0.5599293185
 C   -1.1763443276   -0.8810621855   -0.0208580074
 N   -0.9462082502   -2.3038530571   -0.2490963896
 C   -1.4355431289   -2.9044143545    0.7625662371
 N   -2.0119638230   -2.0853196095    1.7361626465
 C   -1.8874413454   -0.7681605046    1.3393464322
 O   -2.2502977621    0.2169216453    1.9451826082
 H    0.7151090512    1.8537885360    0.3827706807
 H   -0.8945261523    1.4599061058    0.9068934722
 H   -1.8527380965   -0.4917292823   -0.7934746498
 H   -1.4333703836   -3.9802254344    0.9003427401
 H   -2.4087403645   -2.3753810633    2.6156586017