20

 C    0.0249126355    1.4952408205    0.1261533534
 C    0.0052018245    0.0020372854   -0.0308139035
 C    0.9052374141   -0.7848760124   -1.0227689636
 C    0.6916701440   -1.8319081447    0.0884099010
 O    0.6618769401   -0.7423936280    1.0608404563
 C   -0.7909910193   -2.1718158918   -0.0356955724
 C   -1.3041641364   -3.4021120057   -0.6736223042
 N   -1.4526586082   -3.1828164319    0.7817001765
 C   -1.3536184479   -0.7416446194   -0.1307949353
 H    1.0498769936    1.8627451888    0.2262280445
 H   -0.4349298902    1.9754918825   -0.7437850910
 H   -0.5381899651    1.7934905320    1.0164862146
 H    0.5379188972   -0.9930300874   -2.0312874852
 H    1.9262193811   -0.4004436940   -1.0340432821
 H    1.3970201853   -2.6316068332    0.3213449405
 H   -2.2347134681   -3.3822853591   -1.2350010340
 H   -0.5859578932   -4.1420343740   -1.0218506545
 H   -0.7667245230   -3.7335634759    1.2942136752
 H   -2.0036423893   -0.5108804807    0.7159979962
 H   -1.8868237245   -0.5356496710   -1.0634779024