15

 O   -0.0833480356   -0.0437187501   -0.0295784411
 C   -0.0555444199    1.1475958440   -0.0851284793
 C   -1.1709035999    2.2488801249   -0.1555928109
 C   -0.0538547937    3.2464806084    0.1995946501
 C    0.2487748627    4.2107617813    1.3316357657
 C    1.5763499814    3.6755665474    1.8681219958
 C    1.9830191976    2.5478396371    1.2662764596
 C    1.0132603238    2.2003185280    0.2003704567
 O    0.8827736222    3.1887961863   -0.8579198969
 H   -1.6768309872    2.4190046693   -1.1072640233
 H   -1.9063593747    2.0711898244    0.6350005732
 H    0.3309504672    5.2490842734    0.9916388329
 H   -0.5364392817    4.1875698755    2.0968834876
 H    2.1375488070    4.2059041420    2.6307187622
 H    2.8857430607    1.9951366681    1.4885703077