23

 C   -0.0905327730    1.4880250924   -0.0687827296
 C    0.0350429848   -0.0360830773    0.0137384117
 C    0.7554623524   -0.5524402336    1.2757580838
 C    0.0222673959   -0.1921751473    2.5772161032
 C    0.9599920883   -2.0444857919    1.1897791889
 C    1.5706590881   -2.9123093548    0.0501599113
 C    0.9048733467   -3.8373047425    1.0900333942
 C    1.5609303985   -3.0330342194    2.2315683727
 O   -0.2547202301   -2.9200652936    1.1360346013
 H    0.8905117078    1.9723047935    0.0011307517
 H   -0.5397233125    1.7876428704   -1.0208158754
 H   -0.7187620070    1.8940956400    0.7295559236
 H   -0.9573132453   -0.4996822205   -0.0361018724
 H    0.5810992437   -0.3933616687   -0.8674358980
 H    1.7611350982   -0.1059910555    1.3042650652
 H   -0.9673069969   -0.6590425630    2.5993672826
 H    0.5774644583   -0.5440943657    3.4518846913
 H   -0.1026767778    0.8886817503    2.6788982767
 H    1.0571626887   -2.8531452953   -0.9099622740
 H    2.6595171433   -2.9400258890   -0.0467388760
 H    0.6933111149   -4.9046734307    1.0294984179
 H    2.6488289881   -3.0719492303    2.3350646728
 H    1.0380346252   -3.0779777974    3.1873645565