18

 C   -0.0157352915    1.5205112878    0.0228538048
 C    0.0125197898    0.0100802854    0.0265715023
 C    0.9604910901   -0.8063778434   -0.9094718743
 C    0.7099735556   -1.9505705283    0.1279445191
 C    0.6532258533   -0.8069139652    1.1942399087
 C   -0.7765096256   -2.1868337859   -0.0891982174
 O   -1.3790805683   -3.2222554171   -0.1776191638
 C   -1.3219490961   -0.7432414758   -0.1685506825
 H    0.9874363499    1.9351537060    0.1692018366
 H   -0.4032296649    1.9065492115   -0.9268229749
 H   -0.6582396112    1.9060647757    0.8226046039
 H    0.6554683182   -0.9705722900   -1.9473813177
 H    1.9918457572   -0.4468728767   -0.8713741635
 H    1.3457544138   -2.8280138246    0.2205786393
 H    1.6523673022   -0.4474706238    1.4528991361
 H    0.0640935413   -0.9715950144    2.1014656744
 H   -2.0572969960   -0.5519624194    0.6201647661
 H   -1.8009421978   -0.5515468918   -1.1345811472