22

 C   -1.0789072792    0.9795099921   -0.0640073545
 C    0.0223137908   -0.0793384544   -0.1187321739
 C    1.1753714290    0.2687005903   -1.1032436917
 C    2.3898866612   -0.4773724088   -0.5692032626
 N    3.0315736831    0.2218052373    0.5650162925
 C    2.1126669697   -0.9139274954    0.8221888808
 C    0.7081090182   -0.4753697624    1.2356954802
 C    0.7476391528    0.6033173514    2.3200215875
 O   -0.5466594495    0.6848974872    2.9088676505
 H   -0.6898776196    1.9464764659    0.2720615251
 H   -1.5080622576    1.1284493849   -1.0613296550
 H   -1.8804081827    0.6922323580    0.6197396097
 H   -0.4296591512   -1.0070336279   -0.4935195816
 H    0.9259814044   -0.0316527163   -2.1256726318
 H    1.3765889348    1.3457556497   -1.1170803866
 H    3.0160604541   -1.0606762375   -1.2367503261
 H    3.9909523251   -0.1034483490    0.6619356462
 H    2.5309751444   -1.8277616753    1.2329964264
 H    0.1740578020   -1.3253501265    1.6748547673
 H    1.5013687714    0.3244312578    3.0732895859
 H    1.0619951724    1.5646346542    1.8951206774
 H   -0.5620676636    1.4510141047    3.4894540944