18

 C    0.0925820858    1.4069613219    0.0482374033
 N   -0.1118409898   -0.0251343411    0.0482762203
 C   -0.0352777362   -0.7580431736   -1.1158124129
 O   -0.0024716990   -0.3529522063   -2.2456951607
 O    0.0168852355   -2.0950331738   -0.7903313267
 C    0.0739964921   -2.2271504553    0.6124452304
 C    1.2759645969   -1.6555260974    1.3258183794
 C   -0.0199811941   -0.8578198846    1.2165509459
 C   -0.8528728960   -0.4847589177    2.4147992696
 H    1.0738345801    1.6738575739    0.4626216084
 H    0.0403192867    1.7432780489   -0.9883095922
 H   -0.6821905129    1.9169880977    0.6295395865
 H   -0.4555115661   -3.0974660093    0.9788043770
 H    1.5146697799   -2.0909622163    2.2903558678
 H    2.1281793195   -1.3471829571    0.7298565672
 H   -0.4884422498    0.4340972288    2.8868815332
 H   -1.8994980930   -0.3344074255    2.1311032391
 H   -0.8107776597   -1.2778697830    3.1663116945