18

 C   -0.0481536645    1.4680141511   -0.0646131302
 C   -0.0312777063    0.0158113066    0.0198807576
 C   -0.0271358744   -1.1852997458    0.0860482178
 C    0.0040181431   -2.6354771401    0.1714870487
 O   -1.3118551044   -3.1527814082   -0.0186616372
 C   -1.3698375503   -4.5678924540   -0.0021660070
 C   -1.4842157273   -5.1409723260    1.4180770706
 C   -2.5335293297   -4.9638700412   -0.8152364657
 N   -3.4413698502   -5.3109201533   -1.4387168338
 H    0.5674705451    1.8262700293   -0.8966504519
 H   -1.0677799240    1.8351426368   -0.2237394753
 H    0.3305133915    1.9261446632    0.8553846492
 H    0.6791346875   -3.0483612855   -0.5967430659
 H    0.4056623347   -2.9427778822    1.1498260816
 H   -0.4780376203   -4.9881054406   -0.4954064636
 H   -2.3669897578   -4.7314746330    1.9138238334
 H   -1.5677362694   -6.2306791498    1.3857068803
 H   -0.5972440232   -4.8811063672    2.0012031913