18

 C    0.1757599345    1.4720610757    0.0207747054
 C    0.0548585548   -0.0295969147    0.2708697155
 O    0.2034530257   -0.3469898994    1.6522642384
 C   -1.2670026596   -0.5818695735   -0.2820601465
 N   -1.3390339526   -2.0324638012   -0.2525087039
 C   -1.2665883277   -2.8927908277    0.7864984772
 N   -1.3902142863   -4.1390907660    0.3656644720
 C   -1.5394498319   -3.9818346029   -0.9772455457
 N   -1.5171459661   -2.7304581712   -1.4055758029
 H    1.1031084442    1.8484835429    0.4594759267
 H    0.1798962396    1.6991334550   -1.0494960272
 H   -0.6636047867    2.0145741324    0.4745722176
 H    0.8780079206   -0.5550470189   -0.2257330564
 H   -0.3692700747    0.2439450883    2.1548905750
 H   -2.1049840866   -0.1586593921    0.2872989997
 H   -1.3953137054   -0.3014295766   -1.3289201522
 H   -1.1037644101   -2.5630990368    1.7993015490
 H   -1.6691125318   -4.8094746731   -1.6587014117