18

 C    0.0273828284    1.4932753539    0.0800346572
 C   -0.0001166918   -0.0008913174   -0.0747881326
 C    0.6906604624   -0.7082313177   -1.2473904791
 C    0.3104127809   -2.1010273562   -0.6991697093
 C    0.9136407391   -1.9943587682    0.7157061311
 O    0.6389322044   -0.6342912729    1.0777198082
 N   -1.1438585315   -1.9334478392   -0.5860481220
 C   -1.4032235772   -0.6615520294   -0.1017449461
 O   -2.4608921942   -0.2172031558    0.2746903024
 H    1.0535195301    1.8481067168    0.2063596313
 H   -0.4109375077    1.9732301482   -0.7993557558
 H   -0.5626010788    1.7852406654    0.9522932189
 H    0.2374573072   -0.5027410310   -2.2184317031
 H    1.7668736267   -0.5238229843   -1.2741142415
 H    0.5929585640   -2.9763256182   -1.2821390507
 H    0.4335689481   -2.6768981547    1.4264148829
 H    1.9962299212   -2.1762512155    0.7224555844
 H   -1.7607191912   -2.6960518136   -0.3462637061