19

 O    0.4410022272    1.3456510529    0.1719188871
 C    0.1960381440   -0.0314570514    0.1095105845
 C    0.1904597817   -0.7939172772    1.4440351567
 O   -0.8814161254   -0.2071992921    2.2050010306
 C   -1.2023631464   -1.2199685936    1.2339501250
 C   -1.2907618833   -0.5142160882   -0.1203493961
 C   -2.4565001474    0.4563160865   -0.4137356866
 C   -3.0406318936   -0.5856545811   -1.4086619476
 C   -1.6842488360   -1.3448475674   -1.3700569087
 H   -0.0642789439    1.6694900865    0.9291345604
 H    0.8772260520   -0.4549780378   -0.6343487960
 H    1.0026522176   -1.2434932014    2.0041486474
 H   -1.7241725079   -2.0999896595    1.5936106537
 H   -3.0762304919    0.7519923537    0.4363734444
 H   -2.0923461958    1.3602520858   -0.9111746151
 H   -3.8539212818   -1.1692706686   -0.9693354104
 H   -3.3716389618   -0.2147391117   -2.3810710811
 H   -1.0467648989   -1.1110427937   -2.2282289563
 H   -1.7190793783   -2.4321322819   -1.2547306419