18

 C   -0.3017447050    1.2295682808   -0.6025183297
 O   -0.4623330479   -0.1690886481   -0.5590989305
 C   -0.8869086919   -0.6391886882    0.6993181074
 C   -1.0157051722   -2.1635040628    0.6472654106
 O   -1.3308150293   -2.6631484864    1.9345038410
 C   -2.0274432084   -2.6012248402   -0.4302899626
 C   -2.1326902990   -4.0461353781   -0.5760124556
 C   -2.2107413245   -5.2390129180   -0.6978612592
 H    0.0299443634    1.4899432057   -1.6103506686
 H   -1.2464945129    1.7547615726   -0.3909349688
 H    0.4522354442    1.5747759788    0.1217305778
 H   -0.1681764334   -0.3715744969    1.4894557456
 H   -1.8607663091   -0.1922436018    0.9756908420
 H   -0.0368530006   -2.5873945715    0.4009824064
 H   -2.2516037411   -2.4509129506    2.1235260600
 H   -3.0122710909   -2.1777173850   -0.1796407550
 H   -1.7317808441   -2.1394216574   -1.3786500574
 H   -2.2801166772   -6.2929220931   -0.8049060332