18

 C    0.0820855977    1.5331102584    0.1157173930
 C   -0.0666953650    0.0117003600   -0.0430441372
 C    0.6947613382   -0.5281349570   -1.2138881118
 C    1.7430354771   -1.4092615881   -1.2258294077
 N    2.0824391345   -1.5637047382   -2.5561284282
 C    1.2379118354   -0.7797471774   -3.2902935027
 C    1.2955722905   -0.6850936156   -4.7787662193
 N    0.3925102091   -0.1450982009   -2.5076326031
 H    1.1255923152    1.8070017727    0.3026837077
 H   -0.2389643622    2.0416284914   -0.7972850899
 H   -0.5228714194    1.9031620306    0.9497271979
 H    0.2681835649   -0.4959921007    0.8688365916
 H   -1.1300863622   -0.2308793659   -0.1639911766
 H    2.2653050816   -1.9290057438   -0.4394942875
 H    2.8160307584   -2.1502620349   -2.9162199048
 H    1.1244735146   -1.6559056516   -5.2586074204
 H    0.5194890752    0.0045488646   -5.1126392676
 H    2.2645709765   -0.3101385737   -5.1285959934