23

 C   -0.1890911485    1.4234851072    0.1429026528
 C    0.0378142259   -0.0872359959   -0.0219386004
 C    0.7634460479   -0.4411595411   -1.3334117950
 C   -0.0346218449   -0.1029907265   -2.6105685703
 C    0.6449491519   -0.5303059760   -3.8276684937
 C    1.2267526519   -0.8912859738   -4.8158312583
 C    0.8029471459   -0.6441238758    1.1673433002
 C    0.0862789136   -0.9900235873    2.4472232307
 C    0.6496684456   -2.0870067520    1.5748179324
 H    0.7656016982    1.9628987841    0.1357051467
 H   -0.8121931785    1.8389607885   -0.6547304885
 H   -0.6838119742    1.6370314416    1.0952457347
 H   -0.9461141225   -0.5808978198   -0.0389668055
 H    1.7302591864    0.0766208770   -1.3709587905
 H    0.9876937949   -1.5131206263   -1.3387427725
 H   -1.0227320268   -0.5802943848   -2.5585736029
 H   -0.2223873758    0.9759312520   -2.6659330648
 H    1.7311314496   -1.2059748231   -5.6952410864
 H    1.8001264401   -0.2233807809    1.2835457907
 H    0.5748432661   -0.7787077679    3.3920400639
 H   -0.9922493277   -0.8689728936    2.4701281766
 H   -0.0535201860   -2.6973899447    1.0168502518
 H    1.5237811669   -2.6262557710    1.9226766083