19

 C   -0.1506206993    1.4798708696   -0.4220841503
 N   -0.0816857511    0.0249348129   -0.4308272424
 C   -1.0227367662   -0.6287915151    0.0716519994
 C   -1.3177587990   -2.0985797689    0.2528018888
 C   -2.6249017188   -1.5977603384    0.9244640928
 C   -3.9108872998   -1.8851165335    0.1690343476
 C   -2.7386233422   -1.8431377505    2.4190756304
 O   -2.1945005773   -0.2021602571    0.6741690159
 H    0.7225005518    1.8771969860    0.1077132207
 H   -0.0910861064    1.8480360121   -1.4525264202
 H   -1.0573052232    1.8844272223    0.0431336768
 H   -1.4469074381   -2.6596821871   -0.6747132416
 H   -0.6232663819   -2.6301598918    0.9061803361
 H   -4.1867552641   -2.9397430974    0.2727518230
 H   -4.7313841189   -1.2767492127    0.5619228450
 H   -3.7954666724   -1.6602462855   -0.8948150236
 H   -1.8043422731   -1.5887549230    2.9270835673
 H   -3.5402133983   -1.2342523748    2.8484929024
 H   -2.9653817918   -2.8960597372    2.6166457020