17

 O    0.1071369907    1.2961138531    0.2245439113
 C   -0.0299804416   -0.0116947007   -0.3028104748
 C   -1.4369725531   -0.5328906385   -0.0993977058
 C   -2.6207344258    0.2727331707   -0.6696062969
 N   -3.7730123195   -0.4152404127   -0.0370748266
 C   -3.2520113046   -1.0805794612    0.9151915739
 C   -3.0159833936   -2.5670226846    0.7562532267
 C   -1.5904779682   -1.9836826131    0.4239694202
 N   -1.8246141040   -0.7925752569    1.2951033187
 H   -0.1619127867    1.2453190152    1.1497541924
 H    0.1939767513    0.0596379732   -1.3726315948
 H    0.7001404144   -0.7026661614    0.1434153205
 H   -2.4966449354    1.3328670473   -0.4145945597
 H   -2.7516741784    0.1973281485   -1.7538501594
 H   -2.9271725094   -3.1716951723    1.6627008669
 H   -3.6175698792   -3.0552399369   -0.0085761094
 H   -0.6957522568   -2.5869056998    0.5698965067