16

 C   -0.0357219337    1.5747745975   -0.0630857833
 C    1.5317911416    1.3675125189   -0.0076711079
 C    1.1906869039    0.1671761992    0.9649266065
 C   -0.0536237786   -0.0028224384    0.0073809371
 C    0.6797306306   -0.3163426046   -1.2968855646
 C    1.6912949072    0.5707793650   -1.2888403252
 O    2.4402132222    0.4108217526   -2.4016615537
 C    1.7926523765   -0.6240816405   -3.0457284341
 N    0.7419348219   -1.0935858003   -2.4359550600
 H   -0.4263303287    2.0468234416    0.8440408922
 H   -0.4496024534    2.0457340562   -0.9572495866
 H    2.2245069391    2.1631982857    0.2554256561
 H    1.9052601902   -0.6570413300    1.0166731036
 H    0.9140046532    0.5084849391    1.9675430591
 H   -0.9393765491   -0.5627111309    0.2974346868
 H    2.2215571770   -0.9355990111   -3.9838557061