18

 C    0.1327903196    1.6252181745    0.1059671551
 C    0.1062597308    0.0961135928    0.0587584820
 C    0.7411903695   -0.4901399798   -1.2265712636
 O    2.0783921321   -0.0415644980   -1.2682091133
 C    2.8101727526   -0.3941303612   -2.4382223731
 C    0.7112527627   -2.0274333348   -1.0725156173
 O   -0.1311381525   -2.7541802330   -1.5142636343
 C   -0.0243953311   -0.0689466000   -2.4185496921
 N   -0.5969195558    0.2864964630   -3.3565967000
 H    1.1567750877    1.9979093296    0.0390023807
 H   -0.4456427732    2.0552154146   -0.7168077604
 H   -0.3027436523    1.9753602204    1.0457860643
 H    0.6667038468   -0.3194407537    0.9040989963
 H   -0.9191776270   -0.2809578792    0.1257634772
 H    2.8433246651   -1.4819669566   -2.5893658764
 H    2.3831739896    0.0735124857   -3.3331960387
 H    3.8253543386   -0.0257368034   -2.2835879319
 H    1.5608707567   -2.3846482309   -0.4486962045