19

 C   -0.1094869664    1.5101218994    0.0266444243
 C    0.0721511073    0.0202231963    0.0338810998
 C    0.9779231110   -0.7765561457   -0.9424066120
 C    0.6779243861   -1.9130758376    0.0852463385
 C    0.7234837587   -0.8036477054    1.1793181930
 C   -0.8599912668   -2.0251406429   -0.0880098377
 O   -1.2111062806   -0.6434674355   -0.1246343722
 C   -1.2587267371   -2.7844297775   -1.3375643996
 O   -1.5575292982   -2.2892521881   -2.3917030120
 H    0.8533675535    2.0143817602    0.1464221461
 H   -0.5584935387    1.8338224599   -0.9170900751
 H   -0.7698212792    1.8207479176    0.8421291812
 H    0.6214762479   -0.8878920435   -1.9674958905
 H    2.0224206084   -0.4620128095   -0.9145242363
 H    1.2524928987   -2.8360710601    0.1460185874
 H    1.7427841473   -0.4893748458    1.4111733126
 H    0.1381117564   -0.9458639122    2.0914515973
 H   -1.3278625791   -2.5246825124    0.7743667713
 H   -1.2284031993   -3.8923983972   -1.2021885661