20

 C    0.1756117150    1.3499479451    0.0710293087
 N    0.0056370978   -0.0854117189    0.2480571116
 C   -1.1109268483   -0.5950587072   -0.0573471540
 C   -1.3545861050   -2.0770148919    0.1150226980
 C   -2.2859154801   -2.6467434804   -0.9292088823
 C   -2.0939645011   -4.0789752912   -1.3311132562
 C   -3.2375187799   -1.8521256873   -1.4138019147
 C   -3.3659634146   -0.4322423844   -0.9515005688
 O   -2.1277636563    0.1665359813   -0.5469728439
 H    1.2005600929    1.6228885252    0.3344830683
 H   -0.0136425129    1.6640696325   -0.9639487479
 H   -0.5090952426    1.9256454754    0.7081527012
 H   -0.3799967605   -2.5692068068    0.1155585776
 H   -1.7843710067   -2.2508963350    1.1142191394
 H   -2.1501337277   -4.7424059621   -0.4585631668
 H   -2.8476503581   -4.4006957635   -2.0545651893
 H   -1.1019733428   -4.2324831850   -1.7741531337
 H   -3.9610057201   -2.2030267683   -2.1438659474
 H   -3.7471790589    0.2089310246   -1.7527871053
 H   -4.0772195902   -0.3524400622   -0.1140873446