15

 C   -0.1010429552    1.6237867384    0.3771079301
 C   -0.0537479406    0.1120790979    0.0381702649
 C    0.8110002212   -0.6097953036    0.9879898711
 N    1.4998977371   -1.1601220311    1.7338299228
 C   -1.3909023957   -0.4808334595   -0.0027411420
 C   -2.5026210727   -0.9405703802   -0.0464475227
 C   -3.8682141597   -1.4470009758   -0.1497988633
 N   -4.1075963713   -2.5377823359    0.6298870323
 O   -4.7000003696   -0.9303175291   -0.8690061507
 H    0.9086910304    2.0400059863    0.3660831851
 H   -0.7132641096    2.1401199243   -0.3646959004
 H   -0.5380942958    1.7788353582    1.3652143502
 H    0.4017176367   -0.0024826673   -0.9552124826
 H   -3.3947361077   -2.9398254971    1.2132731872
 H   -5.0281390475   -2.9454009754    0.6127657980