10

 N    0.0216362286   -1.1256635018   -0.0031260153
 C    0.0015969204    0.0294319211    0.0028731088
 C   -0.0321721460    1.4720351388    0.0103176454
 N   -1.2390670050    2.0538813458    0.0299323393
 C   -1.2049872193    3.3774982365    0.0372189060
 C    0.0148528484    4.0570491339    0.0250787810
 N    1.1767978802    3.4066223368    0.0061031826
 N    1.1599403699    2.0804197608   -0.0013902620
 H   -2.1550480579    3.9050521276    0.0527514720
 H    0.0730624209    5.1403074005    0.0305500121