21

 C    0.0621480708    1.4749679051    0.2550207194
 C   -0.1027433951   -0.0246807470   -0.0104635434
 C    0.6392884491   -0.5001549316   -1.2536353586
 C    2.1936662372   -0.5257548669   -1.2277575161
 C    2.1691981670   -1.9117076235   -1.9560668800
 O    3.0230115498   -2.8976319849   -1.4720503586
 C    0.6563605877   -2.0206756546   -1.5662917280
 C    2.3472202603   -1.7575160081   -3.4446827916
 O    3.1346409360   -2.4278936602   -4.0703566357
 H    1.1158003690    1.7402921581    0.3940201372
 H   -0.3210830958    2.0696196192   -0.5817697708
 H   -0.4785694634    1.7808883267    1.1556849671
 H    0.2557517543   -0.5955814156    0.8563779987
 H   -1.1689344542   -0.2655641139   -0.1153503740
 H    0.2845895134    0.0640395397   -2.1247303502
 H    2.7442204099    0.2934592577   -1.6979282526
 H    2.5824665964   -0.6824894047   -0.2174819630
 H    3.5095837089   -3.2315208880   -2.2431058162
 H    0.5833102231   -2.6253522760   -0.6581383541
 H   -0.0430615603   -2.4104932297   -2.3109667114
 H    1.7148030659   -0.9927332320   -3.9405376779