18

 C   -0.4008992711    1.5518036914   -0.3892289184
 C   -0.0258204964    0.1094373673   -0.0963272522
 C    1.2763721673   -0.4531091572   -0.8030703905
 C    1.8766558579   -0.4775242602    0.5956125939
 N    2.9241499718   -0.5712044140    1.3134628966
 C    2.4107210182   -0.2017625322    2.6605441363
 C    0.9187041174    0.2362953551    2.5095044062
 N    0.0777881073    0.7584996252    3.3044509824
 N    0.6907406819   -0.1097741011    1.1873833875
 H    0.4759430947    2.2047103749   -0.3348580026
 H   -0.8328904300    1.6324092744   -1.3918030354
 H   -1.1383922195    1.9087677754    0.3348447844
 H   -0.8958229679   -0.5469058126   -0.1893670213
 H    1.1577533098   -1.4304681532   -1.2740615757
 H    1.7582477840    0.2340330428   -1.5008776031
 H    2.4830610817   -1.0558766492    3.3443210300
 H    3.0128667283    0.6088261747    3.0844598118
 H    0.5017555248    0.9169100585    4.2180569902