19

 C   -0.1193447920    1.5632046495   -0.0541109716
 C   -0.1750178696    0.0477888650   -0.1322224496
 O    0.7934948874   -0.3808328397   -1.0798659199
 C    0.8734161553   -1.7850833645   -1.2418483706
 C   -0.3487998457   -2.3584972485   -1.8236196929
 C   -1.3432255689   -2.8187825960   -2.3172327871
 C    2.0759318491   -2.0446892498   -2.1352556379
 C    3.4083414420   -2.2306340418   -1.5576620846
 O    2.6489636761   -3.3429455070   -2.0429289439
 H    0.8758192383    1.8987736206    0.2512010010
 H   -0.3468433228    2.0055975994   -1.0280038971
 H   -0.8489847480    1.9312834792    0.6733168007
 H    0.0427619474   -0.4025474365    0.8505225906
 H   -1.1757713457   -0.2921387269   -0.4340195101
 H    1.0630736023   -2.2748927260   -0.2717548874
 H   -2.2202643344   -3.2345005856   -2.7488874213
 H    1.9817943140   -1.6468429236   -3.1447871876
 H    4.2893707537   -1.9735966452   -2.1427373588
 H    3.5356028315   -2.1871349026   -0.4769660119