15

 O    0.1446829050    1.5453709889    0.3135587100
 C   -0.0319992592    0.1741460832    0.0585412765
 C   -1.4994411230   -0.1917809911   -0.2102325964
 C   -1.3537739443   -1.3659773349   -1.1865433082
 O   -0.1537459783   -1.0902414747   -1.9486123740
 C    0.6135984928   -0.1943720580   -1.3030999542
 O    1.6239602055    0.2790559822   -1.7361541767
 C    0.5617512291   -0.6765501187    1.0985182933
 C    1.0487083847   -1.3836386521    1.9397118250
 H    1.0298601068    1.7656898805   -0.0124378693
 H   -2.0574613035   -0.4528097693    0.6888113862
 H   -1.9731368789    0.6657615948   -0.6958076269
 H   -1.2201543644   -2.3203583938   -0.6680674199
 H   -2.1765210890   -1.4532161405   -1.8971984227
 H    1.4887771669   -1.9963100965    2.6880451372