20

 C   -0.0088899637    1.4373071859   -0.1938793796
 O   -0.0411026047    0.0341372143   -0.0759601732
 C    0.7236181955   -0.4458241154    1.0005282795
 C    0.5927661177   -1.9576479870    1.0838758875
 C    0.8636596577   -2.6633250940   -0.2306437276
 C    1.2323939187   -2.5686775135    2.3553647367
 C   -0.1960199619   -2.8852946944    2.7391139621
 N   -0.7401346649   -3.4446634843    3.7213452787
 O   -0.7440983902   -2.3320695344    1.6045974171
 H    1.0139360977    1.8090354748   -0.3647358672
 H   -0.6309980150    1.7060990225   -1.0504729087
 H   -0.4082869900    1.9303863764    0.7058199769
 H    1.7912487124   -0.1900011299    0.8717363976
 H    0.3890580569    0.0005167627    1.9514403250
 H    1.8884279917   -2.4650107186   -0.5621341902
 H    0.7371013866   -3.7431878932   -0.1174920324
 H    0.1783632332   -2.3008253664   -0.9988751621
 H    1.8705105138   -3.4384055702    2.1908176353
 H    1.7382622835   -1.8666066142    3.0220637569
 H   -1.7559481951   -3.4675944913    3.6133826576