13

 C    0.0689259720    1.4572726502    0.0427125308
 N    0.0110265769   -0.0075380875    0.0071622404
 C   -0.0782616742   -0.6491409578   -1.2129873613
 O   -0.1149144665   -0.1016636227   -2.2769455088
 O   -0.1269320746   -2.0183037634   -1.1567498510
 N   -0.0902970193   -2.7441744846    0.0999962403
 N   -0.0097922819   -2.1159307997    1.1432350615
 C    0.0520194107   -0.6915939681    1.2095114350
 N    0.1385999525   -0.0849353660    2.3198138946
 H    0.9969876675    1.7740560976    0.5233402815
 H    0.0215584956    1.8150089820   -0.9823934662
 H   -0.7690591847    1.8407005481    0.6286408216
 H    0.1529609960   -0.7640242281    3.0790672417