13

 C   -0.0131949271    1.3558195374    0.0097708702
 N    1.2114523513    1.8353854330    0.0009556361
 C    2.0681348474    0.7692471421   -0.0133874210
 C    1.3589747612   -0.4129224464   -0.0135463881
 N    1.6768437121   -1.7255598243   -0.0242051693
 C    0.6776036256   -2.5616431026   -0.0195868327
 N   -0.6665319911   -2.2439261498   -0.0049786589
 C   -0.9655549477   -0.9868512422    0.0051817977
 N   -0.0061740992   -0.0141458117    0.0017392923
 H   -0.9271507771    1.9296875909    0.0217848484
 H    3.1388735566    0.8928341349   -0.0228275264
 H    0.9011544667   -3.6236673308   -0.0278871005
 H   -2.0015547586   -0.6569998205    0.0169257221