22

 C    0.0202372091    1.5701512368   -0.0849719669
 C   -0.0140129610    0.0389842941   -0.0355888603
 C   -1.4211014792   -0.5471196369    0.0892362786
 C   -1.4752778434   -2.0881464391    0.0987904670
 C   -2.8575224811   -2.4149511235    0.6835437976
 N   -3.1574033091   -1.2481884748    1.5199336238
 C   -2.1554645939   -0.1923034873    1.3961500143
 C   -4.2955302797   -1.1661946077    2.2470495327
 O   -5.1372623070   -2.0411596867    2.3131423213
 H    1.0438509128    1.9371488780   -0.2055407363
 H   -0.5710274795    1.9527215661   -0.9243055768
 H   -0.3816514289    2.0129761889    0.8324563335
 H    0.4542505867   -0.3641306146   -0.9421648573
 H    0.5957255770   -0.3175526180    0.8058267123
 H   -2.0336767525   -0.1856669029   -0.7485670207
 H   -1.3273333946   -2.5249017365   -0.8917615682
 H   -0.6853856077   -2.4775775691    0.7524315951
 H   -3.6234275605   -2.5218428598   -0.0940375691
 H   -2.8743538098   -3.3323207597    1.2786917617
 H   -1.4493210406   -0.2069861100    2.2411421254
 H   -2.6281160209    0.7936099263    1.3738086794
 H   -4.3827718663   -0.1999061035    2.7848861231