12

 O   -0.0640873060    0.1913451296    0.6950674597
 C   -0.0464587572    1.2305336644    0.1104088964
 O   -1.1786312911    1.7728298826   -0.3932644703
 C   -1.0661667993    3.0217467710   -1.0902877685
 C   -0.1070172620    3.9302709514   -0.3619841533
 O    1.1998212111    3.3388380048   -0.3361927888
 C    1.2827837521    2.0087868762   -0.1045268112
 O    2.3363539256    1.4517977445   -0.0620772098
 H   -0.7281624427    2.8426571505   -2.1180132149
 H   -2.0725841128    3.4447125442   -1.1181798323
 H    0.0037780945    4.8873311875   -0.8760987925
 H   -0.4493058021    4.1159492532    0.6631508756