17

 C    0.6834362633    0.3359847589   -0.8504992865
 C   -0.3957243890    0.7132932265    0.1350142103
 O   -0.3542408659    1.7004148839    0.8342907453
 C   -1.6019491582   -0.2147065734    0.2380248512
 O   -1.4302889717   -1.5118373294   -0.3757295823
 C   -1.7429188127   -2.2132880733    0.8534049362
 C   -1.8597331243   -0.8842748988    1.5932937518
 C   -1.5343690522   -0.4637542386    2.9521316429
 O   -2.8936960823   -0.5393815956    2.4738403810
 H    1.4675731630    1.0935921374   -0.8476761435
 H    1.0950215492   -0.6455088937   -0.5949574811
 H    0.2572466482    0.2307955004   -1.8544599487
 H   -2.4836819719    0.3154127802   -0.1491978996
 H   -2.6855662272   -2.7686070192    0.7850428176
 H   -0.9352221420   -2.8877468114    1.1598843807
 H   -1.2648577779   -1.2102660677    3.6975459993
 H   -1.1576325484    0.5424012138    3.1166463054