17

 N    0.0587556968    0.2010779652    1.2720141735
 C   -0.0495412415   -0.1106208943    0.0498973854
 O    0.9830556983   -0.1496157131   -0.8626220180
 C    1.6641047093   -1.4005463968   -0.8932095792
 C    0.8201187044   -2.5944804697   -1.2317854337
 C   -0.5020049561   -2.6728057280   -1.3926689012
 C   -1.5096947188   -1.5882543279   -1.2910280255
 C   -2.2177266116   -1.2916194094    0.0100355274
 N   -1.2721334457   -0.3572420968   -0.5610696592
 H    1.0289544819    0.4300860363    1.4842185929
 H    2.4565004800   -1.2839930284   -1.6413090722
 H    2.1631945076   -1.5743296759    0.0746935826
 H    1.4034371732   -3.5070507583   -1.3453001268
 H   -0.9234830388   -3.6379875177   -1.6685444477
 H   -2.0978551918   -1.4465144902   -2.1981652195
 H   -3.2594299150   -0.9845130118   -0.0009059128
 H   -1.8936347722   -1.8308914632    0.8957093039