21

 C    0.0873809878    1.4710502376    0.1901071352
 C   -0.0365864793   -0.0412950585    0.0396913838
 C   -1.5042358743   -0.4858294670    0.0960254405
 C    0.7340699350   -0.7090035160   -1.1794516849
 C    1.2127328073   -1.8478359679   -0.2082347802
 O    2.5671969793   -2.2229862290   -0.0496777208
 C    2.9753109836   -1.8131683212    1.2704310795
 C    1.9405026397   -0.7884419560    1.7157946466
 C    0.9035400097   -0.8866314530    0.8924835404
 H    1.1338705368    1.7866765953    0.1511861521
 H   -0.4565199510    1.9857233729   -0.6101396230
 H   -0.3333876083    1.8066913696    1.1448139815
 H   -2.0746204395   -0.0197137565   -0.7149116997
 H   -1.6079670792   -1.5704586791   -0.0003785069
 H   -1.9637849073   -0.1892779330    1.0447711910
 H    0.1254914666   -1.0055504102   -2.0382182208
 H    1.5773694954   -0.0954206595   -1.5025950450
 H    0.5779281050   -2.7403789489   -0.2935764099
 H    3.0442376709   -2.6923966873    1.9317484291
 H    3.9786176871   -1.3715651606    1.2075391828
 H    2.1414568148   -0.0393336918    2.4712749688