21

 O    0.1724167184    1.4332120960    0.0142184356
 C    0.0677644687    0.0278460422    0.0172446860
 C    0.2205443393   -0.6168490369    1.4423326640
 C   -1.2945261407   -0.6143719893    1.4911842300
 C   -2.2501100645   -0.2937242951    2.3543124304
 C   -3.6522029642    0.0007320584    1.8685036328
 C   -3.8317867547   -0.1940581739    0.3462290312
 C   -2.6129761836    0.2757240271   -0.4756378652
 C   -1.4051034777   -0.5303856582   -0.0172978071
 H   -0.3594177722    1.7695889544    0.7454487922
 H    0.7444793602   -0.3249768490   -0.7639356829
 H    0.6482932901   -1.6241202150    1.3852449541
 H    0.7758683228   -0.0357009189    2.1841386610
 H   -2.0440992305   -0.1744256226    3.4162562703
 H   -4.3825734395   -0.6188700954    2.4055663931
 H   -3.9008581082    1.0369772841    2.1435060993
 H   -3.9963217659   -1.2592909655    0.1397069597
 H   -4.7374774992    0.3275289426    0.0191569780
 H   -2.8065216639    0.1568444374   -1.5469282250
 H   -2.4287242872    1.3435833277   -0.3046894350
 H   -1.3949273473   -1.5253797800   -0.4817021125