21

 C    0.4815034879    1.4671635651   -0.3040027136
 C    0.0539022232    0.0621052642    0.0722516018
 O    0.5673922619   -0.9156943654   -0.8629504975
 C    1.2832354453   -1.6221638989    0.1676911301
 C    2.7892624981   -1.5897662680   -0.0550734574
 O    3.3696197448   -0.3600516429    0.3425828996
 C    3.2184845502   -0.1718488201    1.7391481417
 C    1.7573946250    0.1069803715    2.1349277253
 C    0.7416426169   -0.6652752147    1.2696222979
 H    1.5710893920    1.5374466617   -0.3565278112
 H    0.0726469284    1.7164750172   -1.2883819527
 H    0.1032475739    2.2035651948    0.4138440359
 H   -1.0425572870    0.0052378065    0.1185946153
 H    0.9410035882   -2.6632237911    0.2420943321
 H    3.2664521027   -2.4208350193    0.4932083630
 H    2.9946141721   -1.7118957673   -1.1227577821
 H    3.5917588034   -1.0652928179    2.2677977111
 H    3.8626840789    0.6681034104    2.0134292090
 H    1.6269054870   -0.1438560754    3.1928993578
 H    1.5587905074    1.1794379676    2.0495666778
 H    0.0022972095   -1.1557976383    1.9042923061