19

 C   -0.8006231896    0.8572178132    0.2304811697
 N    0.5158604394    0.2432280436    0.1098506409
 C    0.8646470102   -0.3898532378   -1.1531114742
 C    0.2774980496    0.2475658405   -2.4371674509
 C    2.3874805902   -0.3198257494   -1.3149487161
 O    3.0991632831    0.3687551761   -0.6298624094
 C    0.5268979233   -1.9111829400   -1.1648836665
 N    0.2245365207   -2.4098970893    0.0542832463
 O    0.5801890585   -2.5612676156   -2.1930740309
 H   -0.9958385983    1.6751873333   -0.4791875875
 H   -1.5808091293    0.1007182879    0.0926858073
 H   -0.9058299746    1.2575262675    1.2429025443
 H    1.2606947485    0.8854877157    0.3619529532
 H    0.5975103479    1.2894678488   -2.5305572978
 H    0.6067049865   -0.3156351266   -3.3110470632
 H   -0.8144698899    0.2159335272   -2.4165904789
 H    2.7805501456   -0.9432493970   -2.1413845875
 H    0.2840715314   -1.7879305978    0.8465285575
 H    0.0741253367   -3.3990103704    0.1586325936