27

 C   -0.0790459131    1.5566045059   -0.0592222374
 C    0.0670727730    0.0311982207   -0.0106902264
 C    0.6719278669   -0.5229372202   -1.3121948676
 C    0.7298499397   -2.0567964943   -1.3083546730
 C    1.4452112950   -2.5932816154   -0.0607428163
 C    0.8370579775   -2.0302885850    1.2354118898
 C    1.4898069944   -2.6436627542    2.4797027616
 C    0.8357473190   -0.4776349514    1.2386985011
 C    2.2376391723    0.1382886361    1.3914056104
 H    0.8771232130    2.0526368899   -0.2564054673
 H   -0.7687512479    1.8537977580   -0.8565544148
 H   -0.4713988321    1.9517299759    0.8846660639
 H   -0.9477782687   -0.3873988937    0.0714693328
 H    0.0825686267   -0.1711086684   -2.1678131208
 H    1.6819937592   -0.1145077847   -1.4524007148
 H   -0.2950089620   -2.4533628738   -1.3311476373
 H    1.2219385260   -2.4223127676   -2.2171102760
 H    1.3964862374   -3.6889378571   -0.0414023045
 H    2.5128180022   -2.3389127727   -0.1078363101
 H   -0.2220726012   -2.3303354513    1.2459195924
 H    2.5740829722   -2.4905916233    2.4898568341
 H    1.0831013877   -2.2101808850    3.4003950611
 H    1.3147791641   -3.7243381211    2.5152330996
 H    0.2567188433   -0.1618038286    2.1189829443
 H    2.9028232923   -0.1155682921    0.5605297720
 H    2.1835647861    1.2290856209    1.4450862940
 H    2.7189002571   -0.2042161477    2.3115804790