19

 C    0.0318353158    1.5012160838   -0.1105694777
 C    0.0245414565    0.0071950198    0.0506975855
 O    0.4266082353   -0.6177501296   -1.1737582441
 C    0.3483847013   -2.0082870072   -0.8715068069
 C   -0.1063411425   -1.9508887105    0.5849898264
 O   -0.3737204773   -3.1384513431    1.2565132158
 C    0.6626599798   -0.7495108805    1.2572912314
 C   -0.6050611766   -0.4682593708    2.0980115380
 C   -1.1534285224   -0.8017613680    0.6892046092
 H    1.0348836129    1.8460514005   -0.3795615968
 H   -0.6514195017    1.7965335683   -0.9126335859
 H   -0.2733578549    2.0062981427    0.8086998916
 H   -0.3787524133   -2.5127349423   -1.5201784665
 H    1.3287999656   -2.4889585568   -0.9990602890
 H    0.4450412051   -3.6407935222    1.3289745167
 H    1.7091201031   -0.7291832969    1.5686236826
 H   -0.8295509816   -1.2040358467    2.8705743111
 H   -0.7486704329    0.5498629449    2.4661742022
 H   -2.1899636320   -0.8408668253    0.3510119264