22

 C   -0.3719654424    1.4590418093    0.2385389788
 C    0.2321746637    0.0892501898   -0.0906306521
 C    0.9220082246   -0.5466095410    1.0988355204
 C    0.1133467254   -1.2948921275    2.1484297624
 C    1.0627700354   -2.0364851101    1.2334814265
 O    0.4953666338   -2.7838235078    0.1835598122
 C    2.3447405258   -2.6283465521    1.7901079124
 C    2.1532233695   -4.0200983294    2.4042468090
 H    0.3970281720    2.1618875385    0.5784696004
 H   -0.8588734531    1.8978819482   -0.6381863492
 H   -1.1196236255    1.3791074484    1.0348910364
 H   -0.5433304826   -0.5896825603   -0.4569822801
 H    0.9536817981    0.1949390371   -0.9112257735
 H    1.7630526580    0.0267694034    1.4848485639
 H    0.3677042057   -1.1811309456    3.1973626214
 H   -0.9474231041   -1.4142356928    1.9495744779
 H    0.0530338368   -3.5465314641    0.5698816207
 H    3.0828664700   -2.6830461173    0.9800830725
 H    2.7514911716   -1.9442701936    2.5439933798
 H    1.4303399188   -3.9957277467    3.2272824905
 H    1.7919830756   -4.7335977936    1.6557723524
 H    3.0959549529   -4.4113945728    2.7976457973