19

 O    0.0152423723    1.4271711948    0.1534970754
 C   -0.0524502938    0.0398098213   -0.0161433408
 C   -1.3758662531   -0.7065700083   -0.0334335287
 C   -2.7129464789   -0.0622141224   -0.3293253145
 C   -2.8418639862    1.4192152712   -0.6079818627
 C   -2.6847762984    0.4560068298   -1.7566897262
 C   -1.2951464545    0.1697711916   -2.3356127330
 C   -0.5129512978   -0.6364506439   -1.2812807481
 O    0.1706542103   -1.7793014317   -1.7150467776
 H    0.7713682647    1.7511423934   -0.3476964648
 H    0.7356826302   -0.5085447969    0.5043238193
 H   -1.3920402637   -1.6158321842    0.5571047499
 H   -3.5809433711   -0.5839004889    0.0573060707
 H   -3.8317547064    1.8437712068   -0.4725403615
 H   -2.0250660359    2.0738319005   -0.3439747009
 H   -3.5338661030    0.3120824784   -2.4159768056
 H   -1.3796257681   -0.4673544298   -3.2206903702
 H   -0.7710978744    1.0843192128   -2.6398302072
 H    1.0241851479   -1.5067058747   -2.0694705936