22

 C   -0.0361423591    1.3998124966    0.0488901696
 O   -0.0065698585   -0.0062888276    0.0195115418
 C    0.6426092990   -0.5196707977   -1.1214824955
 C    0.6167965093   -2.0408619655   -1.0504751045
 C    1.3009144969   -2.7015433201   -2.2509490727
 C    1.2738763334   -4.2311383009   -2.1777778680
 C    1.9660839355   -4.8805870879   -3.3926304091
 C    1.9495381076   -6.3408888586   -3.3391811632
 N    1.9273502871   -7.4948098733   -3.2808296383
 H    0.9777972770    1.8311789778    0.0596417973
 H   -0.5746017896    1.8168582791   -0.8173671499
 H   -0.5553057970    1.6978913644    0.9629845757
 H    0.1403181232   -0.1690221754   -2.0409313642
 H    1.6842668531   -0.1545300762   -1.1690134209
 H    1.1033154317   -2.3549515311   -0.1193010192
 H   -0.4272733795   -2.3693251743   -0.9836219791
 H    0.8139048318   -2.3737059509   -3.1798416199
 H    2.3431225143   -2.3594363492   -2.3162373751
 H    1.7672417579   -4.5718378911   -1.2606549816
 H    0.2386532818   -4.5861175431   -2.1239803127
 H    1.4785729711   -4.5625575816   -4.3218869647
 H    3.0090074928   -4.5482808033   -3.4574836857