23

 C    2.8825492430    2.4957049755   -1.0869722154
 C    1.9911103871    1.3566092894   -0.9113816111
 C    1.2599071704    0.4105661852   -0.7590912150
 C    0.3102339232   -0.6903835542   -0.5845284644
 C   -1.1124696216   -0.2067021715   -0.9501309777
 C    0.6441411846   -1.9627145192   -1.3788690094
 C    1.6019890821   -1.9846006045   -2.5451831850
 C    1.9394697516   -2.7379229813   -1.2794956419
 C    3.0927452909   -2.3311189233   -0.3871160057
 H    3.8432220825    2.1891383039   -1.5154990615
 H    2.4460308925    3.2441229668   -1.7577957545
 H    3.0905993044    2.9901363146   -0.1315247046
 H    0.2993026888   -0.9575760673    0.4827034974
 H   -1.8469170477   -0.9907267508   -0.7395061039
 H   -1.3804850640    0.6832650140   -0.3750513001
 H   -1.1690645357    0.0422566066   -2.0138410499
 H   -0.2385769532   -2.5879160024   -1.4897635194
 H    1.3321395733   -2.5391146634   -3.4376440359
 H    2.1543714135   -1.0697673863   -2.7332174616
 H    1.8062491029   -3.8160301063   -1.3414689569
 H    3.2139058190   -1.2466665147   -0.3496913091
 H    2.9431034632   -2.6871790791    0.6390145482
 H    4.0321048493   -2.7631898917   -0.7506540526