21

 C   -0.1262475609    1.5113876843   -0.4004895090
 C   -0.0181334087    0.0198006796   -0.1568765635
 C    1.2609413711   -0.6525150848   -0.4440250760
 O    0.8939735989   -0.3320787037    0.8988788790
 C   -1.2884246260   -0.8186238287   -0.1655416320
 C   -2.4064559141   -0.3328527937    0.8030980845
 C   -3.5518625326    0.0585442054   -0.1426742205
 O   -3.4045704370   -0.7898554519   -1.2710567030
 C   -2.0145978166   -0.8585568046   -1.5403246031
 H    0.8594142647    1.9738121328   -0.3114678822
 H   -0.5214219431    1.7310470968   -1.3969419599
 H   -0.7857060482    1.9859666717    0.3330383131
 H    1.2739286546   -1.7153773712   -0.6842601705
 H    2.0929437022   -0.0794377018   -0.8520109956
 H   -0.9886978262   -1.8300905254    0.1182183408
 H   -2.7174099717   -1.1542438631    1.4527457378
 H   -2.0866014550    0.4897828417    1.4466576236
 H   -4.5492425943   -0.1051597502    0.2729497740
 H   -3.4715457422    1.1178273239   -0.4402396302
 H   -1.7041880394   -0.0124017797   -2.1740247926
 H   -1.8266378953   -1.7807102476   -2.0961475849