18

 C   -0.3316458078    1.4600484029   -0.1020762085
 N    0.0396861909    0.0512239952    0.0025400479
 C    1.3683657281   -0.4442811642   -0.3112860435
 C    2.5423902343    0.5173511975   -0.2719657933
 O    2.4480509956    1.2241428835    0.9636366011
 C    1.7403109554    0.4154141523    1.9097060534
 C    1.0611862127    1.2647790384    2.8834137667
 C    0.4990847434    1.9233239234    3.7160592181
 C    0.8325687211   -0.4980811176    1.0818951475
 H    0.4502744400    2.1700925153    0.1883474405
 H   -0.6245990065    1.6554653935   -1.1385752083
 H   -1.2060743908    1.6313434201    0.5317452777
 H    1.4301175367   -1.3085911284   -0.9678135118
 H    3.4843912814   -0.0499086858   -0.3378742273
 H    2.5375441791    1.2658497961   -1.0719616937
 H    2.4478187812   -0.2351319637    2.4535671219
 H    0.0021398962    2.5145453915    4.4451341063
 H    0.4597222289   -1.3976530202    1.5640228254