17

 C   -0.3622570022    1.6205240562    0.0204925878
 C    0.0592696618    0.1565701321   -0.0707497106
 C    0.8890605911   -0.2340573614   -1.3285028079
 C    2.0623241612   -0.4359056291   -0.3367852125
 O    1.2117165031   -0.1034301170    0.7909668707
 C    2.6443454116   -1.7646364885   -0.2569075105
 C    3.1362844912   -2.8601097630   -0.2075806553
 C   -1.0522288302   -0.7378309266    0.2348526361
 C   -1.9801243799   -1.4634310838    0.4737668833
 H    0.4841276983    2.2700089404   -0.2201532561
 H   -1.1810703956    1.8279764145   -0.6751632087
 H   -0.7020311467    1.8485216721    1.0341319569
 H    0.5584537493   -1.1427307888   -1.8275600729
 H    1.0257974271    0.5677763346   -2.0548926546
 H    2.8622062159    0.3082328940   -0.4410804432
 H    3.5667575605   -3.8296983814   -0.1559496570
 H   -2.7918567064   -2.1129324244    0.6916368544