17

 C   -0.1207394778    1.5102681437   -0.0166237930
 C   -0.0667652522    0.0091633414   -0.0265546879
 C   -0.0963638050   -0.7130994088   -1.1604056926
 C   -0.0425941845   -2.1591445005   -1.1345853583
 N   -0.0684745651   -2.8738387877   -2.1851393049
 O    0.0403786176   -2.7486208662    0.1177922075
 N    0.0723347342   -2.0203512860    1.3042665137
 C    0.0220840489   -0.7336485872    1.2313791718
 C    0.0615817418   -0.0232490513    2.5571354781
 H    0.7683453339    1.9391711049    0.4592785466
 H   -0.1848820933    1.9017692856   -1.0340487727
 H   -0.9877058599    1.8754413746    0.5454564607
 H   -0.1611653899   -0.2595274218   -2.1425799610
 H   -0.0207609455   -3.8655972768   -1.9461502301
 H    0.1277253318   -0.7560817334    3.3618358909
 H    0.9238291807    0.6496660261    2.6184239797
 H   -0.8368159858    0.5858835634    2.7050504715