15

 C    0.3198572101    1.3854048350   -0.1783641063
 C    0.1355155694   -0.0902065331   -0.1402513262
 C   -0.0514170803   -0.9651372606   -1.1475527450
 C   -0.1309612191   -0.7299857722   -2.6003767249
 O   -0.0324959835    0.3554873267   -3.1303166119
 C   -0.1822820684   -2.3317489307   -0.5802976272
 O   -0.3571137123   -3.3752008107   -1.1418158189
 O   -0.0667374635   -2.2320039338    0.7855090807
 C    0.1332901729   -0.8708905876    1.1463991848
 H    1.2773196942    1.6605847096    0.2813662912
 H    0.2897625458    1.7544151981   -1.2022693276
 H   -0.4608956687    1.8810296671    0.4120423238
 H   -0.2931710500   -1.6521044207   -3.1918794611
 H    1.0831961815   -0.7716069525    1.6879693089
 H   -0.6714639981   -0.5488084645    1.8202639195