15

 C   -0.1174120345    1.4411259162   -0.0433834646
 C   -0.1249487501   -0.0746964956    0.0282105645
 O   -0.6192729839   -0.6966560944    0.9489164649
 N    0.4648681251   -0.7098728724   -1.0364119426
 C    0.3749775989   -2.1363373741   -1.1725585354
 C    0.3125506945   -2.5331279895   -2.6277415019
 O    0.3765592753   -1.7575870083   -3.5491571851
 C    0.1933831445   -3.9830498271   -2.8662156518
 N    0.0970005987   -5.1216113770   -3.0419691413
 H   -1.0988949622    1.7862177901   -0.3845557399
 H    0.0441190882    1.8390313156    0.9595490534
 H    0.6443403532    1.8343627540   -0.7211394715
 H    0.7223014318   -0.1933128524   -1.8636263128
 H    1.2290718946   -2.6691207447   -0.7224675219
 H   -0.5102580543   -2.5069503704   -0.6388534838