16

 O    0.0349839223    1.4894665156   -0.2034688045
 C   -0.0146784389    0.0867387099    0.0126116273
 C    0.5276377620   -0.3067916113    1.4173668160
 O   -0.2276269638   -1.4483786806    1.8238524605
 C   -1.4153960102   -1.5058733388    1.1379768894
 N   -2.3007904468   -2.3846651307    1.3137526110
 C   -1.4816048893   -0.3626768755    0.1534678267
 C    0.6886324620   -0.6370031574   -1.0475987916
 C    1.2981374029   -1.2028107917   -1.9153890614
 H    0.8908131321    1.7031984013   -0.5898258729
 H    1.5859405879   -0.5735621920    1.4215939335
 H    0.3513915247    0.5328786396    2.1002469696
 H   -2.0201203399   -3.0338466077    2.0510105573
 H   -2.0458017891    0.4714394201    0.5846306802
 H   -1.9550856633   -0.6569077124   -0.7812316246
 H    1.8236130273   -1.7117778084   -2.6860386865