15

 O    0.0105852278    1.4395456848    0.0066246339
 C   -0.0004467871    0.0262276665    0.0019025681
 C   -1.4158844704   -0.4609346414    0.0124809500
 C   -2.5079802482    0.3463504031    0.0239399111
 C   -3.8133031222   -0.2278594340    0.0333308882
 N   -4.0309930406   -1.5132413126    0.0316691829
 N   -2.9376678939   -2.2884227740    0.0203040497
 C   -1.5960028690   -1.9077425103    0.0098448739
 O   -0.7017093694   -2.7409475964    0.0002390122
 H    0.9259339112    1.7316507972    0.0003587695
 H    0.5052117078   -0.3931013206   -0.8828200668
 H    0.5204693344   -0.3991921198    0.8747597408
 H   -2.3855472659    1.4231125079    0.0259697815
 H   -4.7002946187    0.3953361378    0.0425273476
 H   -3.1162110858   -3.2845006884    0.0191613872