14

 O    0.0398842846    1.3785874467   -0.1637069944
 C    0.0288860466   -0.0255669424   -0.0050443548
 C    0.6805153886   -0.4546845705    1.3030212647
 O    0.5022966213   -1.8567194579    1.5267428969
 C   -0.6349133574   -2.4988660180    1.1698660176
 O   -0.8082422993   -3.6404150078    1.4697284047
 O   -1.5526184747   -1.8314177763    0.4349908693
 C   -1.4264428513   -0.4510280383    0.0751334598
 H    0.9274651985    1.6546557821   -0.4122848084
 H    0.5167563141   -0.5391612649   -0.8462708961
 H    1.7616125534   -0.2904000775    1.3021007227
 H    0.2433190919    0.1173552109    2.1310896370
 H   -1.9418932865    0.1697436436    0.8180927752
 H   -1.9359976198   -0.3384485697   -0.8838025043