21

 C   -0.9166177287    1.4389299851    1.4656149251
 C   -0.6975283665    0.0962084632    0.8005121647
 C   -1.3901163868   -0.3212651805   -0.4611002229
 C   -2.3649342235    0.5486953621   -1.1922935141
 C   -2.8406750310    0.1284750133   -2.5655188609
 C   -3.7775876530    0.0490222704   -1.3893754854
 N    0.0575176305   -0.0826022131   -0.4442993331
 C    0.6209268670    1.0621430588   -1.1432862633
 H   -0.0152904722    1.7533883589    2.0036185017
 H   -1.1801280305    2.2353445009    0.7675299596
 H   -1.7266111453    1.3617294285    2.1988644584
 H   -0.4865214784   -0.6926586773    1.5239697516
 H   -1.6344969493   -1.3807111628   -0.5648855713
 H   -2.2687214432    1.6171594065   -1.0396137396
 H   -3.0077719354    0.8994549359   -3.3094615979
 H   -2.4526106070   -0.8015528360   -2.9677057902
 H   -4.0214984385   -0.9344749050   -1.0009469137
 H   -4.5885937944    0.7654322106   -1.3224072012
 H    0.0181112903    1.9811357471   -1.1301701617
 H    1.5975178118    1.2957510998   -0.7063933101
 H    0.7809292740    0.7870352336   -2.1907780057