16

 C    0.0134058158    1.3604750533   -0.0815989599
 O   -0.1209026507   -0.0437226834    0.0861441880
 C    0.6705230514   -0.6005309809    1.0899354717
 C    0.0906910537   -1.9686902562    1.4718700185
 N    0.9429425744   -2.6941831375    2.4020713748
 C    2.1771206389   -2.4611023450    2.3549362494
 O    2.8531285783   -1.6189031730    1.4918936310
 C    2.1319219700   -0.7680674917    0.6729222244
 O    2.6831551696   -0.2230705930   -0.2332218957
 H    1.0166609753    1.6301001657   -0.4250169098
 H   -0.7206714335    1.6538341910   -0.8346778292
 H   -0.2077483047    1.8917058370    0.8564783601
 H    0.6828421793    0.0346543897    1.9952118089
 H   -0.8968719868   -1.8299448564    1.9179118653
 H   -0.0527223064   -2.5694547427    0.5639728310
 H    2.8894311955   -2.9588338869    3.0063699114