23

 C   -1.9796161711    1.3592008619    2.0810318551
 C   -1.7358133578   -0.1239927868    2.1964882208
 O   -0.8143578346   -0.7199108209    1.2769753874
 C   -0.4862793305   -0.7439256566    2.6774639390
 C    0.7229862179    0.0212875351    3.0981406922
 C    1.2367465582   -0.0009788652    4.5295526767
 C    0.5490571901   -0.7637898743    5.6441107934
 C    2.0360780922   -0.6698013620    3.4330519160
 C    2.2295603248   -2.1689275472    3.3401675104
 H   -1.0502680700    1.9196839002    1.9658470996
 H   -2.6113014432    1.5700891268    1.2116050178
 H   -2.5018719070    1.7284536152    2.9705433844
 H   -2.6478494880   -0.7111625398    2.3332249823
 H   -0.5900517402   -1.7352053318    3.1180781683
 H    0.8244600535    0.9678169716    2.5779809801
 H    1.6384279135    0.9519669886    4.8662810109
 H    0.1579783663   -1.7318507973    5.3229952010
 H    1.2451128631   -0.9513561863    6.4692313993
 H   -0.2927395710   -0.1897621872    6.0469121084
 H    2.9153146604   -0.1159632316    3.1126046818
 H    1.3668705489   -2.7355051822    3.6978481640
 H    2.4122747643   -2.4730193053    2.3039834388
 H    3.0930821602   -2.4829255651    3.9369168624