21

 C    0.0177981835    1.5111985944   -0.0278967458
 C   -0.0301923488    0.0158033689    0.1074444770
 C   -1.1469350746   -0.7004712710    0.0976935254
 C   -2.5725497300   -0.6099509009   -0.3900562603
 O   -2.5012589498   -2.0120414329   -0.7808004912
 C   -1.2629430759   -2.1906152402   -0.0327072417
 C   -0.0367164118   -2.7802694315   -0.7070764943
 C    1.1613181749   -2.2744235256    0.1286895579
 C    1.2902081529   -0.7309607433    0.1511916742
 H    0.6238578292    1.8107089386   -0.8926661177
 H   -0.9807711185    1.9412538135   -0.1435109017
 H    0.4816546047    1.9744040324    0.8526379500
 H   -3.3426404727   -0.4505069703    0.3786877787
 H   -2.7739490244    0.0528050662   -1.2403791900
 H   -1.4778861901   -2.7270868898    0.9051760064
 H   -0.0526149896   -3.8744794986   -0.7377628913
 H    0.0212034232   -2.4110600174   -1.7371717591
 H    1.0421143930   -2.6424534286    1.1557950778
 H    2.0946380859   -2.7082810644   -0.2431814416
 H    1.8747564307   -0.3996586150   -0.7205881992
 H    1.8834482581   -0.4238600247    1.0234847264