20

 C   -0.0563059354    1.5356055731   -0.0396614849
 C    0.0034178708    0.0238763277    0.0219050326
 C    1.3376359168   -0.6947689128   -0.2073105133
 C    0.6909436777   -0.6853841954    1.1360180973
 C    1.1832904621   -0.2347123214    2.5278325338
 C   -0.2029692408   -0.7015667316    3.0702586352
 C    0.2557625408   -1.8200710717    2.0842951273
 C    1.6707513303   -1.7030359657    2.7299515351
 H    0.8396017805    1.9819024071    0.4046693816
 H   -0.1249016499    1.8899536439   -1.0744256400
 H   -0.9237217071    1.9264955615    0.5041814450
 H   -0.8658061122   -0.4779691278   -0.3997483389
 H    1.3336401964   -1.6106217806   -0.7909823428
 H    2.2132597290   -0.0714734781   -0.3683752612
 H    1.7200886880    0.6804465709    2.7814403372
 H   -0.2415647861   -0.9747548620    4.1287270919
 H   -1.0723684178   -0.1108069975    2.7723479061
 H   -0.2807703945   -2.7331453364    1.8214046335
 H    2.5167625344   -2.0270597007    2.1195909991
 H    1.7609708472   -2.0440608025    3.7653575351