14

 O   -0.0356001469    0.0092728783   -0.1409001673
 C   -0.0516487258    1.1831795865   -0.0504233424
 C   -1.0835267957    2.3711844277    0.0958827423
 C   -0.0190247513    2.9863381615    1.0539301593
 C    1.0235188514    2.3977811504    0.0452963030
 C    0.6031012656    3.0732863109   -1.2526165166
 C   -0.7407419901    3.0567990048   -1.2150530130
 C    2.4140034285    2.2219956532    0.3624684868
 N    3.5274132421    2.0616395195    0.6303024377
 H   -2.1205618298    2.2170242777    0.3792403941
 H   -0.0213318766    4.0758488967    1.1243478432
 H    0.0213519027    2.5108121207    2.0376209062
 H    1.2780355014    3.3639958789   -2.0433574025
 H   -1.4449021056    3.3354382332   -1.9849173408