19

 O    0.1909322225    1.2364078270   -0.3306005033
 C    0.0317225628   -0.1308884174   -0.1013535021
 C   -1.4398650205   -0.5046063897    0.0355008869
 O   -2.2799460784    0.3536553069   -0.1385920506
 C   -1.7738512120   -1.9359908063    0.4035314368
 C   -3.2140028484   -2.3064280255    0.1385387585
 C   -3.6264981885   -2.8352543158   -1.2215730074
 C   -3.6013947800   -3.7469955173   -0.0196361633
 O   -2.5719505931   -4.6876503992    0.1073211085
 H   -0.7140547345    1.5797890557   -0.4117537188
 H    0.4515233158   -0.7336102382   -0.9261613862
 H    0.5650494132   -0.4479833023    0.8095134599
 H   -1.0887661105   -2.6217124161   -0.1051811900
 H   -1.5397305281   -2.0450130487    1.4737679717
 H   -3.9343915560   -1.6668431585    0.6366127479
 H   -4.5801621968   -2.5290915615   -1.6365388962
 H   -2.8377258341   -2.9816032444   -1.9530822605
 H   -4.5554163960   -4.0589797020    0.4047986084
 H   -2.7354848075   -5.3940561468   -0.5259783702