18

 C   -0.0667548150    1.4451451435    0.0267967001
 C   -0.0044750388   -0.0072802328   -0.0012171916
 C    0.0662584176   -1.2130083641   -0.0269853142
 C    0.0693682791   -2.6244555562   -0.0579133087
 C    1.1184934443   -3.4536017059   -0.1941767908
 C    0.6800179565   -4.8681182961   -0.0956934662
 C    0.0518915491   -5.2524326333    1.2045264909
 N   -0.7946160745   -4.8646884458    0.0744891995
 C   -1.2115442630   -3.4485794851    0.0764072387
 H    0.4897355996    1.8519878727    0.8789911508
 H    0.3627007583    1.8780659428   -0.8839198058
 H   -1.1008364275    1.7980712784    0.1060754168
 H    2.1471983211   -3.1494889076   -0.3363864602
 H    1.1139654180   -5.6242318734   -0.7447288671
 H   -0.0294124299   -6.2996128697    1.4844085576
 H    0.1726470023   -4.5576711950    2.0334584219
 H   -1.7679514442   -3.2088821094    0.9899454132
 H   -1.8850954430   -3.2653928029   -0.7699547450