19

 C    0.2144216352    1.4158828328   -0.0166501681
 N    0.1223739561   -0.0410584418    0.0059762311
 C    0.7364218754   -0.6334420865    1.2009775274
 C    1.2239218327   -2.0530013047    0.9035437275
 O    2.0868203920   -2.0620438246   -0.2122910922
 C   -1.2446187534   -0.4859092479   -0.2235620079
 C   -1.6568030888   -0.3049505541   -1.6765947693
 O   -2.7771355852   -0.0698930822   -2.0427825849
 H    1.2613704278    1.7221782927    0.0532449478
 H   -0.1876227739    1.8008564714   -0.9595108434
 H   -0.3456875157    1.8938555861    0.8064991686
 H    1.6080607360   -0.0230161607    1.4566396062
 H    0.0589512235   -0.6243142041    2.0726914523
 H    1.7822912932   -2.4356253659    1.7648646900
 H    0.3664505917   -2.7322201893    0.7539471989
 H    1.6902617414   -1.4355516331   -0.8341865754
 H   -1.3093600006   -1.5640429589   -0.0251936788
 H   -1.9880875829    0.0085033360    0.4248498811
 H   -0.8144366446   -0.4370952753   -2.3944720710