14

 C    0.0594931005    1.3577498209   -0.1757436520
 C    1.4873782562    1.8637430612    0.1907968211
 N    2.0950547533    0.5989367003    0.5403355099
 C    3.2976638522    0.0567359861    0.9783555689
 C    2.9730130193   -1.2164398050    1.3646258348
 N    1.6118561852   -1.4795345551    1.2137096830
 C    1.1573300961   -0.3609949788    0.7365265135
 O   -0.0928255491    0.0637046157    0.4467790486
 H   -0.7346958271    2.0084839985    0.1920001467
 H   -0.0430076349    1.2366049190   -1.2595374970
 H    1.9746787455    2.3513580825   -0.6575588744
 H    1.4830630723    2.5576234771    1.0403398198
 H    4.2295708757    0.5933488877    0.9343618480
 H    3.6400646948   -1.9795119400    1.7355147891