18

 O    0.1724591106    0.0712813999   -0.4772808166
 C    0.1238350167    1.1882640003   -0.0679972521
 O   -0.9321420991    1.8204420446    0.5376707024
 C   -0.2193370161    3.1007851941    0.5808390388
 C    1.0453007355    2.4306101020   -0.0097368887
 C    2.2654288327    2.2626968461    0.9098235621
 C    3.3522373646    1.8094734259   -0.0736641691
 C    3.0474453673    2.6662673330   -1.3135415078
 N    1.5932882218    2.9391713537   -1.2535068928
 H   -0.6951550244    3.8334876406   -0.0733993162
 H   -0.1535380811    3.4727081061    1.6057286858
 H    2.5175096949    3.2355366037    1.3478637220
 H    2.0848973988    1.5603166933    1.7266034473
 H    4.3661938682    1.9510593396    0.3081372973
 H    3.2166152587    0.7482500257   -0.3052898953
 H    3.6023110573    3.6132170661   -1.2790386691
 H    3.3189920089    2.1651902140   -2.2473436277
 H    1.1051013149    2.5789235212   -2.0624557002