17

 N   -0.0985692635    0.9014187603    0.6181151562
 C   -0.2884466345   -0.4069455294    0.3642366239
 O    0.3625899825   -1.3276695507    0.8310242880
 C   -1.4534091580   -0.6482337426   -0.6307852174
 O   -2.0816769251    0.2933993640   -1.0581079532
 C   -1.7346523139   -2.0926461905   -0.9784416754
 C   -2.6247974185   -2.7396385729    0.0794411101
 C   -2.4102502188   -4.1589025770    0.4577157939
 N   -2.0911157076   -3.0806454216    1.4030794659
 H    0.6112833828    1.1929650337    1.2684079023
 H   -0.7188768219    1.5702969055    0.1899578319
 H   -2.2368616205   -2.1131889016   -1.9499042470
 H   -0.7878460271   -2.6359863470   -1.0385086469
 H   -3.6359361576   -2.3374173861    0.1045043435
 H   -3.2551891323   -4.7833464279    0.7350671932
 H   -1.5953629783   -4.6903259517   -0.0285712767
 H   -1.0884856277   -2.8990038248    1.4189115477