21

 C    0.2594838406    1.5301990273   -0.2890215479
 C    0.0959933222    0.0596827100    0.0367275869
 O    0.7609881112   -0.8143144337   -0.9095639979
 C    1.3460450025   -1.6078841657    0.1579001041
 C    2.8630680231   -1.6391393294    0.2058777780
 C    3.5704926601   -0.3894696713   -0.2560074329
 C    3.3134244049   -0.5910472687    1.2109547382
 C    2.0872992359    0.0578879291    1.8589968932
 C    0.8385514021   -0.6038822059    1.2267975913
 H    1.3086102975    1.8371245174   -0.2968008153
 H   -0.1617660900    1.7381793792   -1.2778206495
 H   -0.2753105593    2.1452474977    0.4432567842
 H   -0.9769102362   -0.1825416352    0.0672566341
 H    0.9133269921   -2.6143873210    0.1732161397
 H    3.3660016080   -2.5950721251    0.1174899326
 H    4.5931746479   -0.4974938564   -0.6006038877
 H    2.9829613375    0.3287137142   -0.8151369591
 H    4.1717711439   -0.7811977943    1.8464446463
 H    2.1014469103   -0.1388008117    2.9356047297
 H    2.0850516417    1.1473422863    1.7454644135
 H    0.1689742641   -1.0026823327    1.9905313084