18

 O   -0.7841513667    0.8239651550    0.4168968515
 C    0.2361222424    0.7464266772   -0.2173328264
 C    1.3949677962    1.7074479657   -0.0725178382
 N    2.6913705906    1.2130861357   -0.5801957889
 C    2.9532631620    2.4668844153   -1.3322338823
 C    3.0714111085    2.2694735590   -2.8423601101
 C    1.6208936629    1.9475268614   -3.2304577092
 O    0.8005631795    2.7136680728   -2.3383543319
 C    1.4726216300    2.8857572985   -1.1150254475
 H    0.4020926027   -0.0480365812   -0.9791153284
 H    1.4001508894    2.1028926020    0.9512842676
 H    3.3757252292    0.9699147684    0.1254589104
 H    3.7173636650    3.1214958285   -0.9030150585
 H    3.4036227352    3.1987323273   -3.3171998478
 H    3.7657742009    1.4683223931   -3.1060334417
 H    1.3568864162    2.2407667067   -4.2492587776
 H    1.4184935081    0.8752165892   -3.1085830238
 H    1.2233400779    3.8692362456   -0.7161195273