18

 C   -0.0161468574    1.4673469657    0.0128817353
 C    0.0082742051    0.0159172273    0.0158515900
 C    0.0292894371   -1.1946994618    0.0182399062
 C    0.0526498716   -2.5533386438    0.0197559387
 C    0.0653854171   -3.7660758235    0.0329438073
 C    0.0958858297   -5.2031082390    0.0037303709
 C    1.2255510248   -5.8286208651   -0.7938263321
 C   -0.4795432319   -5.9243036823    1.1847242296
 N   -1.2054899376   -5.9198757012   -0.0891279525
 H    0.9929839130    1.8790411975   -0.1023649136
 H   -0.6288058461    1.8535032339   -0.8097242647
 H   -0.4297071375    1.8591897050    0.9491185749
 H    2.1969141760   -5.5464055028   -0.3769705260
 H    1.1311822730   -6.9170217305   -0.7749569359
 H    1.1894291839   -5.4972249827   -1.8356255595
 H   -0.0521083146   -6.8834762080    1.4652460170
 H   -0.8555530949   -5.3278650955    2.0103832026
 H   -1.9651599313   -5.2444712132   -0.0494579384