19

 C    0.0935328279    1.5283129261   -0.0925521238
 C    0.0060013692    0.0010770264   -0.0429376191
 C   -1.4365401370   -0.5317574144    0.0992702832
 C   -2.2907220129   -0.2505267317   -1.1199948324
 C   -2.5365124021   -1.3347113858   -1.8718390320
 C   -1.8934308860   -2.5027685334   -1.2446003055
 O   -1.6357297843   -3.5931705003   -1.7075172626
 C   -1.5030883100   -2.0793794635    0.1770193870
 O   -0.3381698628   -2.7244268765    0.6129463995
 H    1.1368956844    1.8547060312   -0.1351379728
 H   -0.4143476606    1.9411982565   -0.9705752578
 H   -0.3586735725    1.9822674883    0.7966664717
 H    0.4578886475   -0.4325528414   -0.9425256121
 H    0.5842797451   -0.3836316733    0.8018063407
 H   -1.8810270025   -0.0660752296    0.9879161251
 H   -2.6319406492    0.7517882455   -1.3573861847
 H   -3.0638173433   -1.3720802264   -2.8161994239
 H   -2.3591991135   -2.3477140327    0.8219003205
 H   -0.2612067271   -3.5158314648    0.0584755990