21

 C   -0.1572869243    1.5490399933   -0.0086249529
 C    0.0501565743    0.0382238014    0.0040474650
 O    0.8539572605   -0.3738878606   -1.1275997256
 C    2.1048232809   -0.7724753008   -0.6088217163
 C    2.1853731705   -2.1431957561    0.1662533071
 C    3.1780816900   -1.4253718678    1.1195404090
 C    2.3121398360   -0.1847428102    0.8070857561
 C    0.8403864510   -0.5290705037    1.1981092657
 C    0.8877171916   -2.0778080200    0.9947650569
 H    0.7881357082    2.0869000133    0.1069530367
 H   -0.6068153919    1.8564990116   -0.9572059627
 H   -0.8283646093    1.8508138641    0.8032072517
 H   -0.9242532886   -0.4584921690   -0.0859682149
 H    2.8885288802   -0.6128555519   -1.3498477968
 H    2.4314177611   -3.0836271610   -0.3265233049
 H    3.2338986256   -1.7818416355    2.1513671022
 H    4.1852464382   -1.3309224858    0.7050688691
 H    2.6575852376    0.8336146635    0.9799416651
 H    0.4923188426   -0.1877924925    2.1735316854
 H    0.0096639369   -2.4497398207    0.4600472630
 H    0.9788462690   -2.6321143314    1.9333673609