21

 C    0.0840713249    1.5482483678   -0.2239900902
 C    0.0140192625    0.0532262143    0.0027177614
 C    1.2522674826   -0.8053168574   -0.0622082043
 C    0.5312507959   -0.6149805349    1.2584457006
 C    1.1482724919    0.1583813546    2.4053508446
 C    1.9857411841   -0.7557249817    3.3412148289
 N    3.1459879115   -1.4214028153    2.7424976255
 C    2.4308665357    0.0173771864    4.5119797643
 N    2.7660083958    0.6605403483    5.4112890771
 H    1.0224976904    1.9765899743    0.1391485160
 H    0.0149239348    1.7771458272   -1.2928495085
 H   -0.7369196029    2.0693156908    0.2807671374
 H   -0.8847162729   -0.4040480499   -0.4032536075
 H    1.2038876911   -1.7695385698   -0.5570844651
 H    2.2000598105   -0.2902339063   -0.1898125698
 H   -0.0605194036   -1.4664723540    1.5905143022
 H    1.7948242214    0.9626041099    2.0383385243
 H    0.3617114721    0.6362077689    3.0029252940
 H    1.3241836732   -1.5470989719    3.7193558827
 H    2.8332099228   -1.9471548603    1.9322242045
 H    3.8029185683   -0.7246922007    2.4014860816