20

 C   -0.5102186083    1.5305106025   -0.6047412421
 C    0.0607760387    0.2730287479    0.0631109813
 C   -1.0325636906   -0.5899873694    0.6472223847
 O   -1.8236222653   -1.3662541873   -0.2652657059
 C   -1.0353617484   -2.0603227078    0.7153652587
 C    0.0551801897   -2.9561767882    0.1784681595
 N   -0.5197270876   -4.1201020957   -0.4771603231
 C   -0.2478635371   -5.3972288682   -0.0984160685
 O    0.5152196201   -5.7177050735    0.7883779014
 H    0.2881491955    2.1518877599   -1.0201197190
 H   -1.1904749973    1.2588106586   -1.4173355365
 H   -1.0709787228    2.1399029284    0.1122048527
 H    0.6426491527   -0.2979392125   -0.6657118104
 H    0.7475904404    0.5560966999    0.8712035805
 H   -1.6354163231   -0.0800887631    1.4035997984
 H   -1.6333452455   -2.5245527596    1.5021175934
 H    0.6979937786   -2.4119680157   -0.5198275260
 H    0.6770438363   -3.3356117007    0.9934319321
 H   -1.1951299479   -3.9609805299   -1.2084928184
 H   -0.8108076881   -6.1322418655   -0.7068441929