14

 C   -0.1097137159   -1.2196359966    0.1946349340
 C   -0.0470992773   -0.0200502646    0.1467216648
 C    0.0195192397    1.4123612691    0.0477641918
 N    0.6771913405    2.1502436509    1.1529019452
 C    1.3099206520    2.1439946205   -0.1605828580
 C    2.6268667842    1.3937108916   -0.2667199166
 C    3.7634775171    2.2373510278    0.1007394982
 N    4.6512248024    2.9219889417    0.3799892126
 H   -0.1691401706   -2.2786994027    0.2512105263
 H   -0.8550041757    1.8731610313   -0.4067666270
 H    0.1931924205    3.0273977771    1.3241939581
 H    1.2536287075    3.0468383929   -0.7650372090
 H    2.5973352399    0.5176781404    0.3871773476
 H    2.7720867656    1.0333960905   -1.2917084279