16

 O   -0.0966682306    1.4581031082   -0.1997246549
 C    0.0214374448    0.0604848402    0.0008158564
 C   -1.3859114070   -0.5228855578   -0.0730125627
 C   -1.3696831450   -2.0511879944    0.1104270919
 O   -0.8160650366   -2.4167090532    1.3430768968
 C   -2.7704929074   -2.6276344772   -0.0081957837
 O   -3.2897543725   -3.2457137428    0.8908923917
 C   -3.4696375477   -2.4115604420   -1.2826831738
 N   -3.9996018585   -2.2451179658   -2.2967340214
 H    0.7643700003    1.8584832479   -0.0485455387
 H    0.6534921852   -0.4058247313   -0.7738006549
 H    0.4626861067   -0.1782367824    0.9776014134
 H   -2.0041481454   -0.0702101791    0.7097344073
 H   -1.8279331670   -0.2650783970   -1.0417191688
 H   -0.7812279762   -2.4936697808   -0.7143500212
 H   -1.4938267831   -2.9226496526    1.8166320927