16

 O    0.0073411487    0.0603387113   -0.1297958137
 C    0.0112230630    1.2511597912   -0.0038838249
 N   -1.0070651298    2.1891013469    0.1200800778
 C   -0.1354168238    3.3646975554    0.0753075562
 C    1.0735282013    2.3901694968    0.0175937611
 O    1.4007058617    2.8153793100   -1.3254564887
 C    0.3429909259    3.7856518900   -1.3096487675
 C   -0.4075488820    4.1737567519   -2.5349443104
 C    0.5419490134    5.1579399087   -1.8602447671
 H   -1.9733215058    2.1012752396   -0.1657986364
 H   -0.3141962534    4.1213381304    0.8377452835
 H    1.9288658977    2.3547907308    0.6909985450
 H   -0.0795952123    3.7285447040   -3.4678719885
 H   -1.4769537779    4.3445145240   -2.4640981306
 H    0.1209837759    5.9989433227   -1.3184095831
 H    1.4870275975    5.3572356963   -2.3531000126