17

 C    0.1758609707    1.5289793569   -0.2091707397
 C    0.0571607593    0.0468455107    0.0625455406
 O    0.8528506650   -0.7566432337   -0.8330239398
 C    1.4165362923   -1.5303405820    0.2460468910
 C    2.9204693698   -1.6554122067    0.1613032125
 C    0.7671747776   -0.5815005872    1.3069027874
 C    1.6720285182    0.2838769011    2.0415165023
 N    2.3958991825    0.9753109682    2.6207469420
 H    1.2119393582    1.8658579399   -0.1247903417
 H   -0.1791129124    1.7416530074   -1.2220741322
 H   -0.4364135904    2.0993298044    0.4968823135
 H   -0.9955926066   -0.2667656109    0.0279212745
 H    0.9504605546   -2.5246401729    0.2905909084
 H    3.4011238148   -0.6741147727    0.1706979620
 H    3.3052584133   -2.2418746541    1.0019483196
 H    3.1901516284   -2.1674945904   -0.7672766723
 H    0.0966171948   -1.0775257879    2.0108517919