20

 C    1.3374695975    0.0301422712   -0.3558941063
 C    0.5721255404   -1.0978134335   -0.9535472494
 N   -0.0756090979   -0.1583144903   -0.0434093473
 C   -0.3802084884   -0.6526256477    1.2921098664
 C   -0.5140681107    0.4932813697    2.3225481660
 C   -1.4827336870   -0.0348121974    3.4063785825
 C   -2.3668398811   -1.0078280769    2.6481709321
 O   -2.8503818420   -0.4815150352    1.4054775794
 C   -1.7217815660   -1.3623230072    1.3782450378
 H    2.0688401000   -0.2200696395    0.4118386024
 H    1.5794921785    0.9102196340   -0.9444818483
 H    0.2414883534   -1.0582359824   -1.9872270650
 H    0.7968464124   -2.0980951911   -0.5849546220
 H    0.3866765559   -1.3770709047    1.6343391620
 H    0.4512505282    0.8017514112    2.7300569485
 H   -0.9549819698    1.3498540813    1.8092366950
 H   -0.9487577395   -0.5791637022    4.1952570370
 H   -2.0509792855    0.7663949447    3.8889652107
 H   -3.0477572618   -1.6763653179    3.1694157175
 H   -1.8801502766   -2.3109946061    0.8709697009