19

 C    0.0309637079    1.5386324104   -0.1612080319
 C   -0.0214892748    0.0115641530    0.0285485455
 C   -1.4139603214   -0.5232302468    0.1568536802
 C   -2.1927526037   -0.7965211664    1.2643106397
 C   -3.4272663194   -1.2336689013    0.7286445215
 O   -4.4831781013   -1.6087142697    1.4719786089
 C   -5.6318459931   -2.0273506585    0.7435471381
 N   -3.4362512039   -1.2400920957   -0.5972733830
 N   -2.1917266434   -0.7967265579   -0.9211963656
 H    1.0659931897    1.8835722532   -0.2464946214
 H   -0.5039565241    1.8430790390   -1.0662128736
 H   -0.4333692214    2.0507347796    0.6863499780
 H    0.4837119910   -0.4796696517   -0.8128044440
 H    0.5397434421   -0.2656542268    0.9262918716
 H   -1.9203716816   -0.7020926482    2.3020853756
 H   -6.3819511674   -2.2916195171    1.4905827836
 H   -6.0058348477   -1.2229152751    0.1011219369
 H   -5.4045066947   -2.8941347911    0.1136609791
 H   -1.9413526926   -0.7294396590   -1.8921529691