21

 C    0.0563503042    1.4682151938    0.2913268496
 C    0.3367150560   -0.0315196673    0.1602982794
 C    0.6564743540   -0.5004969137   -1.2769512088
 C    1.9874026131    0.0631144870   -1.7879545016
 C    0.6069486179   -2.0327177413   -1.3241433454
 C    1.5829242668   -2.8612532309   -2.0663967927
 O    1.6876788813   -2.7161012288   -0.6539053270
 C   -0.7034404393   -2.6075615350   -1.0972956721
 C   -1.8055195663   -3.0582361195   -0.9305708068
 H    0.9265328405    2.0799865338    0.0341133625
 H   -0.7702619803    1.7748214300   -0.3598603907
 H   -0.2230889832    1.7184286505    1.3194614366
 H    1.1705548040   -0.3176044446    0.8131274406
 H   -0.5374943881   -0.5858395867    0.5188325539
 H   -0.1508654446   -0.1489986628   -1.9339220599
 H    2.1324522120   -0.1386950621   -2.8531314750
 H    2.0204165282    1.1474065857   -1.6589132507
 H    2.8271415139   -0.3684807958   -1.2340625624
 H    1.2723916354   -3.8453823096   -2.4131821483
 H    2.3685375684   -2.3857988380   -2.6480403933
 H   -2.7739145939   -3.4664491146   -0.7767130679