13

 O   -0.0262296180   -0.0592477964    0.0032982587
 C    0.0115623321    1.1537054977    0.0092796243
 N   -1.1588324096    1.9213107280    0.0286212439
 C   -1.1834520651    3.2819612902    0.0361901505
 C   -0.0043121821    3.9608142119    0.0244164140
 N    1.1957978086    3.3167659851    0.0053075194
 C    1.2257614669    2.0070992731   -0.0020664686
 C    2.4794983804    1.3328797692   -0.0220357489
 C    3.5326178250    0.7504847575   -0.0389057891
 H   -2.0159263670    1.3842326540    0.0369576067
 H   -2.1555826515    3.7588319237    0.0514128543
 H    0.0174067110    5.0430786690    0.0299006208
 H    4.4616851994    0.2358179170   -0.0538005061