18

 C   -0.0865290852    1.4887319290   -0.0030145131
 C   -0.0145480684    0.0351323872    0.0029133352
 C    0.0510059285   -1.1674566942    0.0253875182
 C    0.0958722217   -2.6290143883    0.0020548145
 O   -1.2048871079   -3.2084752022    0.1172646777
 C    0.8245139858   -3.1406183178   -1.2571842722
 C    0.8844459489   -4.6793974887   -1.2726971212
 C    1.4991324525   -5.2022312980   -2.4891192743
 N    1.9870620464   -5.5993908344   -3.4585697186
 H    0.7354881467    1.9246808028    0.5748601607
 H   -0.0273904637    1.8881180294   -1.0210919796
 H   -1.0250805092    1.8386695622    0.4401195670
 H    0.6371588996   -2.9907770163    0.8866731616
 H   -1.7974348761   -2.6979324458   -0.4457892145
 H    0.2976033833   -2.7799223445   -2.1469003392
 H    1.8337364106   -2.7189783239   -1.2885471141
 H    1.4516038105   -5.0471756312   -0.4091432273
 H   -0.1291125240   -5.0807792952   -1.1777213509