20

 C    0.3950229351    0.9485833279   -0.8166835030
 C   -0.0813688958    0.0976699904    0.3603286605
 O    0.0129280368    0.8205786973    1.5934040249
 C   -1.5036753629   -0.3701943080    0.2515173183
 C   -2.3033173717   -0.3410556028   -0.8206994143
 C   -3.5960082720   -1.0286846899   -0.5419828592
 N   -3.4109472521   -2.4749586180   -0.2138731111
 C   -3.5269649632   -1.4798193769    0.8748691067
 C   -2.1881523944   -1.0292188374    1.4422250579
 H    1.4299893760    1.2701445667   -0.6561297268
 H    0.3666421909    0.3824480153   -1.7524273397
 H   -0.2298021436    1.8398614902   -0.9212772202
 H    0.5585112355   -0.8014766718    0.4224798941
 H    0.9406285249    1.0333353785    1.7357887277
 H   -2.0522078427    0.0751947974   -1.7882381666
 H   -4.5175251574   -0.7196188868   -1.0237149939
 H   -4.3126200146   -2.9408030591   -0.3087829197
 H   -4.4045869959   -1.5068819056    1.5116862739
 H   -1.6025528413   -1.8711478672    1.8307887909
 H   -2.3080956716   -0.3163449304    2.2652829497