18

 C    0.1533391584    1.4136130328   -0.4019697083
 C    0.0452051500   -0.0015461423    0.1040711294
 O    1.2545607498   -0.7671810696    0.1995546443
 C    0.5285475512   -0.4885707702    1.4118216544
 C    1.2235869881    0.4111318389    2.4110658316
 C   -0.1343597124   -1.7216667316    2.0179555485
 C    0.8903565663   -2.6961583973    2.5673259692
 O    0.8650295942   -3.1645753384    3.6765069474
 H    0.9854134131    1.9526832327    0.0536552326
 H    0.3079318656    1.4102654411   -1.4860354772
 H   -0.7733312985    1.9612386841   -0.1988324821
 H   -0.7844615514   -0.5620481334   -0.3345547818
 H    1.7539661799    1.2262734967    1.9182261605
 H    0.4988246046    0.8359251014    3.1138425831
 H    1.9537370096   -0.1585871659    2.9959744734
 H   -0.8300639286   -1.4522872746    2.8182163750
 H   -0.6910153227   -2.2459703892    1.2307157732
 H    1.6932313128   -2.9613317951    1.8447701969