18

 C   -0.0249005823    1.5463832565   -0.0491615240
 C    1.4001103948    2.1229207490    0.0137598520
 C    2.0855551869    1.8016316503    1.3562433017
 C    1.8927655842    0.3528025259    1.6946652952
 N    2.5938719762   -0.2932444394    2.5934748185
 O    2.0709264048   -1.5864812704    2.6093348257
 C    1.0741073350   -1.6642119355    1.7122602385
 C    0.8977306587   -0.4726746185    1.0863855227
 C   -0.0209977480    0.0047062794   -0.0002757975
 H   -0.6078000560    1.9366454096    0.7954044049
 H   -0.5292625336    1.8816836704   -0.9609355364
 H    1.9947778465    1.7072417364   -0.8102283434
 H    1.3762272692    3.2072399527   -0.1332761033
 H    3.1504492261    2.0508135568    1.3322000540
 H    1.6408050185    2.4156847652    2.1501230593
 H    0.5917380599   -2.6267332050    1.6335381352
 H   -1.0380473432   -0.3761506029    0.1423013314
 H    0.3174656224   -0.3827284203   -0.9709349446