17

 C    0.0094090698    1.5080754695    0.0701866827
 C    0.0475881462    0.0178743896   -0.0276267049
 C    0.0026741558   -0.7824545440   -1.1395426042
 C   -0.0883804422   -0.8379517116   -2.6407441623
 C   -0.0592400802   -2.3398843183   -2.8905698156
 C    0.0319936454   -3.0020447942   -1.7313267118
 N    0.0704600221   -2.0846626375   -0.6675771928
 C    0.1525971955   -2.0257797315    0.6908411482
 N    0.1411358816   -0.7769779445    1.1053273344
 H    0.9107110281    1.8947541380    0.5583583525
 H   -0.0653509430    1.9674968614   -0.9194764470
 H   -0.8462882959    1.8426130268    0.6668802818
 H   -1.0067251812   -0.3812965843   -3.0330347109
 H    0.7461865517   -0.3292817738   -3.1412794852
 H   -0.1062685270   -2.7931014649   -3.8699290220
 H    0.0754599278   -4.0634319047   -1.5374664997
 H    0.2171930692   -2.9040173763    1.3148836173