14

 C    0.0259232064    1.4619174344    0.0637209711
 C    1.5179066094    1.8619503361   -0.1093744207
 N    2.1413157053    0.5624479047    0.0628460711
 N    3.4204391294    0.1319400858    0.1809919849
 N    3.3564210861   -1.1693850983    0.1573253684
 C    2.0598518517   -1.5875847466   -0.0065934999
 C    1.2747517874   -0.4593007732   -0.0773064114
 N   -0.0091716254    0.0264970587   -0.3200165549
 H   -0.2763710365    1.6039333568    1.1097718513
 H   -0.6367898079    2.0515723025   -0.5731002606
 H    1.7256943200    2.2590848538   -1.1089352788
 H    1.8557587823    2.5816927553    0.6376714863
 H    1.8017005915   -2.6313682828   -0.0529945646
 H   -0.7626085196   -0.5005633272    0.0992759879