19

 C   -0.2600705681    1.5406434288    0.0669112295
 C    0.0590874313    0.0571725754    0.0233720036
 C    1.1438326804   -0.4776775895   -0.9684298563
 O    1.9257245507    0.4435653913   -1.7020940868
 C    1.8648544461   -1.0446713640    0.2477892401
 C    2.4621774986   -2.4174612848    0.3323276893
 C    2.1466339578    0.0464703433    1.2006097812
 N    0.7880959015   -0.5361188813    1.2065295228
 H    0.6370463466    2.1625934891    0.0304337453
 H   -0.8882815194    1.8190866777   -0.7867458454
 H   -0.8131293604    1.7793010041    0.9810854253
 H   -0.8687032335   -0.5130615421   -0.0856913837
 H    0.7498715966   -1.2658878892   -1.6229875311
 H    1.4205631415    0.7238357207   -2.4720922923
 H    3.3944626894   -2.4685256389   -0.2420909514
 H    2.6882972718   -2.6772652569    1.3704143228
 H    1.7791216969   -3.1763244175   -0.0650522116
 H    2.7095202700   -0.2158122989    2.0916189150
 H    2.3115748421    1.0583340527    0.8458050237