17

 C   -0.0751704171    1.3740671074   -0.2817884516
 C   -0.0310140730   -0.0539220139   -0.0022219769
 C    0.0167113295   -1.2366140301    0.2175080513
 C    0.0599452902   -2.6661628282    0.5088379092
 N   -1.2636404211   -3.2780917290    0.4817776063
 C   -1.5115964869   -4.4268485345   -0.2152954664
 C   -2.9657669218   -4.8719205956   -0.2281527249
 O   -0.6363384722   -5.0500328952   -0.7890032650
 H    0.7360031683    1.6699553122   -0.9559714523
 H   -1.0199853783    1.6543323424   -0.7603199496
 H    0.0214495227    1.9659944944    0.6349392781
 H    0.6556647314   -3.2102493893   -0.2313790625
 H    0.5387802991   -2.8325558634    1.4841375140
 H   -2.0267753224   -2.7644880006    0.8893832028
 H   -3.6062898558   -4.3025173578    0.4503556904
 H   -3.3538974413   -4.7728530495   -1.2461721113
 H   -3.0105011614   -5.9303037993    0.0377654286