20

 O   -0.0393843034    1.3531577807    0.4744958818
 C   -0.0180629861    0.0221135696   -0.0301154163
 C   -1.4245117560   -0.5061939410   -0.0253225631
 C   -1.9837872676   -1.1285889637    1.2319362881
 C   -1.7400215736   -1.9864399183    0.0114043669
 N   -2.7859581292   -2.3210809288   -0.9540979619
 C   -4.1445375689   -1.8360873085   -0.6726128138
 C   -3.2471308661   -1.0499978659   -1.5563956079
 C   -2.4354914657    0.1211690425   -0.9960430840
 H    0.8429993115    1.7239208090    0.3775950553
 H    0.3840090188   -0.0002959909   -1.0565931298
 H    0.6221037551   -0.6280251441    0.5879333702
 H   -1.2941319637   -1.2677854275    2.0588950131
 H   -2.9888603523   -0.8792804847    1.5498500704
 H   -0.9543068196   -2.7327509506    0.0624867169
 H   -4.9337785969   -2.4433212550   -1.1086038514
 H   -4.3821862057   -1.4504978062    0.3134498632
 H   -3.4219931494   -1.0681258822   -2.6295386580
 H   -3.0611279675    0.8817388250   -0.5184937596
 H   -1.8983011338    0.6201524008   -1.8086682102