21

 C   -0.2250589216    1.5120565477    0.1262282055
 C    0.0061531763    0.0031945224   -0.0098728408
 C    0.9208450605   -0.3970369450   -1.2306569684
 C    2.2233682566   -1.0026116653   -0.6404760022
 C    1.7236428689   -1.6421831846    0.6642835738
 O    2.6571194764   -1.8166674864    1.7176333078
 C    2.1369686308   -1.1935009048    2.8983141489
 C    0.9871355852   -0.3327844330    2.4241939393
 C    0.7437955780   -0.6077059138    1.1486236709
 H    0.7263525561    2.0453440629    0.2229166064
 H   -0.7498605574    1.9064125771   -0.7499264805
 H   -0.8292752886    1.7427034365    1.0096959576
 H   -0.9716310708   -0.4809095184   -0.1308072790
 H    0.4082484678   -1.1407744961   -1.8490636224
 H    1.1253894469    0.4611733456   -1.8768147205
 H    2.7147328147   -1.6997176464   -1.3241100500
 H    2.9395110490   -0.2148774902   -0.3829874715
 H    1.2348128499   -2.6069755134    0.4365717449
 H    1.8261079603   -1.9604703774    3.6281987761
 H    2.9331490537   -0.6019263088    3.3718488786
 H    0.5159798474    0.4160905214    3.0485149455