15

 O   -0.0541530516   -0.0203678108    0.0411780038
 C   -0.0413372672    1.1714434752    0.0186282927
 O    1.1019278982    1.8847577617    0.1095908552
 C    1.0187170635    3.2985242336    0.0940993948
 C    1.7620008093    4.0356068145    1.2559216227
 C    3.0947883277    3.5824351689    0.5485301417
 C    2.1803717491    4.0198630797   -0.6577861000
 C    1.8302832536    5.2034442231    0.2592700629
 O    1.7325776880    6.3891975413    0.2280931892
 H   -0.9400857653    1.8091655983   -0.0806685374
 H   -0.0023074673    3.6188237768   -0.1315908530
 H    1.5207437725    4.0276386164    2.3155108727
 H    3.9843249849    4.1826678727    0.7386366565
 H    3.2928420692    2.5145763195    0.6002930043
 H    2.4032042354    3.9948364091   -1.7210315560