17

 C   -0.0805871907    1.5073407817    0.0275809984
 C    0.0897472894    0.0240304456    0.0928175007
 O   -1.1572654802   -0.7225002911    0.1881635107
 C   -0.4079827510   -1.7492165755    0.8302905161
 C    0.9301365063   -1.8963398907    0.0910602795
 C    0.7384508836   -0.8830300322    1.2145797467
 C    0.9087039824   -0.7947326472   -0.9764347273
 C    0.3197156040   -1.0238351994   -2.2818362453
 C   -0.1565370576   -1.2018317924   -3.3715903514
 H    0.8925579484    2.0059602266   -0.0085790916
 H   -0.6410907216    1.7741854670   -0.8745157189
 H   -0.6319545938    1.8719406111    0.8985965883
 H   -0.9300287220   -2.5492897654    1.3369616775
 H    1.5153834107   -2.8063948514    0.0954961748
 H    1.2744837311   -0.6869067202    2.1323018892
 H    1.9086132352   -0.3578319760   -1.0687048819
 H   -0.5894628643   -1.3649507506   -4.3272504754