19

 C    0.0376397856    1.5422124903    0.1760130161
 O    1.4466184608    1.5589452478   -0.2999641546
 C    1.1577629315    0.2730852660   -0.8812180979
 C    0.2984833935    0.1385103477   -2.1603728761
 C   -0.1419204153   -0.9787143793   -1.2045077277
 C    1.4092023540   -1.2739789577   -0.8600384632
 C    1.4941455189   -1.7682866192    0.5756713765
 C    0.4695523817   -0.8124380922    1.2489232912
 C   -0.0190444356   -0.0109347463    0.0386777046
 H   -0.0296085450    1.9170364548    1.1996106855
 H   -0.5988574280    2.1364931063   -0.4842187611
 H   -0.4271803503    0.9281334588   -2.3611433420
 H    0.8137082107   -0.1677556460   -3.0731598048
 H   -0.8799250055   -1.7623944447   -1.3922771085
 H    2.0208593755   -1.7561440956   -1.6270619307
 H    1.2143201074   -2.8235658658    0.6527495263
 H    2.5010127852   -1.6640474186    0.9906783705
 H   -0.3442471869   -1.3481188132    1.7476781783
 H    0.9451115719   -0.1683863531    1.9943400875