18

 O    0.0836431375   -0.0076255829   -0.6369212353
 C    0.0009164691    1.0995834540   -0.1632015236
 N   -1.2006423963    1.7624315084   -0.0998341377
 C   -1.5904835928    3.1581254143    0.0855044344
 C   -0.4490041737    4.1633686151    0.2068601209
 C    0.5047544344    3.9125955333    1.3599292207
 C    0.2118246926    2.8477577876    2.4117612181
 C    1.2530131240    2.6184630226    1.3564903889
 O    1.1331245905    1.7051208161    0.2901435445
 H   -1.9246004830    1.1664264594   -0.4716319684
 H   -2.2128241504    3.4467702476   -0.7701888555
 H   -2.2267189968    3.2411652186    0.9778026296
 H    0.1191998426    4.1909831172   -0.7312881440
 H   -0.9141410000    5.1482838086    0.3221923358
 H    1.0551013196    4.7884667159    1.6903682311
 H    0.5642918180    3.0120703976    3.4239578114
 H   -0.7188024021    2.2986026295    2.3514746567
 H    2.2930856768    2.6148586670    1.6606019725