22

 C    0.1521898983    1.6749108201   -0.0182499066
 C   -0.0301425344    0.1540831794    0.0504729559
 C    0.3843438273   -0.5093843877   -1.2919956382
 C    0.5687447754   -2.0383903630   -1.2317258519
 C   -0.4887457967   -2.7607592628   -0.4187479643
 N    0.0085331549   -3.8350816431    0.4655506770
 C   -0.5218495218   -2.5863022390    1.0593028889
 C    0.4541968161   -1.6691393121    1.7143684338
 C    0.6836869971   -0.4392487033    1.2517395127
 H    1.2110677617    1.9362285020   -0.1315760991
 H   -0.3876936623    2.0997159943   -0.8708346230
 H   -0.2165600333    2.1618380702    0.8904723131
 H   -1.1011079662   -0.0456641978    0.1808032376
 H   -0.3737189033   -0.2443674646   -2.0399224517
 H    1.3233661498   -0.0636351858   -1.6438487371
 H    0.6016555859   -2.4451765015   -2.2494610230
 H    1.5334317282   -2.2714475707   -0.7745578875
 H   -1.4461718023   -2.9246785996   -0.9112754719
 H   -0.6899526601   -4.5697791956    0.5485964717
 H   -1.4949905206   -2.6630028267    1.5461719944
 H    0.9865739955   -2.0431943221    2.5858838739
 H    1.4182314307    0.1906921296    1.7508574054