19

 O   -0.0501094305    1.3695581676    0.0200013789
 C    0.0270704870   -0.0341935435    0.0019770136
 C    0.6974046566   -0.6864365926    1.2383612026
 C    0.1326861101   -2.1390511354    1.2216890504
 C   -0.8180406439   -2.1453616058   -0.0174518465
 C   -1.3632136999   -0.7034115486    0.0103078464
 C    0.1095936316   -2.0940391169   -1.2316789731
 O    0.3828258296   -2.9892884839   -1.9865499197
 C    0.6507175777   -0.6521447020   -1.2710958224
 H    0.8456801139    1.7229610117    0.0159345448
 H    1.7901044100   -0.6553026444    1.1795884351
 H    0.3963884228   -0.1438664236    2.1384337519
 H    0.9080625924   -2.9058668467    1.1491646904
 H   -0.4485007582   -2.3467143308    2.1239658774
 H   -1.5240388603   -2.9738240145   -0.0433879345
 H   -1.9303296691   -0.4717696599    0.9159771440
 H   -1.9616340803   -0.4373683226   -0.8656606683
 H    0.2711671828   -0.1424075130   -2.1640751245
 H    1.7444498177   -0.6363915949   -1.3097270167