18

 C   -0.1556373347    1.6373172731    0.4131909723
 C    0.0857406700    0.1659984925    0.0866238086
 C    0.8967036548   -0.0992636594   -1.1903731324
 C    1.6679460309   -1.3769412347   -0.8339117383
 C    1.7881490063   -1.3067364773    0.6723704262
 N    2.6035659173   -1.9475786052    1.3884586680
 O    0.8585175940   -0.4191822713    1.1619216228
 C   -1.2642893249   -0.5622422944    0.0776331305
 O   -1.8883880151   -0.8323721938   -0.9137397269
 H    0.8036133351    2.1456389037    0.5434299955
 H   -0.7070269111    2.1173458835   -0.4004904968
 H   -0.7314757278    1.7477702159    1.3370995831
 H    0.2344946944   -0.2093465648   -2.0499414522
 H    1.5798179155    0.7346793137   -1.3753746194
 H    1.0951609641   -2.2719791846   -1.1019822971
 H    2.6490605935   -1.4632476109   -1.3005159517
 H    2.4660846157   -1.7298129826    2.3769686788
 H   -1.6300548680   -0.8157259633    1.0972875790