23

 C    0.3548069078    1.6393980582    0.0007863697
 C   -0.0437223618    0.1635013602   -0.0121415757
 O   -1.4719131448    0.1290914793    0.0341504401
 C    0.4670489692   -0.5153545787   -1.3121421268
 C   -0.1562030489   -1.8872054997   -1.6145392011
 C    0.3647905892   -3.0958379910   -0.8043789357
 C    0.8863290625   -2.7858861614    0.6051651826
 O    0.0775589768   -1.8795313523    1.3460609682
 C    0.4870080816   -0.5244244965    1.2533871999
 H    1.4366056456    1.7571805670   -0.1173408670
 H   -0.1411236595    2.1632215210   -0.8211347508
 H    0.0495724664    2.1160750532    0.9369505597
 H   -1.7089286655   -0.7333032417    0.3974934889
 H    0.2167343937    0.1564129552   -2.1410784887
 H    1.5631971082   -0.5758468021   -1.2858632687
 H   -1.2369458296   -1.7879255213   -1.4756897817
 H   -0.0199218711   -2.1060854265   -2.6790552071
 H   -0.4357507051   -3.8411914502   -0.7376813994
 H    1.1878052943   -3.5852445323   -1.3412949568
 H    0.9336250964   -3.7127972303    1.1882211375
 H    1.9099597389   -2.3877066561    0.5495783913
 H    1.5836203690   -0.4482642606    1.3083496938
 H    0.0613716467   -0.0192224935    2.1269988678