20

 C   -0.1625651031    1.6022750232    0.1691166333
 C    0.0170792288    0.0996911425   -0.0125477394
 C    0.8008409881   -0.4710854907   -1.2453797115
 C    1.3963729149    0.5037486766   -2.2453759998
 O    2.1860240399   -0.2585915064   -3.1495847954
 N    1.7568908863   -1.0400727301   -0.2886381369
 C    2.8796994737   -1.9295485939   -0.4543626122
 C    1.1209417928   -0.5792473256    0.8357892688
 O    1.3678421330   -0.6909597601    2.0102903151
 H    0.7813967712    2.1451359400    0.0646242414
 H   -0.8769802894    2.0135852633   -0.5512930242
 H   -0.5451164002    1.8034913177    1.1739786818
 H   -0.9412538954   -0.4121909162    0.1184457452
 H    0.2507019466   -1.2426164507   -1.8001775171
 H    0.5819504661    1.0300748169   -2.7685658007
 H    2.0048645883    1.2541234386   -1.7209922503
 H    2.6117221611    0.3455422951   -3.7650045789
 H    3.6343074445   -1.4931878970   -1.1142700983
 H    3.3116178682   -2.1027284700    0.5342842151
 H    2.5680680145   -2.8923201132   -0.8791276759