20

 O   -0.1376974807    1.4742399260   -0.1443987663
 C    0.0220243732    0.0794645382    0.0907262368
 C   -1.3783281885   -0.5113859679    0.1650133173
 C   -1.5163043000   -2.0430598423    0.2874231685
 C   -0.8748725511   -2.3066593715    1.6625952790
 N   -2.0309080877   -1.5613822975    2.2630696005
 C   -2.8820974669   -2.0788469506    1.0990285927
 C   -3.5945658432   -0.7285273982    1.0472989523
 C   -2.1902933432   -0.2395034394    1.4583654090
 H    0.7305829300    1.8859466702   -0.1103896770
 H    0.5858647182   -0.3996854982   -0.7271273467
 H    0.5824233317   -0.0915641604    1.0199834884
 H   -1.9177167755   -0.1283057213   -0.7074893028
 H   -1.3210757133   -2.6540862267   -0.5960473373
 H   -0.9490241092   -3.3514798158    1.9801210244
 H    0.1286574351   -1.9357232557    1.8859485132
 H   -3.3839577098   -3.0405330900    1.2189863310
 H   -4.0180473583   -0.3600170985    0.1107970564
 H   -4.3204578875   -0.6548873676    1.8595741003
 H   -2.0134207333    0.6893244668    1.9973230305