16

 O   -0.3892037416    1.3530882091    0.1135911146
 C   -0.1604013688   -0.0149164638    0.0683462631
 C   -0.1941408103   -0.7804229281   -1.2284144345
 C   -1.2932970040   -0.9673949540   -0.2024547306
 C   -1.0930178682   -2.1273326268    0.7626825671
 O    0.2581294426   -2.0289675786    1.2048777417
 C    0.6400519167   -0.6505733896    1.1968525635
 C   -2.0427676423   -2.0497486968    1.8948695425
 N   -2.7855117394   -1.9928531513    2.7779466567
 H    0.3719672095    1.8012950582   -0.2707262355
 H   -0.4730858964   -0.2179385233   -2.1122710269
 H    0.5209896529   -1.5815114775   -1.3884398525
 H   -2.2923853547   -0.6065823368   -0.4077114035
 H   -1.2001344189   -3.1124588768    0.2960329003
 H    1.7257871617   -0.6276815404    1.0612796201
 H    0.3835176111   -0.1500746835    2.1412122741