20

 C   -0.0347060869    1.4641788723   -0.0405630111
 C    0.0367754259   -0.0355372150   -0.0464683478
 N   -0.6260681428   -0.8551708795    1.0033463604
 C    0.8524104203   -0.8978921061    0.8325200610
 C    1.3664782442   -1.9538981225   -0.1693647023
 C    0.0993054297   -2.2922444702   -1.0049624673
 C    0.2236433622   -0.7926089547   -1.3978957388
 O   -0.3491037809   -0.2431234352   -2.5443801754
 C    1.7690374401   -1.0157216012   -1.3604270992
 H    0.7382526601    1.8964343942   -0.6840822271
 H   -1.0021160460    1.8191387095   -0.4146506392
 H    0.1020435642    1.8624804800    0.9705359237
 H   -0.8292887845   -0.2449319567    1.7944397559
 H    1.4934359614   -0.5142463609    1.6191757194
 H    2.0309454543   -2.7333691193    0.1988663829
 H    0.3390137170   -2.9364578226   -1.8527152184
 H   -0.7932632007   -2.6269538201   -0.4808567109
 H   -1.3070768452   -0.2789678577   -2.4472430410
 H    2.4050106000   -0.1531855870   -1.1403449698
 H    2.1378895178   -1.5544419973   -2.2360892752