16

 C   -0.0876299709    1.5474730944   -0.2881411562
 N   -0.1018798896    0.0865472150   -0.2664410045
 C   -0.2375014896   -0.5270294279    1.0524912419
 C   -1.3777141150   -0.5242288176    0.0947528332
 C    1.3080969262    2.0555146866   -0.1033260584
 N    1.6994931379    2.6005670747    1.0188911853
 O    3.0440669391    2.9122056852    0.7824083303
 C    3.2969153171    2.5148092968   -0.4661849940
 N    2.2878657811    1.9828920330   -1.0747791912
 H   -0.4555712115    1.8773134701   -1.2652343307
 H   -0.7248379085    1.9951546835    0.4916488947
 H    0.3475018066   -1.4277678069    1.2117880243
 H   -0.3073513406    0.1312635957    1.9164885960
 H   -2.2144483964    0.1350856460    0.3205393190
 H   -1.6413895318   -1.4212650566   -0.4575996822
 H    4.2973213959    2.6768495782   -0.8401842475