20

 O   -0.0349298701    1.3118850611   -0.6442001827
 C   -0.0397796815   -0.0424727222   -0.2347184105
 C   -1.4118123752   -0.4663009965    0.2184322369
 C   -2.4688523685    0.3393792887    0.1326173740
 C   -3.8628709847   -0.0209699358    0.5649271432
 C   -4.0523173000   -1.4940353342    0.8564543956
 N   -3.7268404071   -2.4215121012   -0.2442885757
 C   -2.8795468715   -2.3982573089    0.9616955423
 C   -1.4738670669   -1.8661216963    0.7812204800
 H    0.8317713667    1.5088151480   -1.0090051689
 H    0.2800621334   -0.7084537892   -1.0564167939
 H    0.6780348003   -0.2098343768    0.5895023907
 H   -2.3263856135    1.3358495604   -0.2717612038
 H   -4.1272210135    0.5538614497    1.4653890922
 H   -4.5813510113    0.2937971706   -0.2048648759
 H   -4.9218748426   -1.7356805833    1.4646594445
 H   -4.3486040951   -3.2250479315   -0.2138131681
 H   -2.9606713052   -3.2444448350    1.6413112448
 H   -0.9064577606   -2.5540695775    0.1365146153
 H   -0.9634639432   -1.8880147199    1.7561622599