18

 O   -0.1102653931    1.3305756229    0.0093577811
 C    0.0136678794   -0.0439673714   -0.0013107187
 C    0.6551556966   -0.9690730165   -1.0896364414
 C    0.0375634088   -1.9174753367   -0.0166073953
 C    0.6437950141   -0.9869250707    1.0783038526
 C   -1.1920114625   -0.9884521796   -0.0154063571
 C   -2.4691364511   -0.9796413384    0.7441766539
 C   -2.4611056309   -0.9670207188   -0.7880841108
 H    0.7703045232    1.7203648719    0.0168900423
 H    0.1808176013   -0.9657247698   -2.0732021568
 H    1.7474192131   -0.9637154166   -1.1567023353
 H    0.0448845997   -3.0046174860   -0.0255235863
 H    1.7352947321   -0.9827690939    1.1568934131
 H    0.1591740392   -0.9997268326    2.0567652841
 H   -2.7956471082   -1.8899937789    1.2376067920
 H   -2.7648287915   -0.0658299134    1.2501423216
 H   -2.7515497542   -0.0449686074   -1.2819965436
 H   -2.7823545860   -1.8690882140   -1.2998429756