16

 N   -0.1338564182    1.4051987314    0.0038185149
 C   -0.0375328215    0.0002578388   -0.0131852524
 C   -1.0756493345   -0.9099073022    0.0035983455
 N   -2.4159906646   -0.5106460301    0.0415724887
 C   -3.5117009895   -1.3171703236    0.0603623500
 O   -3.5065446940   -2.5307424019    0.0473715443
 C   -0.5253205504   -2.2225417117   -0.0236857773
 C    0.8419434149   -2.0733273542   -0.0569022033
 N    1.1350595214   -0.7346629360   -0.0504493701
 H    0.2897890641    1.8325807438    0.8211344118
 H    0.2479667056    1.8496278875   -0.8249333145
 H   -2.5571984509    0.4897409443    0.0554989742
 H   -4.4436299314   -0.7179936628    0.0900502682
 H   -1.0856331975   -3.1401759200   -0.0189389410
 H    1.6248941087   -2.8137063839   -0.0844061043
 H    2.0573954180   -0.3369588194   -0.0697158348