18

 C   -0.0909883086    1.5813247944    0.0125390686
 C   -0.0503426563    0.0428291110   -0.0129611967
 C   -1.4689707047   -0.5519539799    0.0422192277
 C    0.7077674803   -0.4635235373   -1.2073751262
 N    0.3344535241   -0.2386966364   -2.4712571733
 N    1.2584377678   -0.8463461806   -3.1958814457
 N    2.2307501227   -1.4666072480   -2.5205610800
 C    1.8914171831   -1.2302604417   -1.2592852091
 O    2.6016059526   -1.6758791908   -0.2044532645
 H    0.9177920518    2.0049399471    0.0178936451
 H   -0.6125315962    1.9655672713   -0.8694637295
 H   -0.6163694626    1.9379395761    0.9044402463
 H    0.4999650552   -0.3003684708    0.8709185057
 H   -2.0448833120   -0.2517666258   -0.8385767422
 H   -1.4401124832   -1.6453838765    0.0685999466
 H   -1.9987397112   -0.2022406082    0.9342590223
 H    1.2344652122   -0.8441079442   -4.2012316992
 H    3.3569665049   -2.1692533500   -0.5465675358