15

 C    0.0237235280    1.5018725260   -0.0667870635
 N   -0.0588889545    0.0490109131    0.0505286387
 C    0.0057022793   -0.5519758907    1.2865365873
 O    0.0551468300    0.0342088424    2.3394172457
 C   -0.0804468971   -0.7488554013   -1.1547204328
 C   -1.3840571470   -0.5072370020   -1.9533561770
 O   -1.4469300603   -0.4001546765   -3.1417926369
 C    1.1163847241   -0.5622228196   -1.9906882008
 N    2.0682196072   -0.3934249253   -2.6214207636
 H    0.9362370768    1.7958422294   -0.5955816413
 H   -0.8414985197    1.9010277597   -0.6065982655
 H    0.0386071995    1.9065244951    0.9445674256
 H   -0.0052137170   -1.6571039716    1.2054669942
 H   -0.1224626751   -1.8056586590   -0.8493913723
 H   -2.2708010444   -0.4573266496   -1.2849070181