18

 C    0.1004901529    1.3676028798   -0.2601163437
 O   -0.1268936404   -0.0145631326   -0.0369211766
 C    0.5707394331   -0.5374787454    1.0694778443
 C   -0.0445774333   -1.8995265303    1.3870753399
 C   -1.4070764519   -1.7453412781    2.0690694175
 C   -2.3285429551   -2.9426216898    1.9868703859
 O   -1.7059397579   -0.7302616222    2.6520669646
 C    2.0196278992   -0.6505149441    0.7859093038
 N    3.1495204805   -0.7279794398    0.5560672173
 H    1.1559051796    1.5722140115   -0.4851231303
 H   -0.5089887267    1.6494262360   -1.1205277405
 H   -0.2036209384    1.9650355178    0.6105615142
 H    0.4416276121    0.1110243561    1.9486104428
 H   -0.1293740125   -2.4882023700    0.4687091695
 H    0.6062355813   -2.4636827877    2.0668337327
 H   -1.7998195717   -3.8623484896    2.2601340899
 H   -3.1921702194   -2.7967773799    2.6362927961
 H   -2.6679101115   -3.0675963415    0.9516730727