17

 O    0.0638765854    1.3766612831   -0.0693792590
 C   -0.0283937501   -0.0040501384   -0.0542307620
 C   -0.4736357392   -0.6948314912    1.2121040202
 O   -0.8999223108    0.2016261965    2.2103113478
 C   -2.2619096640    0.0364223622    2.5289405494
 C   -3.1840035201    1.1864270071    2.2248243682
 C   -3.1691320191   -0.0276901622    1.3335111847
 O   -2.5086593883    0.1157714443    0.1046270394
 C   -1.3773425139   -0.7020022590   -0.0072028178
 H   -0.2690462051    1.6794427962    0.7859369693
 H    0.7479498267   -0.4788998024   -0.6469306981
 H    0.0046553218   -1.5983529700    1.5827315345
 H   -2.4404073142   -0.5901020134    3.3992115210
 H   -4.0374623361    1.3437513896    2.8747852124
 H   -2.7345978206    2.0846569764    1.8169228141
 H   -4.0187932012   -0.7066121066    1.3193273462
 H   -1.5264873813   -1.6238220921   -0.5665397106