18

 C   -0.0024796985   -1.1798808087   -0.1908264320
 C   -0.0333529346    0.0063198145    0.0031283122
 C   -0.0275057604    1.4472350629    0.2280972692
 C    1.3657167103    2.0689326901    0.0405670645
 C    2.0089717888    2.0948939012   -1.3885202798
 C    2.1804737803    3.6143104672   -1.2612792091
 C    0.8417735596    4.2649063102   -1.0717279107
 C    1.4957171924    3.5973247656    0.1090057362
 H    0.0098627032   -2.2279601959   -0.3591212988
 H   -0.7435258912    1.9245651391   -0.4523162088
 H   -0.3836473552    1.6631705864    1.2442863823
 H    2.0556749524    1.5949199022    0.7436974594
 H    2.9489767709    1.5419999002   -1.4314976855
 H    1.3712106890    1.7583973913   -2.2129435247
 H    3.0518725170    4.1764032491   -1.5735571768
 H    0.8476093461    5.3497781369   -1.0386985587
 H   -0.0449339123    3.8452756710   -1.5419039379
 H    1.7447493922    4.1573274768    1.0029350992