19

 C   -0.0287525461    1.3927894411    0.0111814305
 N    0.0067369799   -0.0587567966    0.0162893441
 C    0.5676119483   -0.6395214193   -0.9581286079
 O    1.1625819675   -0.0424355815   -2.0485422429
 C    1.6487391660   -1.0491970875   -2.8687514268
 C    1.3815198816   -2.2482456869   -2.3353015630
 C    1.6920797935   -3.6179193747   -2.8252260464
 N    0.7026219135   -2.0064408374   -1.1352651938
 C    0.1999365261   -2.9765111336   -0.1899636970
 H    0.9762745493    1.8396633503    0.0026379262
 H   -0.5665047088    1.7988270252   -0.8581950890
 H   -0.5410439189    1.7393496636    0.9127735582
 H    2.1463962981   -0.7439147842   -3.7716592856
 H    2.2243282908   -3.5609553760   -3.7771645785
 H    2.3220750141   -4.1691092594   -2.1173448751
 H    0.7822654859   -4.2094158779   -2.9807250305
 H    1.0076741851   -3.5901790225    0.2245773958
 H   -0.2713588397   -2.4144078482    0.6174070528
 H   -0.5442620261   -3.6368573846   -0.6491628011