25

 C    0.6101860564   -1.1567838654    1.2375367303
 C    0.1869281299   -0.4109134210   -0.0405848113
 C    1.2325244028   -0.5841727257   -1.1507274046
 C   -1.2725910792   -0.7176480206   -0.4311939303
 C   -2.2537762299    0.1653455248    0.3189523758
 O   -2.0450788059    1.5187737733   -0.0740707863
 C   -1.6914742699   -1.0568983098   -1.8457437394
 C   -1.8179039715   -2.0993188256   -0.7624451643
 C   -1.0106485837   -3.3800874578   -0.7989346699
 H    1.5664339300   -0.7734999719    1.6098288713
 H   -0.1265083794   -1.0378016515    2.0387842095
 H    0.7316207102   -2.2289930416    1.0564750208
 H    0.1808217840    0.6601282033    0.1948617185
 H    1.3483506252   -1.6250920632   -1.4695452735
 H    0.9815228181    0.0130690937   -2.0317119346
 H    2.2112348406   -0.2487270035   -0.7907228737
 H   -3.2838370592   -0.1488140994    0.0902827228
 H   -2.1095133764    0.0511950930    1.4054012846
 H   -2.5388650249    2.0842671747    0.5266955462
 H   -2.5856089078   -0.5874014975   -2.2429057495
 H   -0.9114681061   -1.2094278422   -2.5833940433
 H   -2.8323543550   -2.2649194556   -0.4036406675
 H   -0.0044335774   -3.2309363522   -1.1965994642
 H   -0.9130923088   -3.8253793112    0.1969608273
 H   -1.5075361022   -4.1170297672   -1.4406582147