12

 N   -0.0432073094    1.2317095222    0.4011099888
 C   -0.0320278684    0.0334902741   -0.0020100813
 O    1.1124921687   -0.5629882291   -0.4844472066
 N    1.1288410313   -1.8871012956   -0.9307823005
 C    0.0072834374   -2.5111242926   -0.8617713396
 N   -1.2137852956   -2.0499170559   -0.4056973983
 C   -1.2384117150   -0.8233304796    0.0100758375
 C   -2.4488414860   -0.2620290818    0.4970940811
 C   -3.4813600864    0.1996928768    0.9068156707
 H    0.8814002788    1.6579715974    0.3148316644
 H    0.0376604170   -3.5373525346   -1.2120277301
 H   -4.3894027925    0.6157380988    1.2704880740