20

 N   -0.1056720968   -1.1384219563   -0.1118703967
 C   -0.0637510674    0.0160839082   -0.1400622416
 C    0.0148122746    1.4749508052   -0.1694920138
 C    1.4406397218    1.9991925918    0.0936712230
 C    1.5043764578    3.5282940028    0.0616724402
 C    2.9174219884    4.0715632984    0.3136975263
 C    2.9640979210    5.5793233746    0.2693106214
 C    4.0927583565    6.3196441873   -0.3060781326
 O    2.8667245100    6.1786660014   -1.0268079207
 H   -0.3423726384    1.8228852465   -1.1458925657
 H   -0.6807481291    1.8745436315    0.5780333025
 H    1.7843153811    1.6271106595    1.0656599419
 H    2.1189612802    1.5788681148   -0.6574397491
 H    1.1555645302    3.8956852064   -0.9113500625
 H    0.8157781351    3.9391972447    0.8128930700
 H    3.2798104814    3.7320020482    1.2933561073
 H    3.6074562114    3.6729421053   -0.4394281074
 H    2.3652460563    6.0865072710    1.0293524480
 H    4.3181264021    7.3264457348    0.0427814461
 H    4.9403902738    5.7707417841   -0.7149336165