19

 C   -0.6948339722    1.2492902625   -0.0783525281
 C    0.0161243465   -0.0991605822   -0.0605084063
 C    1.0339785565   -0.3247372938   -1.2208119330
 O    1.6296541509    0.8719873003   -1.7245816115
 C    2.0705094807   -1.2363618077   -0.5991104587
 C    1.9704492364   -1.2636746600    0.7309553857
 C    0.8196645496   -0.4445487360    1.2002868686
 C    0.8612165716    0.3438905985    2.4454870747
 O    0.1068184043   -0.8658374295    2.3708885097
 H    0.0136028897    2.0797166151   -0.0199461269
 H   -1.2652417704    1.3722656477   -1.0037572856
 H   -1.3948380875    1.3271469020    0.7596064392
 H   -0.7347335710   -0.8952968801   -0.1436104132
 H    0.5431408286   -0.7650250140   -2.0943274896
 H    2.2553740505    1.1845096117   -1.0615056168
 H    2.8358264132   -1.7252466755   -1.1909744687
 H    2.6172183657   -1.7937325351    1.4208651484
 H    1.7464426456    0.3064554207    3.0806542378
 H    0.2761007712    1.2588220954    2.5234489545