17

 N    0.2708138013   -0.1372181599    1.3953138382
 C    0.1362707009    0.5714352312    0.4927775143
 C   -0.0469886854    1.4809714456   -0.6584244660
 O    1.0839199682    2.2489428923   -0.9653305261
 C    1.3864958396    3.2637776172   -0.0305578092
 C    2.2609596871    2.9373382887    1.2414930305
 C    3.2350651542    4.0169193852    0.7608942139
 N    3.7438119570    3.5296735250   -0.5384328576
 C    2.4487316936    4.2516530534   -0.4873726830
 H   -0.2702918667    0.8751705757   -1.5419315779
 H   -0.9272200126    2.1110801174   -0.4519085740
 H    0.4663974966    3.7899270373    0.2617656573
 H    1.7454424097    3.1596377202    2.1769328537
 H    2.6831467307    1.9323211425    1.2714452911
 H    3.7934924750    4.7258809774    1.3579118205
 H    4.4317209976    4.2056750473   -0.8705181506
 H    2.2925384532    5.1526097534   -1.0674763450