21

 C    0.0498514954    1.4032350082    0.2057073289
 N    0.0080160550    0.0480853009   -0.3188030615
 C    1.2157413734   -0.7109679228   -0.0696502489
 C   -1.1891001505   -0.6564417882   -0.1086682499
 C   -1.3204046506   -1.9981207287    0.1958221813
 N   -2.6728803542   -2.2831098165    0.2446078898
 C   -3.4062439764   -1.1544651516   -0.0031085031
 C   -4.8995516521   -1.1625447975   -0.0089845824
 C   -2.5147222970   -0.1282937236   -0.2264582124
 H    0.9569794499    1.8999995658   -0.1524791459
 H   -0.8069444012    1.9761391671   -0.1549516194
 H    0.0467824988    1.4439061536    1.3098258355
 H    1.3290810017   -1.0192240240    0.9866336674
 H    1.2177523125   -1.6149072853   -0.6870420734
 H    2.0871038613   -0.1098071073   -0.3445041554
 H   -0.5860778639   -2.7635778832    0.3763107060
 H   -3.0592198431   -3.1880383875    0.4455380320
 H   -5.3173244985   -1.4708926265    0.9580197782
 H   -5.2764042286   -0.1602805822   -0.2250285458
 H   -5.3076732731   -1.8396763361   -0.7701714463
 H   -2.7900264489    0.8876436255   -0.4628332045