16

 C   -0.0063277258   -1.1966642415   -0.0228927837
 C    0.0112285303    0.0067612210   -0.0148914796
 C    0.0179876180    1.4268503824    0.0269710367
 C    0.3039248313    2.3056091679   -1.1708809154
 C    1.1973968150    2.4300832531    0.0214722166
 C    0.5271105157    3.2741441055    1.1067359346
 C   -0.6773151171    2.2624636658    1.1344392129
 C   -2.0055272442    2.7806129358    0.8355480243
 N   -3.0472249472    3.2119854584    0.5788593359
 H   -0.0234505248   -2.2582572125   -0.0395598467
 H    0.7205774353    1.7733910130   -2.0182681980
 H   -0.3922931067    3.0993504268   -1.4308460532
 H    2.2520688305    2.1915802667   -0.0217340468
 H    1.0603275056    3.2771386390    2.0579861323
 H    0.2806505841    4.3019906022    0.8293608243
 H   -0.7073773400    1.7133179264    2.0771129056