17

 C   -0.0328750049    1.5100189874   -0.0560213019
 C    1.5271660459    1.3618288589    0.0086739959
 C    1.1485752400    0.1653306927    0.9493793628
 N   -0.0813511623   -0.0259242811    0.0427758401
 C    0.6349423324   -0.3210339625   -1.1937242400
 C    0.6406755614   -1.1329291837   -2.2867990192
 N    1.7368581385   -0.7334630270   -3.0403698852
 C    2.4093133317    0.3164681047   -2.4262621636
 C    1.7327589532    0.5838199980   -1.2734390267
 H   -0.4777712275    1.9536776779    0.8393245635
 H   -0.4813578253    1.9185989078   -0.9635244655
 H    2.1986852140    2.1691936675    0.2994090518
 H    1.8166570733   -0.6969233427    0.9920593147
 H    0.8281590475    0.4673284904    1.9506487656
 H    0.0027705658   -1.9374814184   -2.6135054009
 H    2.0069578130   -1.1490590645   -3.9134223028
 H    3.2865307232    0.7441725648   -2.8849702885