17

 C   -0.0534898465    1.4213984444    0.0226651536
 N    0.0122706733   -0.0347204562    0.0920191516
 C   -1.1741604850   -0.7319625739    0.0296863347
 N   -2.3667965832   -0.2041340439    0.0509030123
 O   -3.2437227804   -1.2704629340    0.0237800347
 N   -2.5685035792   -2.4743340327   -0.0153272171
 C   -1.3014495512   -2.1644978968   -0.0131530994
 N   -0.2572125101   -3.0594332018   -0.0927663105
 C   -0.5769854072   -4.4813905669   -0.0205545971
 H    0.9580401034    1.8239313554    0.1066210817
 H   -0.5151871911    1.7855404956   -0.9049878107
 H   -0.6502878063    1.7910164914    0.8598152210
 H    0.7251486721   -0.4415425435   -0.4997992033
 H    0.5250298696   -2.7852015280    0.4876194321
 H   -1.0812274795   -4.7600009427    0.9145491637
 H   -1.2422787582   -4.7390559054   -0.8479585812
 H    0.3465657994   -5.0554365009   -0.1195462061