17

 C    0.2045202680    1.4826757064    0.0803994417
 C   -0.0610519740   -0.0197316405   -0.0463542676
 C    0.6640913751   -0.6416221727   -1.2901746754
 C    1.8915592170   -1.2236197698   -0.6564091252
 N    3.0330711020   -1.7071732950   -1.0567734283
 O    3.6782783248   -2.0896788620    0.1202676777
 C    2.8784403400   -1.8185320317    1.1969215704
 C    1.7274579710   -1.2624949722    0.7497777196
 N    0.4709745512   -0.7843716113    1.1260600321
 H    1.2802099226    1.6867866238    0.1144370998
 H   -0.2205368910    2.0252157136   -0.7703788631
 H   -0.2507888111    1.8859153220    0.9916205303
 H   -1.1398021936   -0.1912098867   -0.1103507174
 H    0.0545029432   -1.4289638758   -1.7462658013
 H    0.8689644440    0.1074012152   -2.0586150327
 H    3.2931529162   -2.0721658351    2.1578592116
 H    0.4255497347   -0.2726591284    1.9975027876