16

 C    1.1189184766    0.9239359741    0.5849759608
 C    0.2796130772   -0.2571804202    0.2181331063
 N    0.2665692622   -0.7561078009   -1.0198361962
 N   -0.5834756059   -1.7723662911   -0.9401850754
 N   -1.1455695495   -1.9826039392    0.2388724917
 C   -0.6065539050   -1.0315574963    1.0072386252
 C   -0.9944982091   -0.9234322576    2.4272825776
 C   -0.0448305704   -0.5914439595    3.5033103767
 O   -0.9675665086    0.3833124499    3.0205539058
 H    2.0739457066    0.6151686434    1.0265993075
 H    1.3439182416    1.5156220167   -0.3048757727
 H    0.5991982814    1.5473787532    1.3151397348
 H   -0.8092186958   -2.3376024058   -1.7422507286
 H   -1.8659424772   -1.5216340237    2.6879252032
 H   -0.2329640721   -0.9569164150    4.5118422798
 H    1.0002805181   -0.4090186881    3.2598612534