21

 C   -0.0274581354    1.5215038883    0.0050060696
 C    0.0222700223    0.0162049714   -0.0219022931
 C    0.6588289590   -0.7486870811   -1.2136805359
 C    0.9363163069   -2.0917434345   -0.6097451786
 C    1.2547005043   -1.9570603834    0.8699997778
 C    0.3576823320   -0.7920328794    1.3139985276
 C   -1.1267093669   -1.2548311793    1.3833717582
 C   -1.2504898576   -0.8887608707   -0.1087688556
 C   -0.4691133879   -1.7745990799   -1.1040581756
 H    0.9754118610    1.9505979748    0.1225638790
 H   -0.4517377952    1.9211522579   -0.9232539180
 H   -0.6424257299    1.8866891862    0.8354163568
 H    1.1513206677   -0.3270436427   -2.0816258194
 H    1.4755169654   -2.8203658714   -1.2072195440
 H    1.0525325726   -2.8662987846    1.4477982299
 H    2.3180335941   -1.7162558606    0.9947170567
 H    0.7484446754   -0.2333724091    2.1670151328
 H   -1.3102362091   -2.2910090052    1.6854252048
 H   -1.7377240771   -0.5923348626    2.0041997381
 H   -2.1918117131   -0.5026744902   -0.5063044596
 H   -0.9165558684   -2.3738964338   -1.8887260117