22

 C   -0.8324721254    1.6306756087    0.5486604442
 C   -0.5952646289    0.1670565005    0.2186312750
 O   -1.8193237912   -0.5318174420    0.3787216748
 C   -1.7313978991   -1.9137692941    0.1411514298
 C   -2.9636376775   -2.6904581320    0.5659917834
 C   -4.1336046889   -2.3028915151   -0.2432467725
 N   -3.1826643554   -3.2652749613   -0.8275433637
 C   -1.9865290521   -2.4703763809   -1.3052039785
 C   -2.2128163442   -1.5193276590   -2.4670046505
 H    0.0959565020    2.2004270956    0.4462503325
 H   -1.5791964290    2.0604548248   -0.1250833086
 H   -1.1960104092    1.7374447865    1.5745763145
 H   -0.2194637286    0.0610445053   -0.8109678088
 H    0.1690641372   -0.2626866657    0.8873472019
 H   -0.8045995616   -2.3154211638    0.5725431472
 H   -3.0410696904   -3.3048090422    1.4565815834
 H   -5.0825170962   -2.7647680139    0.0111270459
 H   -4.2111146182   -1.2942512873   -0.6349603970
 H   -1.2173598144   -3.2012383285   -1.5711449960
 H   -2.8197812523   -0.6552280310   -2.1870807931
 H   -1.2569770292   -1.1424288118   -2.8456399136
 H   -2.7138418772   -2.0460620431   -3.2860202805