23

 C    0.1377510862    1.1484034545   -0.3506680133
 O   -0.0020533654   -0.1163583032    0.2536877605
 C   -1.3177487705   -0.6048772355    0.2271736467
 C   -1.9017950006   -1.1409079651   -1.1195272780
 C   -2.3489394864   -2.4426549345   -0.3857150541
 C   -1.4267733723   -3.6800658048   -0.5509509559
 C   -0.9332421108   -4.1105884400   -1.9242388853
 C   -0.4285870357   -3.0424972368    0.4646813197
 C   -1.5043406105   -1.9895103169    0.8631440465
 H    1.1880872192    1.4378071919   -0.2649521101
 H   -0.1376078935    1.1303935152   -1.4160399646
 H   -0.4820861830    1.9092545821    0.1502936772
 H   -2.0014739600    0.1325573506    0.6783110312
 H   -2.7063818304   -0.5464498132   -1.5576538709
 H   -1.1348392972   -1.2991530638   -1.8825023052
 H   -3.4262680484   -2.6110436474   -0.3503663123
 H   -1.9231771995   -4.5312964519   -0.0697767416
 H   -0.4120020291   -3.2994807862   -2.4437039315
 H   -0.2297206031   -4.9465131904   -1.8388869871
 H   -1.7619445609   -4.4381329251   -2.5624826022
 H   -0.0883582822   -3.6982874390    1.2688712392
 H    0.4487753539   -2.5846809790    0.0014615723
 H   -1.8670246700   -2.0347085913    1.8905510185