19

 O   -0.0751016777    1.4294206145    0.0279755846
 C    0.0001639643    0.0080350649    0.0177866062
 C   -1.3990514987   -0.5392045342    0.0554413435
 C   -2.3387514901   -0.4763709325    1.3002941484
 C   -3.0884420371   -1.5693269465    0.5125668552
 O   -3.5463479352   -0.8994395778   -0.6815605102
 C   -2.3840531017   -0.0964714465   -1.0332995470
 C   -1.7041010339   -2.0894399043    0.0603545908
 O   -1.6225358542   -2.8311529250   -1.1175857321
 H    0.8189615680    1.7789905012   -0.0298945923
 H    0.5051107874   -0.3594449264   -0.8906623929
 H    0.5681428811   -0.3672880672    0.8839210733
 H   -1.8660115825   -0.8478343983    2.2118714515
 H   -2.8735157154    0.4554577404    1.4878187770
 H   -3.8858141712   -2.1954614319    0.9093889806
 H   -2.6294569568    0.9672686350   -0.9879492094
 H   -2.0480227426   -0.3494792719   -2.0453736685
 H   -1.1478469313   -2.6102532155    0.8428913416
 H   -2.3983506824   -2.5869041379   -1.6402753303