18

 O   -0.3792365124    0.4104411150    0.9113988283
 C   -0.1735303940    1.4166855098    0.2743516449
 C    1.1970553658    1.9011041776   -0.0817257369
 C    2.1254734497    1.9971144493    1.0996624689
 N    2.2829445874    0.9326067204    0.1202810778
 C    1.2932962472    2.8426101107   -1.2565228432
 C    2.6791462594    3.3548143877   -1.7090500205
 O    2.4385933324    2.9310973661   -3.0659487669
 C    1.2328321931    2.2437674319   -2.6846541655
 H   -1.0116743853    2.0501422909   -0.0882376401
 H    2.8962925273    2.7632652411    1.0886789835
 H    1.7186081413    1.7532678738    2.0768916196
 H    1.8643454171    0.0776621114    0.4887806712
 H    0.5765405510    3.6591248648   -1.1240854410
 H    2.8507838027    4.4346954736   -1.6386558615
 H    3.5223596280    2.8149257763   -1.2619304366
 H    1.3566965504    1.1530662773   -2.7135306514
 H    0.3783302991    2.5303321424   -3.3081847007