18

 C   -0.0698498993    1.5346403999   -0.0275932992
 C   -0.0148768501    0.0297444052    0.0099568608
 C    1.2357550343   -0.7152150474   -0.3539429557
 C    0.7381060723   -0.7492917490    1.0801321535
 N    1.5362844092   -0.1375230433    2.0938513178
 C   -0.1144958690   -1.9480784046    1.3863478530
 O    0.0417432474   -2.7543177769    2.2594405290
 O   -1.1649560449   -1.9996937984    0.5170310481
 C   -1.2894554028   -0.7692684870   -0.2217984248
 H    0.8585479257    1.9529975105    0.3692380805
 H   -0.2061512878    1.9045530544   -1.0497805092
 H   -0.8979991175    1.9158248754    0.5804075859
 H    1.1765887051   -1.6166559154   -0.9562088113
 H    2.1297874095   -0.1184278102   -0.4988522967
 H    0.9942588732   -0.0218584905    2.9455965271
 H    2.3104015257   -0.7501195123    2.3355182714
 H   -2.1694530158   -0.2327915559    0.1528515291
 H   -1.4572561753   -1.0260596243   -1.2725371192