16

 C   -0.0655894092    1.3459133721   -0.1315127998
 N    0.0177041723   -0.0448634149    0.2501970617
 C   -1.1650293092   -0.9046879543    0.1120164389
 C   -0.5701401559   -2.3034050711    0.0042480344
 C    0.8648319624   -2.1374785752   -0.1296599527
 C    1.1302241371   -0.8155592610   -0.0033799238
 N   -1.3183387515   -3.3421750317    0.0574420247
 O   -0.5418604660   -4.5171080193   -0.0652264121
 H    0.8973357422    1.8314317079    0.0496585676
 H   -0.3287607404    1.4841948260   -1.1933801447
 H   -0.8207071325    1.8569543690    0.4743573571
 H   -1.8458484725   -0.7936008750    0.9613992285
 H   -1.7185698804   -0.6409235326   -0.8017342380
 H    1.5783777618   -2.9364109976   -0.2346529875
 H    2.0963619292   -0.3265568263   -0.0476014553
 H   -1.2121778874   -5.2042456360    0.0010495811