20

 C   -0.0610139684    1.5216126886   -0.0539344691
 C    0.0612904525    0.0028570623    0.0202289567
 C    1.0665086664   -0.6161511580   -0.9733497753
 O    2.3117589184    0.0457022710   -0.5982474003
 C    2.2437082320   -0.7664935950    0.5733058664
 C    1.5004324033   -1.9070798851   -0.1263099451
 N    0.6368801155   -2.0906309480    1.0398903555
 C    0.7909987734   -0.6157044408    1.2553573582
 C    0.5556798058   -0.0776739096    2.6417276828
 H    0.9225506950    1.9937625664   -0.0118214121
 H   -0.5427922712    1.8274151179   -0.9891237967
 H   -0.6698520506    1.9072642955    0.7701848789
 H   -0.9303154609   -0.4582556079   -0.0725832296
 H    0.8702222368   -0.6053992656   -2.0448305147
 H    3.1449058106   -0.8202367984    1.1808463923
 H    1.9479645983   -2.7637654034   -0.6278920354
 H   -0.3197601573   -2.3799326612    0.8338813956
 H    1.1472392300   -0.6334301448    3.3747825995
 H    0.8326096953    0.9795331325    2.7023255754
 H   -0.4993645748   -0.1631936564    2.9283079069