20

 C   -0.5194484946    1.6929602805   -0.1013687154
 C    0.0209705608    0.2726191168    0.0210607080
 C   -1.0835459366   -0.7765832643   -0.1343541324
 O   -1.6764051070   -0.7872480328   -1.4228020625
 C    1.2633607082   -0.0547273388   -0.8846888411
 C    1.9992731127   -0.4658850162    0.3709860351
 C    0.8905043415   -0.0123951807    1.2967655671
 N    3.1233130787   -1.0307857824    0.5127267939
 O    3.4049462516   -1.2490725025    1.8764365808
 H    0.2775408890    2.4320942431    0.0283391514
 H   -0.9613031568    1.8675796580   -1.0896236345
 H   -1.2864183002    1.8939852712    0.6564311384
 H   -0.6585906734   -1.7776260975    0.0007273014
 H   -1.8391007971   -0.6338482262    0.6558206066
 H   -2.1984592917    0.0147394276   -1.5193229235
 H    1.1049278415   -0.8290691175   -1.6395157620
 H    1.6949553026    0.8229601435   -1.3772848482
 H    1.1438157526    0.8791873682    1.8798250604
 H    0.5127426861   -0.7728953503    1.9880470198
 H    4.2615687221   -1.6875063796    1.8370239967