18

 N   -0.4463965409    1.1282457060    0.4147978804
 C   -0.4655196106   -0.1276983121    0.5318174594
 O   -0.6051549994   -0.9065868315   -0.5587166223
 C   -0.8075817864   -2.3085149708   -0.3408747360
 C   -2.2579923002   -2.6521780503   -0.2368036329
 C   -3.0590731726   -2.6392863243    1.0553208567
 C   -2.9696456801   -3.8977634033    0.2510903243
 O   -3.9058569600   -3.8865530930   -0.8238268835
 C   -3.2384382460   -2.7320222004   -1.4068504453
 H   -0.2981841678    1.5594854496    1.3247223236
 H   -0.3548358798   -0.6983120822    1.4653989840
 H   -0.3502467144   -2.7988346387   -1.2056774007
 H   -0.2671507106   -2.6348992148    0.5582586439
 H   -2.4582821802   -2.6207426228    1.9602419047
 H   -4.0056584972   -2.1097862905    1.1164646301
 H   -2.6131481758   -4.8566359350    0.6105649091
 H   -3.9180942451   -1.8877448154   -1.5631804075
 H   -2.7588970028   -3.0056098604   -2.3538859581