19

 C    0.0652429608    1.6943308846   -0.2037572571
 C   -0.0291927625    0.1685319160   -0.1297177107
 C    0.7277519256   -0.5479260772   -1.2430016061
 C    0.6805574984   -2.0674061794   -1.1374705764
 O    0.0981552891   -0.1345616685   -2.4954859460
 C    0.8450444760   -0.1594924408   -3.5922486363
 O    1.9991627758   -0.5042265790   -3.6805706679
 C    0.0795166638    0.3262539417   -4.8305507302
 O   -1.0618885702    0.6909582633   -4.8296933374
 H    1.1062448985    2.0303222711   -0.1409843879
 H   -0.3539732478    2.0661392845   -1.1424776533
 H   -0.4851104346    2.1589938339    0.6192274450
 H    0.3774631804   -0.1884835089    0.8240149140
 H   -1.0787877064   -0.1478601923   -0.1612262866
 H    1.7684685825   -0.2102328900   -1.2819571448
 H    1.2344175407   -2.5294591291   -1.9576038497
 H    1.1359922972   -2.3879108047   -0.1955610612
 H   -0.3537686098   -2.4238232260   -1.1598435158
 H    0.7210169424    0.2987106306   -5.7343891116