20

 C    0.2679599104    1.4504615080   -0.1318196389
 C    1.1625586445    0.2254551137   -0.1445400038
 C   -0.3399120281    0.0870328210   -0.1360239033
 O   -1.0005177054   -0.3045379786    1.0276193361
 C   -1.1198785100   -1.6988976555    1.1786346285
 C    0.0535764395   -2.5158678154    1.7907245808
 C   -1.0070114717   -3.3069122257    2.6055820888
 C   -2.0054371192   -2.1414453704    2.3587413235
 H    0.2017282822    2.0019447403    0.7990633080
 H    0.1904843087    2.0567025088   -1.0271819333
 H    1.7030711568   -0.0205420167   -1.0522335468
 H    1.6849408543   -0.0102214088    0.7750491193
 H   -0.8183398753   -0.2597921725   -1.0534956031
 H   -1.4563883762   -2.1533577449    0.2342318742
 H    0.7141716460   -3.0665471928    1.1174893120
 H    0.6540787002   -1.8734169548    2.4410270597
 H   -1.3147806356   -4.2238951533    2.0955477076
 H   -0.7662808247   -3.5519739154    3.6415873077
 H   -1.9531122578   -1.3940508895    3.1555555193
 H   -3.0527178886   -2.3765761075    2.1572323036