15

 C   -0.0758953938    1.5384187959   -0.0914091945
 C    0.0252665312    0.0400919771   -0.0202635087
 C   -0.8073906349   -0.7824848316    0.9304911112
 C    0.6921355276   -0.7737390401    1.1212657696
 O    1.4083316330   -1.8118378816    0.4709690402
 C    1.1535758158   -1.6357658598   -0.8558191793
 N    0.4359455934   -0.6540031094   -1.2199028891
 C    1.3238101698   -0.2472540761    2.2904318921
 N    1.8040351049    0.2162063950    3.2353271235
 H    0.8451965322    1.9689143760   -0.4931975216
 H   -0.9028630231    1.8250359059   -0.7480001868
 H   -0.2563119715    1.9647186531    0.8987784478
 H   -1.3729268538   -0.2386488648    1.6787096492
 H   -1.2579011599   -1.7043730997    0.5780911386
 H    1.6062612991   -2.3775712300   -1.5013534623