15

 C   -0.0360405811    1.5651418868    0.0172636328
 C    0.0110865724    0.0674182334    0.0026907890
 C   -0.8859445961   -0.8233613597    0.8289437098
 C    0.6084369027   -0.9380765915    0.9897452354
 O    1.1589343620   -1.7502277368   -0.0461018070
 C    0.7071962541   -0.7966246413   -1.0500741863
 C    1.3251570454   -0.7652792131    2.2109897202
 N    1.8936786210   -0.6027290793    3.2059440711
 H    0.9306715208    1.9962748863   -0.2616472647
 H   -0.7891008670    1.9373109131   -0.6869743720
 H   -0.2986807417    1.9400814528    1.0108091135
 H   -1.4071331343   -0.3190273183    1.6362754852
 H   -1.4070821240   -1.6693989713    0.3894680101
 H    0.0813510229   -1.2670983385   -1.8159336962
 H    1.5661737930   -0.3019976025   -1.5165137009