21

 C   -0.0948302315    1.4072809012   -0.1278343646
 C    0.0275532025   -0.1115959106    0.0222513629
 C    0.7689619121   -0.4970457477    1.2916088760
 O    0.8341158412   -1.9353428103    1.3455590728
 C    1.4632824029   -2.4569261176    2.4155803290
 O    1.9546033995   -1.7915338943    3.2949936833
 C    1.4659993215   -3.9676327328    2.3587360922
 C    2.1721645187   -4.5899072105    3.5548543862
 O    2.1077144317   -5.9981308540    3.3871153510
 H    0.8899334182    1.8850922556   -0.1708267172
 H   -0.6303247811    1.6668933886   -1.0452138876
 H   -0.6410653469    1.8490320666    0.7126398625
 H   -0.9669215567   -0.5721179320    0.0382945965
 H    0.5548846268   -0.5362529544   -0.8396686573
 H    1.7869025564   -0.0924311079    1.3072630923
 H    0.2592453024   -0.1285650911    2.1885836573
 H    0.4314842360   -4.3239405525    2.3012625948
 H    1.9440141813   -4.2883955022    1.4265061521
 H    3.2101805841   -4.2307220497    3.5985088659
 H    1.6804966881   -4.2660249352    4.4831452654
 H    2.5499290629   -6.4075190695    4.1361682564