18

 C   -0.0193041597    1.4569397131    0.1516860392
 C    1.5054227151    1.5911096921   -0.1766676235
 C    1.4826037404    0.1519076343   -0.6954641110
 C    2.3511667709   -1.0427800690   -0.5177567246
 C    1.7495054282   -2.0703177690   -1.1504151313
 C    0.5747021897   -1.5771530860   -1.9089633673
 C    0.6603220251   -0.1137999539   -1.9942217259
 N   -0.5237572465   -0.6422098025   -1.2426035616
 C    0.0644239265   -0.0926628595   -0.0196050071
 H   -0.3196324923    1.7911685584    1.1461577028
 H   -0.6761121615    1.9212202971   -0.5874891035
 H    1.8089879175    2.3730493430   -0.8786411969
 H    2.1074490495    1.6896223581    0.7316032516
 H    3.1694145679   -1.1128690672    0.1892865144
 H    2.0221257245   -3.1157439003   -1.0857335990
 H    0.1020408877   -2.1594353270   -2.6885657469
 H    0.5885184748    0.5039517284   -2.8856481235
 H   -0.0530167778   -0.6894864402    0.8888869741