16

 C   -0.0009462705    1.5778768806    0.0371839384
 C   -0.0010804200    0.0473796521   -0.0053659898
 C   -1.4195034392   -0.5284241284   -0.0024268410
 C   -1.4407292330   -2.0843987622   -0.0319327532
 C   -2.8104770142   -2.5974271000    0.1086480431
 N   -3.8951047683   -2.9675939129    0.2470919017
 C   -0.8139193123   -2.6153294644   -1.2517209341
 N   -0.2966659511   -3.0048506228   -2.2075653961
 H    1.0207562837    1.9675348105    0.0356908661
 H   -0.5195490832    1.9978251933   -0.8310085029
 H   -0.5004428358    1.9519075341    0.9372750919
 H    0.5311218983   -0.2982816139   -0.8990004362
 H    0.5518924643   -0.3465294328    0.8574639587
 H   -1.9580489430   -0.2167441298    0.8985677385
 H   -1.9889037155   -0.1582119746   -0.8609225407
 H   -0.8601204403   -2.4579331889    0.8223388457