16

 N   -0.0327709535    1.5200006799    0.1034925060
 C    0.0051404625    0.0745227438   -0.0013672114
 C   -1.4204470220   -0.4964408342    0.1511270336
 C   -2.0298231289   -0.1614034602    1.4345587022
 N   -2.5207308923    0.0750206827    2.4528816895
 C    0.6088812800   -0.4650025630   -1.3357920341
 O   -0.1360475397   -0.0534467733   -2.4667756552
 C    2.0194335682   -0.0500643278   -1.4416103605
 N    3.1082569447    0.3320962150   -1.5056964807
 H    0.8958703312    1.9275629332    0.0923664844
 H   -0.5869140723    1.9412023564   -0.6348656527
 H    0.6278077938   -0.3057358356    0.8162513254
 H   -2.0494872759   -0.1186844293   -0.6622316017
 H   -1.4007767653   -1.5871253606    0.0490922565
 H    0.5717897060   -1.5603876225   -1.3367166467
 H    0.0528866036    0.8773768357   -2.6328543947