17

 C   -0.1308780865    1.5275973226    0.3518389544
 N    0.0302107273    0.0874251681    0.1848519619
 C    1.3178185899   -0.4343104278   -0.2186895574
 C    0.7986213790   -0.6843713193    1.1713160458
 C    1.4962550819   -0.0377079164    2.3678084104
 C    0.5371350890    0.3155550138    3.4944143429
 O    0.5257599603    1.3824533715    4.0498146265
 C    0.2229654454   -1.9850016028    1.4675954592
 N   -0.2068426925   -3.0259489041    1.7293685341
 H    0.7808856218    2.0581572724    0.6608263975
 H   -0.4549790289    1.9398082471   -0.6078116184
 H   -0.9143934156    1.7221021502    1.0889137184
 H    1.3074190919   -1.2316838303   -0.9562336206
 H    2.1614163652    0.2525086502   -0.2874329639
 H    2.2226996570   -0.7592312417    2.7662985384
 H    2.0439700454    0.8607263377    2.0807890151
 H   -0.1629622507   -0.4982239712    3.7846217956