20

 C    0.1798872154    1.5239985831    0.1540228631
 C   -0.0388073638    0.0163465992   -0.0612933006
 C    0.6582134786   -0.5188485619   -1.2773765888
 C    0.0925154150   -0.9675006502   -2.4503904279
 N    1.0899783871   -1.3559029417   -3.3028635097
 C    2.3197360075   -1.1696130857   -2.7035868893
 C    2.0698986017   -0.6519559989   -1.4500878559
 O    2.9485803690   -0.2991483223   -0.4710937029
 C    4.3107714540   -0.4959654360   -0.7822566986
 H    1.2459473667    1.7443665176    0.2574443001
 H   -0.2021228225    2.0990721622   -0.6956363256
 H   -0.3309134910    1.8706158485    1.0587348130
 H    0.3132486631   -0.5202091573    0.8289541459
 H   -1.1121097199   -0.1921086978   -0.1422191099
 H   -0.9454916121   -1.0416141517   -2.7346113476
 H    0.9531502844   -1.7298626236   -4.2237393867
 H    3.2355445718   -1.4170846997   -3.2110468445
 H    4.5238958358   -1.5540613082   -0.9910658489
 H    4.6120212913    0.1009733018   -1.6550038702
 H    4.8860610780   -0.1769750373    0.0888706750