18

 C   -1.3417815700    0.9640614616    0.3708216617
 C   -0.1298175546    0.1800915657   -0.0502091788
 N    0.8549372989   -0.1109547569    0.7092327655
 O    0.6809786961    0.3759942629    2.0105244781
 C   -0.0574236009   -0.2886873524   -1.4938853838
 O   -0.1600316240    0.8299746438   -2.3684836301
 C    1.1750438106   -1.1614269981   -1.8028122857
 C    1.1769215849   -1.6558059026   -3.1731690983
 C    1.1727837686   -2.0743390976   -4.2994833205
 H   -1.0549147421    1.8022016073    1.0102395110
 H   -1.8751118798    1.3355731326   -0.5049175810
 H   -2.0172756613    0.3318885580    0.9591183405
 H    1.4953658046    0.0982803513    2.4434426190
 H   -0.9599184299   -0.8754729459   -1.7064035321
 H    0.6301879996    1.3691242180   -2.2460128081
 H    2.0834368586   -0.5798203292   -1.6036080042
 H    1.2031963182   -1.9977778686   -1.0963921969
 H    1.1711658925   -2.4407226401   -5.2958514463