19

 C   -0.0654960692    1.2937190949    0.2141013791
 O   -0.1252648061   -0.0163217332   -0.3026035554
 C   -1.3708461935   -0.6405283161   -0.0990685047
 C   -1.3249490433   -2.0686645578   -0.6099457665
 C   -0.9231389675   -2.6064686670    0.7538045590
 C   -1.5541395238   -1.2701499819    1.3186502147
 C   -2.9576044541   -1.9386019172    1.2519480072
 C   -2.3052903643   -2.8936160459    0.2537280316
 O   -2.7707334274   -4.1233015747   -0.1606069204
 H    0.9211410796    1.6936126977   -0.0318423877
 H   -0.8337039530    1.9431257876   -0.2349167536
 H   -0.1923660896    1.3202041453    1.3068094307
 H   -2.1826892507    0.0213238809   -0.4464781362
 H   -1.0108192843   -2.4254720803   -1.5825584804
 H   -0.1117118698   -3.2455229833    1.0660117781
 H   -1.2300352625   -0.7401542914    2.2110138213
 H   -3.2107591242   -2.4565878033    2.1814042465
 H   -3.8015605035   -1.3159326289    0.9294780399
 H   -3.3805613126   -3.9877601452   -0.8944460332