18

 C    0.0652786527    1.4158961202    0.0778173004
 O   -0.0828804694    0.0224615309   -0.1094660032
 C    0.6993418906   -0.5308054176   -1.1521724462
 C    2.1819749128   -0.6419296232   -0.8030942043
 C    0.0435995923   -1.9098441683   -1.4058687303
 C   -1.4725400971   -1.7226857484   -1.6240035287
 O   -2.3079928685   -2.3464856833   -1.0377887466
 C    0.6184724711   -2.5676325346   -2.5754839711
 N    1.0590798495   -3.0655950677   -3.5212515481
 H    1.0621784623    1.6830068448    0.4525767037
 H   -0.1184548722    1.9690760796   -0.8553365093
 H   -0.6784149861    1.7142635946    0.8195075896
 H    0.5813571019    0.0776727880   -2.0649849172
 H    2.3121481456   -1.2170384851    0.1186709019
 H    2.7295134561   -1.1376798898   -1.6093208737
 H    2.6247177642    0.3469224944   -0.6590082382
 H    0.1681336581   -2.5469435554   -0.5243805832
 H   -1.7231041140   -0.9588983191   -2.3908153054