17

 C   -0.0606634084    1.4528020098    0.0109320110
 C    0.0506967507   -0.0532723316   -0.0385855520
 C    0.7387288833   -0.7048536236   -1.2167663138
 C    1.4116754569   -0.6977384706    0.1440991849
 C    1.3827846979   -2.1182876730    0.6302970468
 O    1.8712196901   -2.5871429511    1.6281680737
 N    0.6615002030   -2.8384442722   -0.3252163586
 C    0.3576660034   -2.1244382367   -1.4910174990
 N   -0.1251874967   -2.5415866975   -2.5881608601
 H    0.8191844514    1.9315484913   -0.4305091898
 H   -0.9416481492    1.7952388979   -0.5414861454
 H   -0.1514598986    1.8041809146    1.0437883091
 H   -0.7954231044   -0.5895341049    0.3828945877
 H    1.0655318249   -0.0959770398   -2.0487357824
 H    2.2679260813   -0.0871228716    0.3974469414
 H    0.4886086751   -3.8256855912   -0.2095420654
 H   -0.3076145907   -3.5464368698   -2.5659670481