19

 O   -0.0598290385    1.5179053648   -0.1964728358
 C    0.0205417076    0.1073756836   -0.3054574305
 C   -1.2274591624   -0.4638571180    0.3771207119
 C   -1.2725079894   -1.9195932690    0.3372213743
 C   -1.2844571962   -3.1239208875    0.2898242178
 C   -1.3301522781   -4.5695933072    0.2505355809
 C   -1.6197009115   -5.3532250307    1.5628697529
 O   -2.6593609937   -6.1163379230    0.9239137884
 C   -2.6279106200   -5.2723462247   -0.2414979230
 H    0.7151322081    1.8988461279   -0.6190203402
 H    0.0447867036   -0.2207275640   -1.3553649532
 H    0.9203449381   -0.2900348458    0.1874584791
 H   -1.2473666260   -0.1078901914    1.4145104772
 H   -2.1132309085   -0.0392810394   -0.1111720338
 H   -0.4489467166   -4.9693238972   -0.2597577886
 H   -0.8125650149   -5.9881584278    1.9435094029
 H   -2.0055061920   -4.7223367919    2.3733220103
 H   -3.4954962243   -4.6027887360   -0.2932987746
 H   -2.5521517253   -5.8486126026   -1.1697631560