21

 C    0.3860395088    1.4444751902    0.0709075159
 C    0.0486037200   -0.0086480134   -0.0323486526
 C    0.0363009905   -0.7778011574   -1.1256662960
 C   -0.3331039235   -2.2174905397   -0.8578254429
 C   -0.4334457855   -2.2841764504    0.6820536986
 C   -1.5948710087   -3.1104868135    1.2112966353
 C    0.9091151065   -2.4826488101    1.4346653977
 O    0.8585956942   -1.1569795527    2.0050661775
 C   -0.2978676526   -0.8226796365    1.1892805217
 H    1.2252063335    1.5928996365    0.7609730840
 H    0.6578923045    1.8701107624   -0.8988593623
 H   -0.4569582725    2.0207284286    0.4733925616
 H    0.2656458619   -0.4198047283   -2.1253400973
 H   -1.2851694106   -2.4864215957   -1.3367359379
 H    0.4127242145   -2.9201119553   -1.2535557318
 H   -1.4946946782   -4.1627996144    0.9205009170
 H   -1.6460082543   -3.0693781399    2.3044382688
 H   -2.5496770154   -2.7468282683    0.8152477104
 H    0.9136844777   -3.2566535177    2.2118337463
 H    1.7850301122   -2.6195947260    0.7865819661
 H   -1.0926904730   -0.3873999387    1.8091563698