14

 O    0.0050621421    1.4108977666   -0.0392290816
 C    0.0503913211    0.0412116814    0.3186600820
 C   -1.3159140987   -0.5905725073    0.1755447002
 N   -1.7215178159   -0.9365147625   -1.1835527303
 C   -1.5579676704   -2.0269109256   -0.1981657277
 C   -0.4513022469   -2.9905473490   -0.4647433597
 O   -0.4026287408   -4.0935170503    0.0183831419
 H   -0.2629430604    1.4460474799   -0.9645911377
 H    0.7896244823   -0.5067216160   -0.2812489076
 H    0.3725904598    0.0053281841    1.3642296569
 H   -2.0707203557   -0.1539906721    0.8283208954
 H   -2.7092211888   -0.7538776212   -1.3364419771
 H   -2.4415114283   -2.4905792216    0.2340478174
 H    0.3279892806   -2.6162097665   -1.1626933123