16

 C    0.5847998151    1.4427810668    0.2288569206
 C    0.2277507626   -0.0187919706    0.2097020193
 O    1.2889011591   -0.9772886334    0.2216183230
 C    0.4286907114   -0.9216012765    1.3734860817
 C    1.0646696698   -0.4343204375    2.6781660420
 C    2.5747901874   -0.2802372704    2.5343670326
 O    3.1515943751    0.7659120159    2.6685969099
 C   -0.4676090403   -2.0574131236    1.5034508433
 N   -1.1900048564   -2.9494318072    1.6396683230
 H    1.3734107290    1.6682545118    0.9485221882
 H    0.9287437605    1.7479807526   -0.7643550569
 H   -0.3015966984    2.0376893402    0.4724401448
 H   -0.5833982432   -0.2939745302   -0.4653039732
 H    0.6391272641    0.5210208644    2.9942337042
 H    0.8779960577   -1.1702047463    3.4680427934
 H    3.1178410863   -1.2207589859    2.3095577341