21

 C   -0.4010148591    1.5549936394   -0.0169844132
 C   -0.0265202565    0.0694978691   -0.0402406078
 C    0.7528827749   -0.4092908506   -1.3161704686
 C    2.1334161887   -0.8233382658   -0.7779110538
 C    2.8274272964    0.4303568107   -0.1673463759
 C    2.3228653982    0.2151105855    1.2726763011
 O    2.8325624307   -1.1325265069    1.5258794554
 C    1.8034804636   -1.5272063630    0.5867596229
 C    0.8886597387   -0.3956819358    1.0975054744
 H    0.4798608185    2.2019610599   -0.0754320805
 H   -1.0522086511    1.8070610077   -0.8605724622
 H   -0.9376704029    1.8098782083    0.9035515609
 H   -0.9595877936   -0.5017502342    0.0357193743
 H    0.2403777430   -1.2595643519   -1.7802008537
 H    0.8286427246    0.3724802730   -2.0789505419
 H    2.7455026518   -1.3943978421   -1.4761774917
 H    3.9177120790    0.3699631420   -0.1842990267
 H    2.5169879905    1.3673942656   -0.6354588654
 H    2.5799757258    0.9379078241    2.0472495809
 H    1.5577275315   -2.5892109445    0.5970662917
 H    0.4125090174   -0.5901165004    2.0587289498