13

 O   -0.0101140910   -0.0111476612    0.1664579549
 C   -0.0627926568    1.1865745339    0.0859781621
 C   -1.2510603369    2.0531928920   -0.0360425095
 C   -0.9016518443    3.3439687676   -0.0479366739
 C    0.5826447501    3.5734955616    0.0723044348
 C    1.1820055504    2.1442838396    0.0580044388
 C    2.1167752852    1.8734721731    1.1390091496
 N    2.8522788827    1.6787326086    2.0088635118
 H   -2.2514821757    1.6454475145   -0.0926613556
 H   -1.5935836584    4.1756192950   -0.1242347371
 H    0.9666060641    4.1909220439   -0.7464821103
 H    0.8209749465    4.1052331971    0.9999436671
 H    1.6921281041    1.9492896544   -0.8923947927