17

 C   -0.0774996851    1.3493816494    0.0628963182
 N   -0.0611808542   -0.1056971560    0.0457752767
 C    0.5204161095   -0.7043112570    0.9867966636
 N    1.3132933397   -0.2846491706    2.1094264833
 C    1.6410307641   -1.6767972192    2.4480853974
 C    0.4067163135   -2.4918328041    2.6697822279
 O   -0.6703811020   -1.9312838136    3.3569999948
 C    0.7670537016   -2.1569122566    1.2415613080
 O    0.8923790577   -3.1471349731    0.3042033381
 H    0.6908658959    1.7903619703    0.7126690464
 H    0.0679260401    1.7221833890   -0.9559129297
 H   -1.0598374508    1.7069383215    0.3958352410
 H    0.8220730916    0.2376414455    2.8298691845
 H    2.6386789686   -1.9515457658    2.7651784266
 H    0.6089196918   -3.5418110043    2.8929176577
 H   -1.4842737217   -2.2144547776    2.9265026749
 H    1.2764324397   -2.7546650677   -0.4891382095