18

 C   -0.1001471868    1.6060416101    0.1162395925
 C    0.0017078947    0.0921344492   -0.0200927277
 C    0.8034224576   -0.5316596364   -1.2331505077
 C    1.4054197830    0.4509294498   -2.2087759001
 O    2.5552328926    0.8096931114   -2.1960239930
 N    1.7161037600   -1.1055276654   -0.2558008949
 C    2.9172632555   -1.8916998205   -0.4000824582
 C    1.0867285101   -0.5919640520    0.8498552542
 O    1.3266254470   -0.6606629782    2.0265695885
 H    0.8682945349    2.0900853127   -0.0420585642
 H   -0.8187711865    2.0297124944   -0.5921257321
 H   -0.4349245284    1.8548060671    1.1272425488
 H   -0.9770195012   -0.3798133290    0.1005073366
 H    0.2181637532   -1.2697769255   -1.8024284858
 H    0.6859682886    0.8310979480   -2.9699491489
 H    3.6637314416   -1.3555128936   -0.9927110745
 H    3.3116893021   -2.0706032625    0.6028235366
 H    2.7079483919   -2.8585748398   -0.8737330798