22

 C   -0.2389710592    1.5243171941   -0.0200532816
 C   -0.0142648266    0.0115113755    0.0032035166
 C   -1.3163828289   -0.7425411124   -0.2463178282
 C    1.1995539640   -0.4170402342   -0.8924527875
 C    2.0481183596   -0.5503309374    0.3772444602
 C    3.2742769064   -1.3833909329    0.5936097959
 C    3.3653799692    0.1265582840    0.6286319233
 C    0.8015589167   -0.4430208419    1.2629831939
 H    0.6949886387    2.0672331315    0.1589437925
 H   -0.6341042007    1.8484619440   -0.9899820168
 H   -0.9557784530    1.8274635982    0.7521197472
 H   -1.7439203052   -0.4817383784   -1.2219219478
 H   -1.1583023315   -1.8262225245   -0.2301907317
 H   -2.0652119639   -0.5027116219    0.5181077718
 H    1.0308758379   -1.3743469294   -1.3974805303
 H    1.5321716951    0.3144497909   -1.6359587647
 H    3.3688312538   -1.9225087153    1.5313676135
 H    3.6997610392   -1.9009060233   -0.2608605763
 H    3.8517648366    0.6278284601   -0.2027678129
 H    3.5206727833    0.6062152283    1.5903392104
 H    0.8436159444    0.2695017286    2.0930772505
 H    0.4677928328   -1.4111042837    1.6520282989