18

 C    0.0203781952    1.5037358981    0.0080529901
 C   -0.0709793384    0.0044990623   -0.0572284973
 C   -0.0826199406   -0.6579729181   -1.2195176242
 C   -0.1151753706   -2.1286198584   -1.4571595946
 O    0.2858856674   -2.5445135297   -2.5399656706
 C   -0.7186482179   -3.0485509477   -0.4919180458
 C   -1.2813462151   -2.7810923504    0.7110565138
 N   -1.2031469060   -1.6292834114    1.4348910090
 C   -0.0795783496   -0.7162975164    1.2785396508
 H    0.9103737570    1.8208590326    0.5679518892
 H    0.0658476591    1.9507271247   -0.9873239159
 H   -0.8450401638    1.9242500922    0.5369577418
 H   -0.0008199271   -0.0988220661   -2.1483421408
 H   -0.8316261282   -4.0558107307   -0.8766384228
 H   -1.8776037326   -3.5551918207    1.1888439355
 H   -1.6101890377   -1.6606918603    2.3543798455
 H    0.8675724195   -1.2682751073    1.3998058127
 H   -0.1384157105    0.0132349872    2.0900823137