21

 C    0.1344392376    1.5861956931   -0.1986163322
 C   -0.0238005878    0.0719882354   -0.0003549184
 C    0.6547796669   -0.7355781901   -1.1279428704
 C    2.1406885015   -0.8324184370   -0.6736958227
 C    2.1431390685   -0.7028659989    0.8933128538
 C    0.6966789991   -0.4767588023    1.2100827199
 C   -0.1847111493   -0.8692162931    2.1200014269
 C   -1.5781109416   -0.6094169831    1.5955511215
 O   -1.4024104232   -0.2300932271    0.2270468126
 H    1.1777026959    1.8622597416   -0.3848483679
 H   -0.4619781798    1.9089175331   -1.0575233406
 H   -0.2111711549    2.1290661690    0.6858265601
 H    0.1923110625   -1.7266856005   -1.1581649522
 H    0.5495420280   -0.2833251675   -2.1183403372
 H    2.5983395333   -1.7692088187   -1.0005947171
 H    2.7307217635   -0.0257465282   -1.1180875339
 H    2.5372585941   -1.5938643365    1.3893908648
 H    2.7727010958    0.1371588205    1.2084163882
 H    0.0089343251   -1.3652128235    3.0632720527
 H   -2.2087899096   -1.5086986940    1.6398008610
 H   -2.1091638255    0.1832092876    2.1494296810