16

 N   -0.0005999492   -3.7784539277   -0.1287068960
 C    0.0044392466   -2.6169683901   -0.0882768349
 C    0.0102730844   -1.2534942757   -0.0398677266
 C    0.0137072560   -0.0442191351    0.0007561053
 C    0.0303293965    1.4009903130    0.0694869876
 C   -0.2120289313    2.0919456795    1.4707036716
 C    1.1398989952    2.7981113003    1.3321641872
 C    2.2396973709    1.7855931217    1.1912376167
 C    1.3999046072    2.1126991871   -0.0093347977
 H   -0.6672546107    1.8047750658   -0.6699616592
 H   -1.0720142114    2.7622272022    1.4332219272
 H   -0.3198993461    1.4178623371    2.3244688121
 H    1.3341145153    3.8252047737    1.6132457343
 H    3.2458475099    2.1903692503    1.1640668357
 H    2.1632655025    0.8128598697    1.6711071397
 H    1.8201028242    2.5086072283   -0.9249904430