13

 C    0.0175528024    1.2935344015    0.1282281357
 O    0.1214773199   -0.1345581401    0.0041240253
 C    0.6930450650   -0.5643134082   -1.1253227687
 O    1.1122976702    0.1255622056   -2.0138676491
 C    0.7504880141   -2.0577324900   -1.1516496906
 N    1.2422136287   -2.7957734370   -2.1015909846
 C    1.0340025222   -4.0549241374   -1.6051366142
 N    0.4555071339   -4.1015070692   -0.4330880330
 O    0.2613071477   -2.7602535873   -0.1210806707
 H    1.0096830854    1.7501515000    0.1031368277
 H   -0.5834822599    1.7028913180   -0.6870084209
 H   -0.4641249040    1.4684222616    1.0890740825
 H    1.3188765944   -4.9565491475   -2.1269760294