23

 C   -0.0352934981    1.5100286387   -0.3811368496
 C   -0.1334160297    0.0181646584   -0.0538478338
 C    0.8884563176   -0.4285470392    1.0016039506
 C    0.7740399735   -1.9131760569    1.3369885804
 C    1.6829117921   -2.6102096231    2.4194330049
 C    2.3189514106   -1.6772250343    3.4458514925
 C    0.4327659668   -3.3762831124    2.9620185669
 C   -0.4367701065   -2.4103892193    2.1432179028
 O   -1.5868340519   -2.0767158888    2.2002180352
 H    0.9590198105    1.7697867899   -0.7622832592
 H   -0.7687983030    1.7999618821   -1.1398184063
 H   -0.2181883048    2.1231390016    0.5083734750
 H   -1.1392851217   -0.2231582137    0.3060312600
 H    0.0160178007   -0.5697061333   -0.9696444817
 H    1.9054885239   -0.2156434686    0.6444682940
 H    0.7505928417    0.1691799193    1.9111149964
 H    0.8176864639   -2.5012723862    0.4090996218
 H    2.4470358069   -3.2591063061    1.9851356186
 H    1.5698222155   -1.0453741366    3.9364628411
 H    2.8236272173   -2.2543289005    4.2276427885
 H    3.0606432591   -1.0170314514    2.9852426599
 H    0.3513037755   -4.4035225322    2.5921896749
 H    0.2655144801   -3.3794182472    4.0426604571