23

 C    0.6108023320   -0.6377232442   -1.3384925447
 C   -0.4575978915   -0.5100303214   -0.2671373463
 O   -0.7064453844   -1.7996867724    0.2726220733
 C   -1.6787290879   -1.8101693278    1.2915845860
 C   -3.1407434563   -1.8556643979    0.8132694169
 O   -4.0136263685   -1.4647808189    1.5543531064
 C   -3.4275747208   -2.4658248055   -0.5562434600
 C   -3.0132063923   -3.9535238102   -0.5594608764
 C   -4.8923764208   -2.2723598779   -0.9508379411
 H    0.8414739310    0.3432926309   -1.7640959536
 H    1.5271845904   -1.0585909533   -0.9154690539
 H    0.2729766091   -1.2949658370   -2.1448754072
 H   -0.1269669516    0.1685431465    0.5354915473
 H   -1.3806552173   -0.0815764900   -0.6906165653
 H   -1.5085485016   -2.7194856971    1.8825382469
 H   -1.5768454935   -0.9549947485    1.9742674459
 H   -2.7778338767   -1.9538307342   -1.2774474450
 H   -3.5803591164   -4.5192564812    0.1877607360
 H   -3.2197994762   -4.3950561408   -1.5390509823
 H   -1.9464569645   -4.0698122774   -0.3549528066
 H   -5.5553562549   -2.7765415895   -0.2423217119
 H   -5.1669216986   -1.2141775251   -0.9546456218
 H   -5.0755917088   -2.6817038770   -1.9490206827