18

 C   -0.0074795343    1.5807083571    0.0430333343
 C    0.0259184000    0.0576699796    0.0446291684
 C    0.7404687329   -0.5896000503   -1.1818070851
 C    1.5287889288   -1.8285420985   -0.6518198304
 C    1.6404180249   -1.5138837190    0.8058550206
 N    2.2587638919   -1.9685143535    1.8817955316
 C    1.7543671691   -1.1519292305    2.8550729359
 N    0.8739185676   -0.2388638191    2.4517314085
 N    0.8320740531   -0.4922036646    1.1274392491
 H    1.0030550441    1.9899396965   -0.0512528621
 H   -0.6096360947    1.9415179791   -0.7961877725
 H   -0.4451275715    1.9560081617    0.9713574114
 H   -0.9977779510   -0.3272852929    0.1416157222
 H    0.0300908925   -0.8491197699   -1.9687684856
 H    1.4434689351    0.1378616949   -1.5990485987
 H    0.9732873294   -2.7613032716   -0.8026014773
 H    2.4984087987   -1.9487069744   -1.1401719061
 H    2.0474225933   -1.2281414646    3.8919660958