18

 C    0.0509287646    1.4808680961    0.0527712514
 C   -0.0117391354   -0.0117262502   -0.0117605872
 C   -0.0585703416   -0.7791042214   -1.1062287626
 C   -0.0294582538   -2.2355605508   -0.7939316394
 C    1.2088095989   -2.7307960117   -0.0938315307
 C    0.0152421255   -2.2989158394    0.7428098413
 C   -0.0227053359   -0.8525577651    1.2537243318
 C   -0.7041917348   -3.3050183823    1.4657170226
 N   -1.2868170787   -4.1090857716    2.0608147021
 H    0.9706691491    1.8207435697    0.5454188384
 H    0.0170088096    1.9271859382   -0.9443961361
 H   -0.7836550107    1.8865176910    0.6385648661
 H   -0.0762021400   -0.4076412543   -2.1246109996
 H   -0.6256355293   -2.9400679820   -1.3624181127
 H    1.4147307269   -3.7950854682   -0.1159907239
 H    2.0830739042   -2.0882341903   -0.0858396978
 H    0.8259150599   -0.6259770984    1.9110884625
 H   -0.9298064385   -0.6705275494    1.8436968537