18

 O   -0.0609220103    0.0731974678    0.1911392493
 C   -0.0479784548    1.2704335525    0.0546709942
 C   -1.2246521736    2.1843716465   -0.0601799543
 C   -1.0442896412    3.4901300544    0.6696654744
 C    0.0895328656    3.7012618923    1.6620242775
 C    1.3435378407    2.8473867417    1.3328902622
 C    1.1747254016    2.1935004552   -0.0573863424
 C    0.6665870071    3.2407654153   -1.0568785480
 N   -0.7861783457    3.4235730496   -0.7648723590
 H   -2.2074330893    1.7820593448   -0.2771318205
 H   -1.9629968380    4.0232888616    0.9067299402
 H    0.3413430993    4.7682121340    1.6591921959
 H   -0.2793291942    3.4828761121    2.6692879863
 H    2.2446392013    3.4686675680    1.3355447485
 H    1.4920099762    2.0695089462    2.0880898018
 H    2.0666934397    1.6494785693   -0.3677880668
 H    1.1780178933    4.2056176450   -0.9791379939
 H    0.7519434724    2.8928863637   -2.0907856357