25

 C    0.1337429737    1.5912341924    0.1141937230
 C   -0.0935603105    0.0816002157   -0.0158052124
 C    0.6455562152   -0.5222374612   -1.2028292807
 C    2.1995941168   -0.5742003158   -1.1957561023
 C    2.1292412950   -1.9880795443   -1.8386800378
 C    3.1102795070   -3.0469814434   -1.3605208247
 C    0.6257786930   -2.0658641383   -1.3974733159
 O    0.4143460257   -2.7158045320   -0.1608898938
 C    0.0558184951   -4.0747880649   -0.2738096729
 H    1.1970228222    1.8237479778    0.2392957448
 H   -0.2170415364    2.1259589814   -0.7760665485
 H   -0.3985074136    2.0003368817    0.9787444985
 H    0.2252241546   -0.4273660127    0.8996170988
 H   -1.1675465929   -0.1223642954   -0.1167787565
 H    0.2978225017   -0.0524231652   -2.1311322453
 H    2.7419815971    0.2018083829   -1.7416210299
 H    2.5918550400   -0.6213751152   -0.1739421821
 H    2.1687083018   -1.9018364414   -2.9307117383
 H    3.0007261664   -3.2162446949   -0.2850714202
 H    2.9651627811   -4.0040416580   -1.8740511547
 H    4.1416947129   -2.7274333036   -1.5473358566
 H   -0.0822535690   -2.4553162966   -2.1433499171
 H   -0.1337805127   -4.4437129149    0.7376817569
 H   -0.8590281289   -4.1994486084   -0.8739925389
 H    0.8497721546   -4.6845809058   -0.7269822933