21

 C   -0.1757062055    1.5320909285   -0.0560360647
 C   -0.2633304893    0.0200046007   -0.2743874485
 C    0.9750963947   -0.5519330012   -0.9893513867
 C    0.9001779718   -2.0318443730   -1.2146072917
 N    1.6262873055   -2.8678954276   -0.4753290218
 N    1.2911237568   -4.0971618411   -0.9259291494
 C    0.3776986571   -4.0778571057   -1.9313129752
 C   -0.1318304212   -5.3203021762   -2.5858422360
 C    0.0992557978   -2.7429741114   -2.1439143566
 H    0.6959813329    1.7938552786    0.5541520184
 H   -0.0825029191    2.0661757071   -1.0086055632
 H   -1.0657198247    1.9141170687    0.4539110607
 H   -0.3816396876   -0.4910955240    0.6885472547
 H   -1.1606593398   -0.2192520410   -0.8587568152
 H    1.1008173446   -0.0375674130   -1.9512460598
 H    1.8705517134   -0.3399831604   -0.3954242414
 H    1.7333204390   -4.9018023894   -0.5150246497
 H   -0.6406738873   -5.9790091087   -1.8723862128
 H   -0.8479263643   -5.0631777206   -3.3689368101
 H    0.6757023178   -5.8988032708   -3.0496048064
 H   -0.5857077828   -2.3399483596   -2.8735623148