18

 O   -0.0067476802   -0.0314249158   -0.0898923395
 C   -0.0079863138    1.1821921912   -0.0114111202
 C   -1.3144072406    1.9674527146    0.1264888692
 O   -1.1751735659    3.3274530084    0.4900755464
 C   -0.1731838977    3.9703367756   -0.2751257150
 C    1.1774694145    3.3692156387    0.0358045705
 C    2.4343745938    4.0840721915   -0.3648180893
 C    2.0546766039    3.9839619142    1.0996170843
 N    1.1264884997    1.9359987493   -0.0944782435
 H   -1.8509239282    1.8648201460   -0.8316177647
 H   -1.9163731684    1.4821357913    0.8973192147
 H   -0.3892993134    3.8763862820   -1.3528383228
 H   -0.1945359055    5.0293933669   -0.0075033913
 H    3.2660137029    3.4823435727   -0.7180514966
 H    2.3436498638    5.0434505798   -0.8638847337
 H    1.7027871420    4.8760795821    1.6064653405
 H    2.6299137044    3.3095342946    1.7243239159
 H    1.9855097488    1.4098747769   -0.1768093148