17

 C   -0.2048744485    1.5252683715   -0.1024631125
 C   -0.0222193854    0.0285410713    0.0040249639
 C    1.3137488032   -0.6121784784   -0.2814050020
 C    0.7704355042   -0.5992828296    1.1255084730
 N    1.4018661022    0.2331949796    2.1081970563
 C    2.7043283510    0.4377853363    2.3841368140
 N    2.8086979842    1.2358606643    3.4222952542
 N    1.5289250938    1.5166232336    3.7924922427
 N    0.6795354837    0.9253580950    3.0224026049
 H    0.7074753106    2.0651733629    0.1653866082
 H   -0.4674834224    1.8023184056   -1.1282881815
 H   -1.0008991806    1.8714941518    0.5628996620
 H   -0.8938487448   -0.5532681364   -0.2818964843
 H    1.3595885043   -1.5671568256   -0.7915438370
 H    2.1390414503    0.0561786083   -0.5029651565
 H    0.4045528043   -1.5313224682    1.5423087087
 H    3.5140572498    0.0024754680    1.8228243061