18

 C   -0.4249374202    1.6501992555   -0.0714928749
 C   -0.0445391238    0.1684710272    0.0582224306
 C    0.7524355462   -0.3979342233   -1.1326170794
 C    0.8205640802   -1.9474185408   -1.2523514001
 N    0.0466252236   -1.8254330566   -2.4947896160
 C   -0.0878952247   -0.4685076467   -2.4665055224
 O   -0.6457377414    0.3308053275   -3.1691641637
 C    2.0785319171    0.2931682513   -1.3565934781
 O    3.1362663587   -0.2746395974   -1.4739081628
 H    0.4456383689    2.3087151818   -0.0010467225
 H   -0.9188536186    1.8418591174   -1.0274718812
 H   -1.1098778560    1.9315031735    0.7336169783
 H    0.5273979630    0.0010589581    0.9795134313
 H   -0.9596445586   -0.4283437096    0.1524404392
 H    1.8294093305   -2.3407155906   -1.3873478533
 H    0.2976086274   -2.4853374052   -0.4560599965
 H   -0.3173036305   -2.5122114649   -3.1383534151
 H    2.0153954882    1.3980377729   -1.4293234334