16

 C    0.3263138043    1.7358402742   -0.1350540733
 C    0.1255875876    0.2118445828   -0.0855382816
 C    0.7157031256   -0.5025352562   -1.2643659864
 C    0.0845443522   -1.0660364952   -2.3265114494
 O    0.9707070321   -1.6083055632   -3.1890799827
 N    2.2380444893   -1.4157999526   -2.7060809457
 C    2.0929753509   -0.7610724008   -1.5700562733
 C    3.3096309667   -0.4271318179   -0.8074290428
 O    3.3036211416    0.1831181590    0.2365887802
 H    1.3904999558    1.9816835312   -0.1184358667
 H   -0.1168510114    2.1633122883   -1.0397936132
 H   -0.1444791093    2.2083982731    0.7320071294
 H    0.5814983474   -0.1760915422    0.8306194093
 H   -0.9439980179   -0.0194720477   -0.0343139906
 H   -0.9537360992   -1.1658636031   -2.6027069250
 H    4.2460218342   -0.7905033097   -1.2749352983