13

 O    0.0100368625   -0.0277197488   -0.3499855374
 C    0.0030154687    1.0973529345    0.0732343096
 C    1.2350917250    1.9500998305    0.0789930364
 C    1.1359241412    3.4525490758   -0.1672682396
 C   -0.1367048241    4.0757492927   -0.4150080962
 N   -1.1486033297    4.5901249625   -0.6322872169
 C    1.4884662035    2.9338021614    1.2174026095
 C    0.5560587139    3.0563784950    2.3059467444
 N   -0.1737653583    3.1556917775    3.1965785950
 H   -0.9112054108    1.5711802982    0.4834277256
 H    2.1094259109    1.4560021401   -0.3287168033
 H    1.9565234563    3.8920869832   -0.7241557914
 H    2.5256590409    3.0546312774    1.5112249543