22

 C   -0.1463268636    1.0298267312   -1.9357546700
 C   -0.0337368631   -0.1767153259   -1.0299465694
 C    1.2445511632   -0.6328030311   -0.3902433279
 C    2.5778409260    0.0584666541   -0.5736140071
 C    0.1279090949   -0.0587448262    0.4909148441
 C    0.2842991172    1.2991028931    1.1497886665
 C   -0.6308585890   -1.1217786203    1.2469796811
 N   -1.1125408498   -0.7725572105    2.4779887058
 O   -0.7988022036   -2.2457688345    0.8000601707
 H    0.5377421426    1.8391773115   -1.6696262407
 H    0.0763688589    0.7456034942   -2.9702456393
 H   -1.1626832322    1.4387249910   -1.9205730070
 H   -0.6931384796   -0.9947035745   -1.3053899861
 H    1.3184252131   -1.7123330230   -0.2975052585
 H    2.4917361148    1.1393745030   -0.7076874252
 H    3.2334207923   -0.1170389161    0.2864617081
 H    3.0872417398   -0.3371338007   -1.4593596814
 H    0.8640525723    1.9892857916    0.5360594071
 H   -0.6876901855    1.7773086621    1.3239185197
 H    0.8028633439    1.2193341792    2.1124563325
 H   -1.0950942670    0.1688475709    2.8242888134
 H   -1.6826996257   -1.4514734089    2.9546772337