14

 C    0.0004327420    1.4705775613   -0.0243751360
 C   -0.0022264030   -0.0433263236    0.0103750512
 O    0.6782080240   -0.4990061760   -1.1857451862
 C    0.7952952337   -1.7936265893   -1.3672046017
 N    1.3745040749   -2.3706466347   -2.3814815679
 C    1.2055830118   -3.6890682470   -2.0565407186
 N    0.5787804281   -3.9411849349   -0.9397275235
 O    0.2911502395   -2.6360145946   -0.4573297941
 H    1.0228650407    1.8569436663   -0.0379543943
 H   -0.5225014968    1.8396378760   -0.9104693993
 H   -0.5057265324    1.8575239580    0.8644398606
 H    0.5264254727   -0.4344705805    0.8853007698
 H   -1.0176688003   -0.4517775787    0.0135080083
 H    1.5654807351   -4.4974884824   -2.6774454282