22

 C   -0.1009748533    1.5925107694    0.2465125349
 C    0.0407225486    0.0918805283    0.1045201966
 N    1.3044097061   -0.5738873510   -0.2520623059
 C    2.5123929664    0.2041133692   -0.4882738195
 C    0.8040531518   -0.7133708742    1.0943477044
 C    1.4205055726   -0.2659377779    2.4210053433
 O    0.9944601012   -1.4923669287    3.0461468672
 C    0.4844830077   -2.0353041376    1.7959342142
 C   -0.9566054296   -2.4885558032    1.9035109043
 H    0.7127480917    2.0443026140    0.8190272323
 H   -0.1349080168    2.0794113780   -0.7342144400
 H   -1.0371701320    1.8277881961    0.7637299642
 H   -0.8186618394   -0.3812967761   -0.3709509378
 H    2.6504054863    1.0673685844    0.1793089602
 H    3.3803693762   -0.4522981751   -0.3696610314
 H    2.5074449945    0.5692092320   -1.5199400658
 H    2.5146159209   -0.1610378400    2.4175068316
 H    0.9825961860    0.6169082479    2.9039896273
 H    1.1247755888   -2.8564494494    1.4427754398
 H   -1.6018585058   -1.6632943493    2.2192318662
 H   -1.3118545631   -2.8649631954    0.9380249839
 H   -1.0456861487   -3.2967079915    2.6361765700