17

 C    0.4010993370    1.1292932906   -0.5640351641
 C    0.0397487507   -0.0740432471    0.3033615573
 O    0.2257146016    0.1939365157    1.7018580349
 C   -1.3534798312   -0.5723681219    0.0622775989
 C   -2.2687356209   -0.5005298899   -0.9632213324
 O   -2.1280863255    0.1553563080   -2.1403889066
 N   -3.4042401608   -1.2030339106   -0.6826894159
 C   -3.2016867006   -1.7169809458    0.5170108235
 N   -1.9861899182   -1.3782764973    1.0013451745
 H    1.4263605399    1.4412173186   -0.3496829575
 H    0.3109082736    0.8872520432   -1.6256323033
 H   -0.2740221033    1.9679475908   -0.3599298755
 H    0.7633470051   -0.8780780613    0.1090634142
 H   -0.3211914620    0.9594588427    1.9159600112
 H   -2.9441451896   -0.0027336787   -2.6305515521
 H   -3.9034827938   -2.3247401300    1.0670543994
 H   -1.5966704322   -1.5802907071    1.9076234537