21

 C   -0.1648964098    1.4724599625    0.2043806657
 C   -0.1542254380   -0.0563000592    0.0996959097
 C   -1.5202288533   -0.6407295789   -0.1062412352
 C   -2.6010409681   -0.3170904416   -1.1797034009
 C   -3.2274922322   -1.2174638084   -0.0905608039
 C   -4.6533467828   -1.5679156720    0.2156783841
 O   -4.7495169065   -2.2352555148    1.4596162386
 C   -1.9721708882   -2.1228354820   -0.1208482240
 O   -2.5536159151   -0.3783388977    0.9443876413
 H    0.8389683320    1.8563922720    0.4065956302
 H   -0.5191693644    1.9311294727   -0.7243615801
 H   -0.8270201339    1.7965909899    1.0117877331
 H    0.4842244347   -0.3819706445   -0.7311853732
 H    0.2692988985   -0.4953528067    1.0113460363
 H   -2.9569079685    0.7140067978   -1.1897593897
 H   -2.4702255491   -0.7361305556   -2.1807657718
 H   -5.2598471396   -0.6478546921    0.1969756260
 H   -5.0479938063   -2.2453074681   -0.5493956201
 H   -4.2198305528   -1.7210523420    2.0812012244
 H   -1.7847836475   -2.7087367448   -1.0245454147
 H   -1.7790624690   -2.6780422267    0.7974638544