21

 O   -0.3309490204    1.4268260220   -0.6977391942
 C   -0.0009248650    0.2055436892   -0.0465271678
 C   -1.2846051506   -0.5366449901    0.2157862037
 C   -1.9163947867   -1.3854506725   -0.8602649847
 C   -1.3498286067   -2.0383569663    0.3786815043
 C   -0.1378855231   -2.9497681181    0.3067502291
 C   -0.5401765850   -4.3788358933    0.0222069185
 C    0.1575939328   -5.5263122711    0.6131084522
 O   -1.1121658447   -5.1056881295    1.1153957237
 H    0.4752261243    1.9442361259   -0.7850058157
 H    0.6741449872   -0.4004443350   -0.6702821746
 H    0.5209132503    0.3978746856    0.9052335836
 H   -1.9715077190    0.0291503564    0.8393051485
 H   -2.9914152309   -1.3473125989   -0.9949468626
 H   -1.3578122306   -1.4981584648   -1.7852340784
 H   -2.0817608190   -2.3824071418    1.1045984629
 H    0.5512511318   -2.6184230397   -0.4789830580
 H    0.4148152808   -2.9262490472    1.2541843595
 H   -1.0614494485   -4.5341530351   -0.9242919886
 H    0.1636801684   -6.4859042746    0.0976633225
 H    1.0031325047   -5.3541531610    1.2786164560