19

 C   -0.3986450934    1.4278456759   -0.0430474335
 C    0.0713721941   -0.0186264180   -0.0766639481
 C    1.4155577467   -0.3438653156   -0.7567198081
 O    1.8770462395   -1.0843661299    0.3872735963
 C    0.7194227615   -0.6843565849    1.1825094031
 C    1.1546738972    0.2507477903    2.3059075518
 C   -0.0087716261   -1.9083809902    1.7199471661
 H    0.3853684980    2.1059959610    0.3073921295
 H   -0.6944986216    1.7569297319   -1.0453249165
 H   -1.2682782145    1.5519230461    0.6113816128
 H   -0.7327548251   -0.6534162497   -0.4614184696
 H    1.3794723013   -0.9613252588   -1.6621314913
 H    2.0447647942    0.5356736142   -0.9577708591
 H    1.7219935772    1.1014859716    1.9203870760
 H    0.2925607996    0.6325602809    2.8633505979
 H    1.7992236787   -0.2917313447    3.0048639135
 H    0.6228587697   -2.4495669152    2.4321900408
 H   -0.9309426962   -1.6166000544    2.2352457422
 H   -0.2665355106   -2.5916616703    0.9058892961