19

 C    0.2689667856    1.6031253041   -0.1150065827
 C    0.0390567957    0.1208736202    0.0859417896
 O    0.7932975454   -0.6999263385   -0.8504400954
 C    1.2386585087   -1.5912189111    0.2040392678
 C    2.6706027415   -1.2318185400    0.6859182517
 C    2.0631695226   -0.2513175117    1.7354194117
 C    0.6273915425   -0.6391649895    1.2919896005
 C    0.8801030466   -2.9720428450   -0.0044469392
 C    0.5943508427   -4.1306272560   -0.1556503851
 H    1.3268973486    1.8641827411   -0.0293151271
 H   -0.0701645875    1.8985076245   -1.1129466675
 H   -0.2984523114    2.1823791877    0.6215438718
 H   -1.0328646881   -0.1018279275   -0.0199110390
 H    3.2033633043   -2.0757977631    1.1290057272
 H    3.2806303740   -0.7910919021   -0.1048499622
 H    2.2760588411   -0.5418016225    2.7660380636
 H    2.3288579410    0.8015738704    1.6217936000
 H   -0.0678425332   -0.9713394123    2.0611412674
 H    0.3381800099   -5.1512822788   -0.2989040433