18

 O   -0.0287972574    1.4791562924   -0.3357199705
 C    0.0436315697    0.1821541105    0.2180422083
 C   -1.3148819886   -0.4950218249    0.1005498248
 O   -1.7023945059   -0.5572316472   -1.2971235688
 C   -1.7032615554   -2.0024210315   -1.2866194078
 C   -1.4426935139   -2.0365118184    0.2343050206
 C   -0.2475868211   -2.8506140137    0.7487035875
 C   -0.4902232298   -4.2882952404    0.6340774460
 N   -0.7041757881   -5.4188920454    0.5288072513
 H   -0.4013365527    1.3685386140   -1.2198747729
 H    0.8170477613   -0.4207433760   -0.2845800271
 H    0.3327221454    0.2944494108    1.2691667055
 H   -2.0505652556    0.0784837402    0.6770520169
 H   -2.6587261872   -2.4131799695   -1.6269471751
 H   -0.8964861772   -2.4203395574   -1.9029978807
 H   -2.3328806240   -2.3190945363    0.7992181026
 H    0.6634386385   -2.6115571888    0.1901895989
 H   -0.0473414478   -2.6153563783    1.8004598705