17

 O   -0.0375190297    1.3437356876   -0.0236989610
 C    0.0493544558   -0.0314837263   -0.0397980283
 C    0.8752546917   -0.9045920718   -0.9815541943
 C   -0.0495510509   -2.0608713963   -0.5056392013
 C   -1.1122067173   -0.9813779132   -0.0539261206
 C   -0.2806372634   -0.8765790357    1.2094686044
 C    0.3434667979   -2.2644848492    1.0011040989
 C   -0.3756315233   -3.3401918952    1.6594771023
 C   -0.9708336691   -4.2349841937    2.1994216462
 H    0.6790425593    1.6898850450    0.5198878277
 H    0.6824354825   -0.6397526418   -2.0247297766
 H    1.9539706307   -1.0141102026   -0.8153834086
 H   -0.2435135014   -2.9238845250   -1.1363914359
 H   -2.1668412628   -0.8468429570   -0.2390128249
 H   -0.5566182693   -0.4006220794    2.1416543074
 H    1.4202175976   -2.3598686046    1.1923483271
 H   -1.4946104481   -5.0240802909    2.6792037876