18

 C   -0.0935099319    1.4574287632    0.0087200445
 C    0.0354980734   -0.0614283016    0.0685166148
 C    0.8705451768   -0.6405322164   -1.0718754041
 N    2.1503207343   -0.5532733271   -0.3160801256
 C    1.2085614016   -0.5691276841    0.9430812997
 C    1.1959095029   -2.0881313211    0.7920449111
 O    1.1858956664   -3.0188368068    1.5474428789
 C    1.5316335435   -1.9249652229   -0.6570577582
 C    2.1517376952   -2.9129627610   -1.5910467139
 H    0.8778810264    1.9294610775   -0.1666876432
 H   -0.7687119255    1.7568922888   -0.8001775342
 H   -0.5005584535    1.8488341329    0.9463434192
 H   -0.9387152402   -0.5237637070    0.2646802334
 H    0.8269508788   -0.3751551407   -2.1248520464
 H    1.5147253698   -0.0815941220    1.8658529451
 H    1.3985226048   -3.6176639115   -1.9580560543
 H    2.5960244718   -2.4069858032   -2.4527757935
 H    2.9331314155   -3.4847264769   -1.0827095834