19

 C   -0.0187116836    1.4885027147    0.0012701236
 C    1.5495851079    1.5263747222   -0.0196193660
 C    1.5239138107    0.0479433453   -0.3708316293
 O    2.4342191512   -0.8965877236    0.1220357520
 C    1.8614627383   -2.1546690314   -0.2887176564
 C    0.9211965560   -1.8246661469   -1.4593953627
 C   -0.2295052941   -0.8270264609   -1.2527284393
 C    1.1223890999   -0.3868256054   -1.8007732301
 C    0.0065435358   -0.0770169048    0.0420735345
 H   -0.4796243823    1.9669931452    0.8666711163
 H   -0.4764152517    1.8908528608   -0.9051662448
 H    2.0477772116    2.2089530320   -0.7131631573
 H    1.9539749152    1.6807465969    0.9846199724
 H    2.6747561295   -2.8190764241   -0.5981913757
 H    1.3377458603   -2.6170932247    0.5584641211
 H    0.7909189073   -2.5542029301   -2.2497667751
 H   -1.1589087106   -0.9386296065   -1.8022125164
 H    1.4238921440    0.0285643452   -2.7531196515
 H   -0.2921240554   -0.5198325440    0.9954292049