15

 C   -0.3930753138    1.4200295155   -0.0864702973
 C   -0.0732073226   -0.0453792045    0.0046524250
 N   -0.1431152003   -0.7534066620   -1.1279793710
 C    0.1408034266   -2.0529940289   -1.0460377225
 C    0.0725200252   -2.8824379956   -2.3015179679
 O   -0.2221796473   -2.4580396479   -3.3867641734
 N    0.4908284418   -2.7360511055    0.0496051435
 C    0.5584511239   -2.0233639987    1.1753384574
 C    0.2838266813   -0.6630328225    1.2078497477
 H   -0.3111530149    1.9164340295    0.8828329405
 H    0.2843470193    1.9064713261   -0.7949821684
 H   -1.4075558716    1.5571785806   -0.4731505034
 H    0.3275770774   -3.9462676700   -2.1159890200
 H    0.8414839298   -2.5605372008    2.0777156685
 H    0.3441576353   -0.1008651853    2.1324864312