15

 O   -0.0071993674    1.4590039591   -0.0813962163
 C    0.0092538786    0.0512236048   -0.0025834689
 C    0.1432315536   -0.5626753947    1.4310241368
 O   -1.1657891913   -1.1467254651    1.3506965762
 C   -1.4314096862   -0.5220608699    0.0846365614
 C    0.8758689283   -0.5522828830   -1.0002700853
 C    1.6207342134   -1.0474579245   -1.8135218333
 C    2.5089500544   -1.6135331272   -2.7982899942
 O    2.6206776087   -2.7976606113   -3.0142132075
 H    0.8948227214    1.7698719121   -0.2161347541
 H    0.9267281509   -1.3131338382    1.5751871169
 H    0.2126555515    0.2192814403    2.1973288807
 H   -2.1725339596    0.2826938718    0.1542600320
 H   -1.7192328270   -1.2419064039   -0.6867332229
 H    3.0994112907   -0.8616540803   -3.3598722517