16

 N    0.1560319558    0.6458877741    1.1060545380
 C   -0.1013156653    0.0497408355    0.0314816776
 C   -1.4847177714   -0.4682881196   -0.3010744175
 C   -1.5478162655   -1.4099535118   -1.5065575553
 C   -0.6706561289   -2.6433304871   -1.3182359657
 O    0.6440213808   -2.2990219970   -0.8305745448
 C    1.2593007340   -1.2592794447   -1.4540905079
 O    2.1132860085   -1.3606142261   -2.2757418019
 O    0.8650618682   -0.0400882952   -0.9886789326
 H    1.1279248121    0.9587801416    1.1275861649
 H   -1.8763727095   -0.9483099775    0.6006928562
 H   -2.1212758720    0.4045260384   -0.4840470918
 H   -2.5796629035   -1.7368574953   -1.6701715757
 H   -1.2464028341   -0.8737236007   -2.4136541119
 H   -1.0754658800   -3.3079650061   -0.5512620488
 H   -0.5673775792   -3.2065551083   -2.2527055028