12

 O    0.1037992100    1.3630809217    0.1322110934
 C    0.0696462868    0.0122075571    0.0405320187
 C    0.0757784910   -0.6749494288   -1.1737838806
 C    0.0381595996   -2.0651003237   -1.1452219420
 N   -0.0037717460   -2.7943381990   -0.0280479157
 C   -0.0088471950   -2.1139732115    1.1244197798
 C    0.0261012570   -0.7297256220    1.2212737973
 H    0.1317584667    1.7423661326   -0.7532205775
 H    0.1090165085   -0.1423982284   -2.1199864475
 H    0.0422292604   -2.6192750094   -2.0812618078
 H   -0.0430681517   -2.7130330478    2.0315145645
 H    0.0202261926   -0.2258694608    2.1802878273