13

 O    0.0814245650    1.3198303092    0.2273920252
 C    0.0698761134   -0.0123607527   -0.0079783319
 C    0.0834628359   -0.7660744374   -1.1532763227
 C    0.0573357611   -2.1380812713   -0.7048300106
 C    0.0306506921   -2.1041444859    0.6678540816
 N    0.0374778309   -0.8222553749    1.1276736333
 O    0.0043207435   -3.2978874741    1.2456898843
 N    0.0138260497   -4.2438393440    0.1693979493
 C    0.0442876906   -3.5367577883   -0.9430246224
 H    0.1057866032    1.7806218934   -0.6170815289
 H    0.1081754393   -0.3848936132   -2.1613523597
 H    0.0229781083   -0.4885764694    2.0755729125
 H    0.0558737971   -4.0830209714   -1.8762849699