17

 C    0.0405297764    1.5479092206   -0.0323552174
 O    1.1911727344    0.6734015541    0.0030480299
 C   -0.0930003824    0.1001234526   -0.0001121176
 C   -0.5336763793   -0.9361082448    1.0358316711
 C   -2.0475615170   -0.8631221853    1.2955799773
 C   -2.7653690700   -0.8081531670   -0.0399771277
 C   -2.0526888946   -0.8426696726   -1.1671489334
 C   -0.5505245011   -0.9661526627   -1.0016494033
 O   -0.2882959616   -1.9682071716    0.0334568240
 H   -0.1214886629    2.1350928542    0.8704573473
 H   -0.1051052756    2.0858932071   -0.9679707537
 H    0.0752761582   -1.0649822297    1.9340572848
 H   -2.3744126514   -1.7356116304    1.8763178395
 H   -2.2858506991    0.0209730367    1.9023671253
 H   -3.8498104020   -0.7516242903   -0.0446081583
 H   -2.4983852920   -0.7887635113   -2.1542412194
 H    0.0214283100   -1.1382427893   -1.9145222083