10

 O   -0.0021136904    1.2689311796    0.0087851186
 C    1.2632653954    1.7670478219   -0.0005908848
 C    2.0972970776    0.7054913136   -0.0140732692
 O    3.3950029767    0.2845053716   -0.0285748412
 C    3.2501466979   -1.0912204464   -0.0344116110
 N    2.0569470988   -1.5777808869   -0.0257045311
 C    1.2636826051   -0.4304089818   -0.0121567163
 N   -0.0139691502   -0.1332355356    0.0014758802
 H    1.3519580606    2.8395734816    0.0042113599
 H    4.1794950585   -1.6418585276   -0.0461111051