22

 C   -0.0171824998    1.5954895829   -0.0875321464
 C    0.0049391244    0.0557281988   -0.0354947799
 C   -1.4173156505   -0.5014034465    0.1625891232
 C    0.6703393826   -0.5352069779   -1.2521209704
 C    1.7912917727   -1.2607244097   -1.2656667499
 C    2.1674155097   -1.7420103385   -2.6458084531
 C    1.2544168845   -0.8908279419   -3.5640180646
 C    0.0945301308   -0.4149093120   -2.6550926863
 H    0.9922913188    2.0011704583   -0.2037796321
 H   -0.6241234148    1.9576739413   -0.9244093159
 H   -0.4463038066    2.0062381248    0.8326061973
 H    0.6039357553   -0.2376758739    0.8364476881
 H   -2.0723926774   -0.2216344392   -0.6696923327
 H   -1.4089100077   -1.5935561594    0.2311966733
 H   -1.8628864484   -0.1056316464    1.0813079759
 H    2.3625247353   -1.5213635399   -0.3798654960
 H    3.2313342928   -1.6097354918   -2.8743119138
 H    1.9647745620   -2.8180765905   -2.7518984814
 H    1.8138129618   -0.0195199386   -3.9198259114
 H    0.9079827006   -1.4345906557   -4.4467508351
 H   -0.7913148921   -1.0577943813   -2.7595023962
 H   -0.2375807541    0.5997368570   -2.9020457329