18

 C   -0.0159867283    1.5067841974    0.0708777596
 C    0.0025472138    0.0056571552   -0.0051860583
 C   -0.0108130478   -0.6596205925   -1.1698892837
 C   -0.0017917400   -2.1346465703   -1.2671616127
 O    1.1883418981   -2.8406475002   -0.8473972589
 C    0.0374290517   -2.9383606221   -0.0265257231
 C    0.0455988678   -2.2191895345    1.2936691855
 N    1.2543038231   -1.4680823051    1.6493483309
 C    0.0204241109   -0.7235274555    1.2898356710
 H    0.8912809588    1.8838026977    0.5594604134
 H   -0.0830339991    1.9601892613   -0.9213435249
 H   -0.8650153903    1.8628130786    0.6685423413
 H   -0.0408312292   -0.1037200253   -2.1035958221
 H   -0.4580214746   -2.5630187922   -2.1585355044
 H   -0.4435667805   -3.9165846263   -0.0218901700
 H   -0.5009488439   -2.7216083013    2.0879058142
 H    1.3600779911   -1.4661032911    2.6614220423
 H   -0.5009145716   -0.2267973338    2.1062684399