17

 C   -0.2458685441    1.3225050175   -0.1785364124
 O   -0.1676292682   -0.1010973965   -0.1500971994
 C    0.5870015834   -0.6734753651   -1.1080822147
 C    0.7654194304   -2.0140146673   -1.2861241371
 C    0.2517129029   -3.2409293631   -0.5997413163
 N   -1.1759286982   -3.2161504084   -0.2579585326
 O    1.6101340742   -2.1391298952   -2.3713401914
 C    1.8751598525   -0.8813123267   -2.7606619559
 N    1.2959248729    0.0388364200   -2.0527203837
 H    0.7425618908    1.7752445144   -0.0538932139
 H   -0.6765481965    1.6770175949   -1.1204640490
 H   -0.8920446200    1.5997900552    0.6554937779
 H    0.4503018685   -4.1030153839   -1.2456043616
 H    0.8067814154   -3.4207514731    0.3300534990
 H   -1.3554321268   -2.4107581750    0.3359554173
 H   -1.7161834826   -3.0524358284   -1.1036884109
 H    2.5286851655   -0.7545911792   -3.6090013952