22

 C   -0.0454538132    1.6296479212    0.0837101892
 C   -0.1509299220    0.1036031227    0.1293389473
 C    0.8443581333   -0.5355846413    1.1115093667
 C    0.7641043836   -2.0351642712    1.1090862284
 C   -0.1554907613   -2.8144918917    1.9649935294
 N    1.2909279945   -2.9257128850    2.2367814717
 C    1.7935003456   -3.8883595067    1.1943295257
 C    1.3637509933   -2.9388888090    0.0404367911
 O    0.4339308712   -3.3775361298   -0.9278401847
 H    0.9547785162    1.9495475104   -0.2295113448
 H   -0.7669099021    2.0581148654   -0.6189092993
 H   -0.2375619789    2.0696379489    1.0687672463
 H   -1.1691845965   -0.1910323817    0.4119441156
 H    0.0132003771   -0.3122915444   -0.8723427759
 H    1.8659524471   -0.2222894013    0.8553515026
 H    0.6557264613   -0.1698502038    2.1284851969
 H   -0.6890059055   -2.2644790027    2.7346358186
 H   -0.6872610994   -3.6737343693    1.5637047833
 H    2.8730317028   -4.0255449725    1.2874978361
 H    1.2941029447   -4.8628471719    1.2161272924
 H    2.2343972300   -2.4676875503   -0.4351871859
 H    0.9039033783   -3.8975497961   -1.5877545409