19

 C   -0.4284609927    1.5655002274   -0.1282098304
 C    0.0221420872    0.1132889637    0.0102847553
 C   -1.1461464077   -0.8540906266   -0.1641103080
 C    1.2746229127   -0.2450308329   -0.8781485308
 C    2.0478858563   -0.4934935090    0.3974939505
 C    0.8809228461   -0.1605969183    1.2996975730
 N    3.2505374342   -0.8529709925    0.5634999596
 O    3.5535926500   -0.9633944428    1.9358951286
 H    0.4116239558    2.2570415890   -0.0022209135
 H   -0.8672513366    1.7490438239   -1.1157145608
 H   -1.1838534939    1.8163728926    0.6252569831
 H   -1.6061014286   -0.7417062324   -1.1526448753
 H   -0.8199070118   -1.8949400089   -0.0638817009
 H   -1.9222127596   -0.6730717577    0.5883650847
 H    1.1488688833   -1.1237221653   -1.5184934021
 H    1.6535097155    0.5773791716   -1.4929999162
 H    1.0446219035    0.7051059114    1.9495245111
 H    0.5408545202   -0.9928028697    1.9244390189
 H    4.4768055862   -1.2372072334    1.9167191233