18

 O    0.1079730349    1.3460593102   -0.1210615336
 C    0.0066230438   -0.0498658622   -0.0749955605
 C   -1.4320222967   -0.4929930035   -0.0169423189
 N   -2.3788049407    0.3560296020   -0.0125946491
 C   -3.7147138188   -0.2447171857    0.0473691240
 C   -3.7120327428   -1.3475484949    1.1503231838
 C   -2.9951399591   -2.2112019382    0.0837179683
 C   -3.7791687649   -1.4115976535   -0.9855707302
 O   -1.5989026842   -1.8349603830    0.0284920133
 H   -0.8070410592    1.6692674745   -0.1005596775
 H    0.4760593908   -0.5121807196   -0.9576356415
 H    0.5302441657   -0.4581411219    0.8038839341
 H   -4.4828985377    0.5271777976    0.0483428326
 H   -3.1819324327   -1.1363767141    2.0808533830
 H   -4.7129923204   -1.7317313557    1.3553539170
 H   -3.0132081436   -3.2992754271    0.1169328493
 H   -4.7903122289   -1.8054678878   -1.1039603577
 H   -3.3089418854   -1.2575684670   -1.9585292365