15

 O    0.3050648000    1.3219189019   -0.3606896531
 C    0.0779806349   -0.0099278322   -0.0362753152
 C    0.1812593055   -0.4200448217    1.4964434892
 C   -1.3428513303   -0.4814089829    1.4725709742
 O   -1.8684145413    0.9216034268    1.3301824533
 C   -2.6637013611    0.1911511946    0.3451400683
 C   -1.4183352770   -0.5829762834   -0.0884815758
 C   -2.8442601416   -0.9257765245    1.4982032144
 O   -3.6138199053   -1.6724574897    1.9863927772
 H   -0.3240291084    1.8318685348    0.1655905329
 H    0.7270495181   -0.6112720462   -0.6758128857
 H    0.6438194991   -1.4005507344    1.6285151780
 H    0.6268559268    0.3068446087    2.1777386923
 H   -3.4278123392    0.7363005885   -0.2083904928
 H   -1.5376289603   -1.5457382903   -0.5882685273