16

 C   -0.0602127246    1.5605128976   -0.0047205332
 C    0.0977964735    0.0571138820    0.0391223715
 O    1.1569490201   -0.4560618863   -0.8251570473
 C    1.7068814411   -1.2082888879    0.2477698449
 C    2.2117337214   -0.3176748638    1.3272344357
 C    0.7184919185   -0.6381695342    1.2673095656
 C   -0.0083633423   -1.2356171892    2.3289854527
 C   -0.6482098686   -1.7257615893    3.2235330721
 H    0.8540699640    2.0729190697    0.3054513178
 H   -0.3056335080    1.8826387968   -1.0215922435
 H   -0.8764022281    1.8676288554    0.6573915118
 H   -0.8419255082   -0.4410109647   -0.2273029699
 H    2.0254763325   -2.2260297112    0.0554114233
 H    2.7217402860   -0.8109772181    2.1478093447
 H    2.5739135826    0.6754258795    1.0793927991
 H   -1.2078619200   -2.1632392463    4.0124759847