21

 C   -0.0304718367   -1.2265544904   -0.0823669673
 C   -0.0092118933   -0.0254466912   -0.0284391271
 C    0.0172045731    1.4343375861    0.0534169682
 C   -0.8017472263    1.9545012565    1.2594191615
 C   -0.6828800220    3.4771114811    1.3708852887
 C    0.7550062570    3.9162308334    1.6913848827
 C    1.8084074276    3.2126233384    0.8330235770
 C    2.3402558355    1.8590889372    1.2477616119
 C    1.4503862967    1.9702450562    0.0411530931
 H   -0.0483052410   -2.2866458664   -0.1373151286
 H   -0.4759008884    1.8272318172   -0.8482283390
 H   -1.8449829801    1.6512814795    1.1284239719
 H   -0.4537938508    1.4737037938    2.1817058597
 H   -1.0018957257    3.9265348755    0.4207306842
 H   -1.3658911524    3.8549337517    2.1394378683
 H    0.8413994605    4.9991722408    1.5547626709
 H    0.9597356658    3.7291201080    2.7532242209
 H    2.5280684444    3.8741991848    0.3606320812
 H    3.3899425996    1.6362768026    1.0909520641
 H    1.9269973043    1.4186107447    2.1499222300
 H    1.9412074822    1.8495526104   -0.9199201023