19

 C    0.0755498762    1.4125501326   -0.0956017855
 N   -0.0247301580   -0.0377545845    0.0561459804
 C    0.8312960839   -0.5301291267    1.1337231326
 C   -1.3636533025   -0.5201259183    0.1169815636
 C   -1.8677814738   -1.3379216459   -0.8671123472
 O   -1.2701967667   -1.8100048001   -1.9820254059
 N   -3.1574676611   -1.6522796043   -0.5711089132
 C   -3.5089530078   -1.0345335641    0.6220494478
 C   -2.4222725040   -0.3302187023    1.0700645073
 H    1.1153083553    1.6904583429   -0.3026359041
 H   -0.5453963057    1.7361156664   -0.9343162652
 H   -0.2485759139    1.9645376478    0.8042447348
 H    0.5617539223   -0.1180856693    2.1221744855
 H    0.7597387385   -1.6189599291    1.1888584953
 H    1.8732806773   -0.2580072147    0.9302366049
 H   -0.3745537204   -1.4394640511   -1.9456564825
 H   -3.7466646160   -2.2379317739   -1.1357522834
 H   -4.4970598877   -1.1592308998    1.0319142077
 H   -2.3837284559    0.2562124944    1.9753414973