10

 C    0.0919842868   -1.1642986997   -0.0052181297
 C    0.0234001385    0.0350943456    0.0025549241
 C   -0.0091379862    1.4444273670    0.0111004995
 N   -1.1141471009    2.1553015104    0.0287267528
 O   -0.7157803458    3.4588849671    0.0313936185
 N    0.6319400468    3.5870732105    0.0155957777
 C    1.0972527740    2.3618057129    0.0027643729
 C    2.4849528472    2.0644102330   -0.0160053384
 N    3.6051932669    1.7806916889   -0.0313979157
 H    0.1482723927   -2.2260448657   -0.0120175517