21

 C   -0.6769023426    1.3479531136   -0.3321173671
 C    0.0811541211    0.0357344316   -0.2984250439
 O    1.4191116955    0.1372723898   -0.8561395630
 C    1.9832794520   -0.5959566502    0.2470930782
 C    2.5788557914    0.3237323927    1.3399262802
 C    1.2575977534    0.1709008454    2.1587229455
 C    0.6089922020    1.3983677796    2.7837917180
 O    1.3918107858    1.9196739183    3.8496011099
 C    0.6163788331   -0.6429382287    0.9896490549
 H   -0.1047265801    2.1603881801    0.1187346324
 H   -0.8838737529    1.6244964248   -1.3711276959
 H   -1.6354720985    1.2543437896    0.1894261777
 H   -0.4908324179   -0.7112882821   -0.8708758234
 H    2.5519973588   -1.4724430331   -0.0748224030
 H    3.4780659070   -0.0444484160    1.8391595696
 H    2.7693252288    1.3311318322    0.9623839131
 H    1.4265335055   -0.5473450639    2.9731916827
 H    0.5318817997    2.2172166633    2.0653210464
 H   -0.4147968719    1.1572885882    3.1156984062
 H    1.4656295245    1.2353050755    4.5228104157
 H    0.1008577855   -1.5605703508    1.2735367458