15

 O   -0.0990905360    1.4045143625   -0.2175386727
 C    0.0251848820    0.0136004905    0.0601407439
 C   -1.3995892297   -0.5342570228    0.0063233516
 O   -1.9981666412   -0.2318997625   -1.2324241246
 C   -1.4146093979   -2.0668826552    0.1494586777
 O   -0.7502813904   -2.5069547607    1.3196573800
 C   -2.7955314410   -2.5837828660    0.0939912406
 N   -3.8726142202   -3.0004756179    0.1181718813
 H    0.7748716446    1.7667117911   -0.3866164281
 H    0.6361393790   -0.4920052700   -0.7026069466
 H    0.4717142152   -0.1702071300    1.0446860104
 H   -1.9730984854   -0.0952154688    0.8411375538
 H   -1.7644080444    0.6865442201   -1.4194948056
 H   -0.8597884626   -2.4900584784   -0.6949915717
 H   -1.3048635821   -2.2998629019    2.0808819599