16

 C   -0.1015382023    1.5410423995    0.0342426739
 C    0.0568951399    0.0208833231   -0.0342341140
 N    0.8889455848   -0.4111210144   -1.1684715446
 C    1.8368537663   -1.0991274342   -0.6609788905
 N    1.8285268791   -1.2477218284    0.7236456875
 C    2.7899189499   -1.9504951711    1.5455219076
 C    0.7276780421   -0.5543173236    1.2212644251
 O    0.4209962926   -0.4509428256    2.3858794457
 H    0.8757983609    2.0285981776    0.0943521266
 H   -0.6130498196    1.9063825631   -0.8589752617
 H   -0.6804946257    1.8112821530    0.9211099713
 H   -0.9348279644   -0.4391521520   -0.1336600631
 H    2.6317448964   -1.5644811942   -1.2367341802
 H    2.8160181135   -3.0180634699    1.3042117633
 H    3.7957137064   -1.5342352265    1.4273670314
 H    2.4716911703   -1.8265288762    2.5826614716