14

 N    0.1798719771    1.0269260944   -0.3597271907
 C   -0.0413149103   -0.1470464496    0.2699732023
 O    0.4963065942   -0.5471694808    1.2685511468
 O   -1.0159894871   -0.8418406841   -0.4363099452
 C   -1.3749581664   -2.0603648359    0.0519924662
 N   -2.2562832673   -2.7025673182   -0.5760029833
 C   -2.6718826437   -4.0059989323   -0.0943473582
 C   -2.0223123872   -4.5107715600    1.1288409807
 N   -1.4959558534   -4.8800116542    2.0890739258
 H    0.8626454406    1.6541691982    0.0252622555
 H   -0.3238978538    1.2702426137   -1.1936893508
 H   -0.8429193345   -2.3518475685    0.9589861451
 H   -3.7547858339   -3.9832998483    0.0779962197
 H   -2.5113365144   -4.7390401346   -0.8942058338