18

 C   -0.0136644520    1.6399622063    0.2248187450
 C   -0.0183597302    0.1339387130    0.0722614207
 C   -1.3369173912   -0.4666112854   -0.4127941972
 C   -1.7203279282    0.0021441380   -1.7465633080
 N   -2.0171914083    0.3786413402   -2.7978182748
 C    1.2549288553   -0.5892147562   -0.3565196513
 O    2.4382460589    0.1184745694   -0.5306851107
 C    0.7360301941   -0.7337054549    1.0581416307
 O    1.4699189643   -0.0529914841    2.0447719329
 H    0.9837214978    2.0145323527    0.4533265518
 H   -0.3424139875    2.1127062935   -0.7059511223
 H   -0.6879535953    1.9562714567    1.0278782348
 H   -1.2753621457   -1.5606573938   -0.4446122142
 H   -2.1460760433   -0.2202357129    0.2866881072
 H    1.1679767057   -1.4188606596   -1.0531119250
 H    2.7125847949    0.4091686239    0.3503814133
 H    0.2781807776   -1.6642328316    1.3903674884
 H    2.0799263532   -0.6822782154    2.4456644988