16

 C   -0.3549285028    1.5388659623   -0.0573430882
 C    0.0729115492    0.0815101185   -0.0563875288
 O    1.1244070232   -0.1024792446   -1.0514543276
 C    2.0803052124   -0.8336509656   -0.4367976570
 N    1.9631926985   -1.1428041494    0.7854201505
 C    0.7053965500   -0.5136583461    1.2477357943
 C    1.0040539950    0.4699439938    2.3811887238
 H    0.4685494583    2.1980111957    0.2281579174
 H   -0.6949886493    1.8285117217   -1.0553318119
 H   -1.1825733457    1.6945314252    0.6412732455
 H   -0.7654613865   -0.5449452992   -0.3822240323
 H    2.9153005309   -1.1034964730   -1.0749626235
 H    0.0529643682   -1.3005558149    1.6417130093
 H    1.6817812919    1.2639782915    2.0541728098
 H    0.0878765057    0.9298202703    2.7643296204
 H    1.4899547410   -0.0644563365    3.2013758986