17

 N   -0.1862377595    1.3375867686    0.1120164757
 C   -0.0286091235    0.1025838905   -0.1194564802
 C   -1.1443819125   -0.8889988681    0.1192835081
 C   -1.1785087755   -2.0116939177   -0.9022551650
 C   -0.7453852723   -1.7634791559   -2.3289102610
 C    0.1640996841   -2.4947937337   -1.3731563314
 C    1.3552577209   -1.7843637425   -0.7701257544
 O    1.1531560140   -0.3747469426   -0.6151321133
 H    0.6799668793    1.8424877457   -0.0893280373
 H   -1.0091370679   -1.3250325080    1.1194270314
 H   -2.0759047713   -0.3198717646    0.1483711603
 H   -1.9615270481   -2.7463087014   -0.7440891863
 H   -1.2241364190   -2.3443882661   -3.1089114246
 H   -0.4816710869   -0.7534606234   -2.6228755250
 H    0.3175719316   -3.5591538996   -1.5234505211
 H    1.6026074201   -2.2262796074    0.2063120977
 H    2.2414964964   -1.8686340538   -1.4061830337