17

 C    0.0510487280    1.4393860918    0.2510251966
 C    0.0742753450   -0.0663523064   -0.0131529448
 C    0.7043736057   -0.4529505151   -1.3743652153
 C    2.0951630376    0.0027707437   -1.4612555689
 N    3.1877169369    0.3726684193   -1.5324442795
 C    0.5840965763   -1.9545163122   -1.6147169369
 C    1.6236158270   -2.7813867466   -2.2363108912
 O    1.4042363905   -2.7989801256   -0.8195456814
 H    1.0624924210    1.8563125362    0.2633746718
 H   -0.5220105791    1.9702486023   -0.5172567034
 H   -0.4119163365    1.6519193094    1.2187021540
 H    0.6251201390   -0.5885220948    0.7755170843
 H   -0.9466164859   -0.4658474029   -0.0041647111
 H    0.1487650856    0.0555822872   -2.1750220067
 H   -0.4541979952   -2.2814423430   -1.6977279378
 H    1.3363845839   -3.6901591157   -2.7623021291
 H    2.5586714504   -2.3247215376   -2.5519946207