20

 C    0.0012834530    1.6164642936    0.2374179013
 C   -0.0191837891    0.0971882926   -0.0175880566
 C   -1.3946364350   -0.4905987695   -0.0774934573
 C   -2.2076553445   -0.8022141770   -1.1556187978
 C   -1.9041248364   -0.6630115099   -2.6167069046
 C   -3.4331816503   -1.2957268770   -0.6135073380
 O   -4.5237810597   -1.7308353929   -1.3151437808
 C   -3.3487705128   -1.2752036023    0.7561186146
 N   -2.0976136477   -0.7782207079    1.0643267337
 H    1.0281695779    1.9941854948    0.2814681961
 H   -0.5274090885    2.1506832656   -0.5575800413
 H   -0.4908503348    1.8639442339    1.1835374340
 H    0.4992687272   -0.1180314909   -0.9577731500
 H    0.5628632504   -0.4077476620    0.7655230928
 H   -2.0617220762   -1.6044006918   -3.1610132785
 H   -2.5272178359    0.0989944414   -3.1048492820
 H   -0.8629288979   -0.3737775517   -2.7834185721
 H   -4.3389007602   -1.6258633151   -2.2528224318
 H   -4.0523102786   -1.5742292666    1.5137542868
 H   -1.7408534109   -0.6679218174    1.9965166415