16

 C   -0.0350779897    1.5405367303   -0.2547412092
 C    1.4976978495    1.6104790527    0.0876036587
 N    1.8323774461    2.3321072716    1.3296152800
 C    1.7618258154    1.4861596354    2.2744653855
 N    1.4488238263    0.1259393754    1.9400088828
 C    0.1053033352   -0.2534897682    2.2731999071
 N   -0.7354948509   -0.3646144205    1.3276542990
 C   -0.0302013212    0.0059138254    0.0864366911
 C    1.4677850863    0.1089695985    0.4476276168
 H   -0.6713119576    2.1459002724    0.3926673910
 H   -0.2670598417    1.7621938416   -1.2985529119
 H    2.1415334798    1.9298925302   -0.7313993194
 H    1.9077345317    1.7375032144    3.3206539430
 H   -0.1393622361   -0.4123145695    3.3190903932
 H   -0.3171409566   -0.6521517741   -0.7332769726
 H    2.2049524734   -0.5926910157    0.0556801050