21

 C    0.2096380468    1.7553567794    0.7165940788
 C    0.2130686309    0.3218467943    0.1522546136
 C    0.5602782336   -0.7037294827    1.2033070305
 N   -0.2578256044   -1.1932260889    2.0556236598
 O   -1.5524037217   -0.6646626679    1.9047997183
 C    1.9580780750   -1.2366783415    1.2544184157
 N    3.0388472830   -0.2372858022    1.3695369444
 C    2.8282973872   -1.2079269151    2.4601232301
 C    2.3997612854   -0.6594340417    3.7977903624
 H    1.1938394215    2.0101193727    1.1172570144
 H   -0.0423093315    2.4742163722   -0.0693508285
 H   -0.5303239713    1.8478672011    1.5153718149
 H   -0.7745657104    0.0871810158   -0.2557170598
 H    0.9427292224    0.2520103531   -0.6606530084
 H   -2.0401289302   -1.1333097309    2.5899046741
 H    2.1292923033   -2.0610219522    0.5606738418
 H    3.8308360479   -0.5040227489    0.7915603506
 H    3.5454245120   -2.0263306249    2.5205851059
 H    1.7293665096    0.1922237540    3.6730569394
 H    1.8757251758   -1.4249728972    4.3782554701
 H    3.2738126950   -0.3289782983    4.3694094418