17

 C    0.0427346956    1.5424105391   -0.1719007581
 C   -0.0252298983    0.0409404526    0.1536905143
 C   -1.4137843114   -0.5204104773    0.0761409276
 C   -2.1574527300   -1.0059383424    1.0999365273
 O   -3.3915472040   -1.4214628701    0.6466655202
 C   -3.4128491004   -1.1923443931   -0.6858786081
 N   -4.6152758788   -1.4828650206   -1.3171404164
 C   -2.2375755861   -0.6437303110   -1.1037943429
 H    1.0721673133    1.9099711500   -0.1120569783
 H   -0.3294589123    1.7452217218   -1.1810337556
 H   -0.5690147730    2.1198254532    0.5280058610
 H    0.6310104199   -0.5042640705   -0.5375296695
 H    0.3772717008   -0.1331529472    1.1581401192
 H   -1.9835500896   -1.1344489654    2.1546058920
 H   -5.0945094123   -2.2678023508   -0.8938921089
 H   -4.5074853668   -1.6258664968   -2.3116852420
 H   -1.9802593464   -0.3651941014   -2.1136408917