17

 N   -0.1039922795   -1.0743557393    0.5631529294
 C   -0.0572602724    0.0304616972    0.2279005486
 C    0.0252672681    1.4367914399   -0.1799765598
 C    1.4354747726    1.9656784844   -0.1443832809
 C    2.0812352987    2.5813315622   -1.1382336880
 C    3.4738197323    3.0232318359   -0.7387380058
 C    3.5512857513    2.6244010206    0.7323257059
 N    2.5665113064    3.3166316024    1.5909674359
 C    2.2804323114    1.9404224851    1.0903663573
 H   -0.3979054756    1.5367170801   -1.1847252061
 H   -0.6161824572    2.0176738207    0.4968549913
 H    1.6632557542    2.7854253712   -2.1183165872
 H    4.2436605395    2.5164759179   -1.3349188581
 H    3.6176204047    4.1013814406   -0.8763543959
 H    4.5008682153    2.3288562285    1.1642359838
 H    2.8859641539    3.2480002030    2.5562918933
 H    2.2184927263    1.1200452995    1.7972650264