22

 C   -0.0366102593    1.3585026811    0.2651087857
 O   -0.0730799149   -0.0440968506    0.3405322389
 C   -1.2282775477   -0.5907268712   -0.2694184311
 C   -1.1547501046   -2.0907724788   -0.1748724448
 C   -1.5884246163   -2.7893820428    1.0936650110
 C   -2.4100966696   -2.9298353648   -0.1587359883
 N   -3.6863536040   -2.2679909826   -0.1997230866
 C   -4.4841494687   -2.4641626100   -1.4069582058
 C   -4.8636270888   -3.1280933125   -0.1289220933
 H    0.8813810194    1.6913293139    0.7564070745
 H   -0.0290141326    1.7151083907   -0.7782662104
 H   -0.8984683415    1.8210057376    0.7735176104
 H   -2.1418216535   -0.2239177731    0.2206628116
 H   -1.2786250560   -0.2748998580   -1.3266326585
 H   -0.3058750281   -2.5225483473   -0.6973340667
 H   -1.0198307706   -3.6429010881    1.4448905685
 H   -2.0059656823   -2.1651292303    1.8759216628
 H   -2.3559459586   -3.8892266426   -0.6822662172
 H   -5.0288289908   -1.5938166622   -1.7616895375
 H   -4.0710559228   -3.0949549211   -2.1923655912
 H   -4.7029618756   -4.2026474488   -0.0597750022
 H   -5.6902209628   -2.7514724886    0.4667572201