21

 C    0.1396059651    1.6024372910    0.0828870605
 C   -0.0180096158    0.0791194427    0.0192183951
 C    0.6130384185   -0.5349722705   -1.2383798339
 C    0.6121579884   -2.0777024786   -1.3480562502
 C    1.0271611054   -2.2912290221   -2.8316406114
 C   -0.3744948624   -1.6536628986   -3.1170737190
 C   -0.8382594182   -2.3981596913   -1.8189077697
 C   -0.1588037537   -0.2567500450   -2.5543555845
 O   -0.5190961058    0.8006853365   -3.0030580950
 H    1.1981547204    1.8846994135    0.1124984671
 H   -0.3064834175    2.0747807212   -0.7953908003
 H   -0.3386206026    2.0085298622    0.9795402142
 H    0.4495555613   -0.3800375437    0.9001150776
 H   -1.0821424477   -0.1813129142    0.0691107747
 H    1.6353750036   -0.1460185078   -1.3421072069
 H    1.0847749352   -2.6302448964   -0.5358742615
 H    1.9162004544   -1.7730466736   -3.2027496352
 H    1.0544898001   -3.3447032141   -3.1189206136
 H   -0.8914886374   -1.7297725892   -4.0712504416
 H   -0.9924610645   -3.4636643868   -2.0030372282
 H   -1.6826908665   -1.9893709952   -1.2588764481