23

 C    0.0004250839    1.3587551252   -0.3368066391
 C    0.0334374405   -0.0940908794    0.1105317351
 O   -1.2960902093   -0.5977496121    0.0524602911
 C   -1.4453326701   -2.0096322428    0.1116026987
 C   -0.8739560398   -2.6073635452    1.3932579804
 C   -2.9584167383   -2.2664363023   -0.1156140591
 C   -3.0383626298   -2.8702745105   -1.5352720980
 C   -1.6490832147   -2.5601522704   -2.1070388728
 O   -0.7803814880   -2.6289408862   -0.9793072436
 H    1.0016570988    1.7973604963   -0.2825863926
 H   -0.3584013316    1.4375575844   -1.3671174748
 H   -0.6681516098    1.9432186207    0.3022129831
 H    0.6870532651   -0.6880567559   -0.5400484408
 H    0.4265198588   -0.1627891327    1.1358912448
 H   -1.3025993382   -2.1061386727    2.2653610226
 H   -1.1109796998   -3.6728402217    1.4425791206
 H    0.2132086578   -2.5041785258    1.4245529174
 H   -3.3622355974   -2.9424683795    0.6409266367
 H   -3.4874539363   -1.3155349972   -0.0386399836
 H   -3.1883605161   -3.9528285051   -1.4880897404
 H   -3.8462151302   -2.4461755056   -2.1363805421
 H   -1.2953596289   -3.2841769410   -2.8449788969
 H   -1.6201915267   -1.5568475206   -2.5547250164