16

 C    0.0814286021    1.5232823680   -0.1603658008
 N    0.0374326060    0.0665787984   -0.0393089751
 C   -1.1163498337   -0.4927798186    0.7247091470
 C   -0.2844177585   -1.7321635065    1.1859996377
 N   -0.5779971270   -1.5950717545    2.6443895356
 C   -0.5389032590   -0.1810801009    2.1638895104
 C    0.6692704264   -0.4957919483    1.1929212389
 C    2.0788690465   -0.4410581379    1.4742064990
 N    3.2118574559   -0.3724865602    1.6937593080
 H    1.0896648178    1.8259323454   -0.4575321562
 H   -0.6096006617    1.8299743507   -0.9511123515
 H   -0.1849618291    2.0635665146    0.7626099336
 H   -2.1471181174   -0.4516235024    0.3716779910
 H   -0.1216130165   -2.6767129252    0.6700226488
 H   -1.5415140111   -1.8764271261    2.8407751793
 H   -0.6814650907    0.6720609836    2.8257863644