18

 C   -0.1621694798    1.5919696419    0.0367948588
 C    0.0519534135    0.0834726677   -0.0229576041
 C    0.8574049839   -0.4934448501   -1.1857056609
 C    2.3519945725   -0.0682303919   -1.1771326521
 C    2.5999528928   -1.3754720953   -0.4458381933
 C    1.6117741758   -1.6416941358    0.6508004000
 N    1.2467116393   -1.9254769135   -0.7642164921
 C    0.8049738469   -0.4976414878    1.1813000345
 O    0.7266737024   -0.1315751064    2.3272776216
 H    0.7820091829    2.1367649624   -0.0604112323
 H   -0.8328002952    1.9321137922   -0.7574260646
 H   -0.6001239826    1.8595010130    1.0021747823
 H   -0.9243389995   -0.4263016781   -0.0212109829
 H    0.3486776782   -0.4770588593   -2.1480976164
 H    2.7833748289   -0.0933300462   -2.1797681864
 H    2.6332022446    0.8696567764   -0.6903923807
 H    3.4952281699   -1.9866528032   -0.5109270602
 H    1.7915178758   -2.5013847160    1.2860802586