17

 C   -0.1368466534    1.4077852766   -0.0159236196
 N   -0.1239465307   -0.0389622498   -0.0927244229
 C    0.5896421660   -0.6295845914   -0.9709905257
 N    1.4035920201    0.0458745119   -1.9155045627
 C    2.0764081711   -0.6308227684   -2.7487818878
 O    2.1269174755   -1.9790000049   -2.8665333054
 C    1.3561835782   -2.6839041350   -1.9748854907
 C    0.5960486607   -2.0991446851   -1.0410946876
 C   -0.2370677560   -2.8878341336   -0.0784318261
 H    0.4993062559    1.9073562644   -0.7538176732
 H   -1.1691294130    1.7593438137   -0.1364847608
 H    0.1759637985    1.7114636124    0.9908725941
 H    2.7154734239   -0.1628751101   -3.4930156485
 H    1.4494685826   -3.7505726231   -2.1317736195
 H   -0.1344541179   -3.9634405396   -0.2466591224
 H    0.0506993047   -2.6554012389    0.9514899659
 H   -1.2909657261   -2.6078969391   -0.1706901972