15

 C   -0.1710735557    1.7018396201    0.2693775764
 C   -0.0598673974    0.2062300807   -0.0304640968
 O    0.5619085300    0.0772988699   -1.3265486367
 C    0.2533077009   -1.0177719966   -2.0567717991
 O    0.7413540227   -1.2324191985   -3.1227465040
 C    0.7089113413   -0.5083933025    0.9849370438
 C    1.3284836956   -1.0929310665    1.8405804567
 C    2.0948298293   -1.8017608319    2.8376903170
 O    1.7819475641   -1.8811340883    4.0021591843
 H    0.8218445958    2.1554404423    0.2932719135
 H   -0.7634249739    2.1842800742   -0.5112331009
 H   -0.6542719848    1.8544987544    1.2369714434
 H   -1.0668954164   -0.2319848153   -0.0753852411
 H   -0.4959131572   -1.6687094863   -1.5659925543
 H    3.0142854858   -2.2795304958    2.4450551678