23

 C   -0.0914218817    1.5565192169   -0.1032511925
 C    0.0120920881    0.0303135905   -0.0399087088
 C    0.8202686798   -0.5852620248   -1.2097234866
 C    1.3564546383   -1.9349528420   -0.6865618410
 C    1.5150775363   -1.7273192723    0.8124419996
 C    2.1848485501   -0.4597439152    1.2839914476
 C    0.6759526102   -0.5329035690    1.2228459412
 C   -0.1024314238   -0.5507700842    2.5085414312
 O   -0.2473924615    0.7826947909    2.9932132715
 H    0.9033552322    2.0147478073   -0.0674016322
 H   -0.5742598770    1.8776699360   -1.0330571700
 H   -0.6636635164    1.9444643636    0.7419225835
 H   -1.0069508021   -0.3846476437   -0.0671077111
 H    0.2165710366   -0.6941052421   -2.1152048441
 H    1.6512980654    0.0797191493   -1.4712370674
 H    0.6254595052   -2.7334685924   -0.8635163901
 H    2.2858937687   -2.2359641868   -1.1826868554
 H    1.5778661449   -2.6021125366    1.4523350120
 H    2.6346921207   -0.4739165065    2.2711110104
 H    2.7187221657    0.1597796683    0.5708964830
 H   -1.0906268386   -1.0084512390    2.3341886907
 H    0.4232027522   -1.1773321142    3.2472880844
 H   -0.8284354133    0.7587274960    3.7594857139