17

 N    0.5032969145    0.2444146056   -0.8468115371
 C   -0.1224687273    0.1168675964    0.3571332574
 O    0.1272125385    0.8238127809    1.3138442035
 C   -1.2083497006   -0.9645366877    0.4120727692
 C   -0.7839569846   -2.3630070695   -0.0319429101
 C   -1.8955955599   -3.4413628207    0.1043247638
 N   -2.1716985123   -3.8987766506   -1.2680378069
 C   -1.3742216839   -3.2621561132   -2.0128493225
 O   -0.5004519955   -2.3736936350   -1.4682044779
 H    1.2651176022    0.8996871449   -0.9111796138
 H    0.3658540772   -0.4343512255   -1.5777081590
 H   -1.5379093938   -1.0095950989    1.4528958835
 H   -2.0657328014   -0.6483246571   -0.1953932169
 H    0.1432150591   -2.6581623745    0.4673527775
 H   -1.5808212057   -4.2896075262    0.7198018187
 H   -2.8093974411   -3.0342505340    0.5503747108
 H   -1.3035267155   -3.3536067350   -3.0909531003