20

 C   -0.1423601520    1.5392457006    0.0190182973
 C    0.1317252295    0.0399156557   -0.0060592800
 C    1.0636081532   -0.4247702666   -1.1422153923
 N    1.6219355140   -1.6806183078   -0.6323263342
 C    1.3190383076   -1.8978159935    0.7868316176
 C    0.8374612686   -0.5197019113    1.2542314129
 O    1.9066248048    0.3052297063    1.6983936143
 C    2.2889743324   -2.5979346403   -1.3742130077
 O    2.7184408214   -3.6511727932   -0.9472390256
 H    0.7787085932    2.0950189543    0.2121609762
 H   -0.5642498599    1.8808659525   -0.9316415201
 H   -0.8547445860    1.7920100315    0.8103327075
 H   -0.8155640415   -0.5058855601   -0.1058873055
 H    0.5309700753   -0.5771008402   -2.0858418446
 H    1.8517924462    0.3204084618   -1.3256232469
 H    0.5431462232   -2.6644559633    0.9066028716
 H    2.2050346262   -2.2367667434    1.3293765752
 H    0.1543285935   -0.5897772601    2.1043596540
 H    2.6488679972    0.1992158128    1.0935586307
 H    2.4060652032   -2.2785666758   -2.4299053203