20

 C   -0.2418049257    1.5800249226    0.0675746168
 C    1.1346185009    0.9416216772   -0.0378530666
 C   -0.0963062492    0.0888990576   -0.0490137322
 O   -0.3855707680   -0.6629932570    1.1139224090
 C   -1.0759413587   -1.8624004679    0.7456047273
 C   -1.6558352462   -1.6002955755   -0.6489426511
 C   -0.5688681589   -0.7162310489   -1.2338804049
 C   -0.4717299570   -0.2652682659   -2.6338864938
 N    0.3860694773   -1.3677660213   -2.1505444427
 H   -0.5380356414    1.9605403178    1.0388830986
 H   -0.6190706786    2.1390317385   -0.7819344999
 H    1.6969830252    1.0751875285   -0.9582015725
 H    1.7415200064    0.9050417671    0.8595203437
 H   -0.3711107936   -2.7058369742    0.7181677912
 H   -1.8318235944   -2.0662038931    1.5093613697
 H   -1.8076249815   -2.5080745367   -1.2345823217
 H   -2.6013739857   -1.0516209092   -0.5774403676
 H   -1.2316342500   -0.5563090064   -3.3543826655
 H   -0.0150415435    0.7017283688   -2.8346676818
 H    1.3239986025   -1.0142659420   -1.9717365163