20

 C   -0.1798707834    1.6460838051    0.0502726696
 C    0.0560144474    0.1245056064    0.0563206518
 C    0.8362536839   -0.2994080258    1.3108105845
 C   -1.2968683667   -0.6137046168    0.0219631459
 O   -2.0619355880   -0.2318547161    1.1563689968
 C    0.7820758188   -0.2531442337   -1.2301362629
 C    2.2284864775   -0.4730909489   -1.3485170188
 O    1.3177824881   -1.5759878574   -1.3409296005
 H    0.7704860717    2.1887638420    0.0770857681
 H   -0.7227707807    1.9607592947   -0.8486290031
 H   -0.7739751879    1.9403167636    0.9180029569
 H    0.1932524919   -0.2133170069    2.1890478045
 H    1.1687389974   -1.3379871962    1.2234975568
 H    1.7140788772    0.3342846872    1.4696920915
 H   -1.8264648142   -0.3576070560   -0.9105924246
 H   -1.1100933272   -1.6975539188    0.0122596235
 H   -2.8628065010   -0.7627856596    1.1712166869
 H    0.2640880526    0.0744740003   -2.1355262472
 H    2.7227862724   -0.2840784063   -2.3006513316
 H    2.8680637900   -0.3946950069   -0.4726143782