19

 O    0.3547845342    0.3829050134    0.9255098228
 C   -0.2114549031    0.3133225424   -0.3814703257
 C   -1.5158830162   -0.4453152894   -0.2647653083
 C   -2.2742009856   -0.8497982181   -1.5639470301
 C   -2.5458910814   -2.2551865745   -0.9469096071
 C   -1.4767647749   -1.9377861412    0.1029569169
 C   -0.2746542879   -2.7270329157    0.4539460415
 N   -1.3779327713   -2.5398218459    1.4237550971
 H    1.1953068847    0.8469466933    0.8698932179
 H   -0.3916270879    1.3206936485   -0.7900045886
 H    0.4620726653   -0.2127661749   -1.0761723299
 H   -2.1791459314    0.0941768404    0.4224063147
 H   -3.1427977607   -0.2468842899   -1.8347874609
 H   -1.6024323111   -0.9025426518   -2.4259509491
 H   -3.5420116407   -2.3316236710   -0.5010772901
 H   -2.3798691925   -3.1240179152   -1.5882035401
 H   -0.1645616500   -3.7417894761    0.0792810340
 H    0.6537328617   -2.1926556244    0.6311189624
 H   -1.1042864012   -1.8237584998    2.0943306827