17

 O   -0.2043269925    1.4107567632   -0.0165617881
 C   -0.0937380803    0.0336269834    0.0379659417
 C   -0.3572337501   -0.8500131697   -1.1460995717
 C   -1.2496954356   -0.9602444743    0.0813697536
 C   -0.5197688301   -1.7344864165    1.1564112513
 C   -1.1158877442   -2.4456997437    2.3023215409
 N   -0.3673814860   -3.1847567976    1.2587983452
 C    0.6515530264   -0.7286292546    1.1482443323
 H    0.5311725326    1.7523861364   -0.5370257829
 H   -0.8234440386   -0.3394202470   -1.9829650834
 H    0.3170876230   -1.6590502771   -1.4172743948
 H   -2.3169027284   -0.7799979158    0.0288507029
 H   -0.6333021150   -2.4175346604    3.2760777957
 H   -2.1986001561   -2.5438636592    2.3376943007
 H   -1.0189938794   -3.6474732817    0.6284320817
 H    1.6409970244   -1.1279107746    0.9050884432
 H    0.7033667399   -0.1468758608    2.0721888519