15

 O   -0.0218024633    0.0153244408    0.2039131537
 C   -0.0251408042    1.1828322896   -0.0382893864
 N   -1.1516789914    2.0302633692   -0.0934835124
 C   -0.7188843420    3.3327552313   -0.1591193577
 N   -1.1674712676    4.4488041410    0.2395241665
 C   -0.0152273134    5.3820849779    0.1104018580
 C    1.2714853230    4.4882058864    0.0552502881
 C    0.6989684627    3.2610122544   -0.6491412372
 O    1.0982195129    1.9240351248   -0.2960234654
 H   -2.0132574247    1.7269075770    0.3334787882
 H   -0.1175180586    5.9898148447   -0.7980709228
 H   -0.0106993420    6.0689857915    0.9601060363
 H    2.1090006652    4.9554412213   -0.4653086686
 H    1.5855171100    4.2218880056    1.0691303654
 H    0.7658431634    3.3497740345   -1.7413145057