19

 C   -0.0513308583   -1.1355363970   -0.5603218043
 C   -0.0205589926   -0.0107656576   -0.1382452350
 C    0.0435901003    1.3534291938    0.3772555786
 C    1.4328754153    1.9663112772    0.2645422885
 C    1.8700194060    2.6316200727   -1.0204022112
 C    1.6000016765    3.4542368998    0.2031080092
 C    0.5652260766    4.5574119130    0.4147925109
 O    1.5199506247    5.3356501156    1.1680310638
 C    2.5545721813    4.3420459389    0.9954806559
 H   -0.0886636925   -2.1281404599   -0.9351504080
 H   -0.6776266511    1.9804966817   -0.1635017339
 H   -0.2807033606    1.3606101407    1.4265977639
 H    2.2010721708    1.4201944322    0.8063790042
 H    2.8991351238    2.5085815215   -1.3428215375
 H    1.1513044569    2.6809797764   -1.8337839447
 H    0.2318533000    5.0810930709   -0.4909711607
 H   -0.3138958480    4.2933796124    1.0184526570
 H    2.9027727264    3.9399933192    1.9564116969
 H    3.4144691645    4.7371913687    0.4381746264