17

 C   -0.0019315260    1.3846499918    0.4184762080
 C    0.1287663084   -0.0004192078   -0.1822193337
 O    1.1614001405   -0.4256946056   -0.6483430464
 C   -1.1357857410   -0.8366281916   -0.1208326962
 C   -1.1377240166   -2.3004822210   -0.5721685351
 C   -0.2205301128   -3.1014540883    0.2732181863
 C   -1.6015534461   -2.7740940906    0.8374456052
 C   -1.6277019688   -1.3519486943    1.2842638217
 O   -2.0199525011   -0.7716889868    2.2549026576
 H    0.9809512828    1.8482579491    0.5098515342
 H   -0.6367186205    2.0075657136   -0.2233396575
 H   -0.4985604498    1.3268841927    1.3936319440
 H   -1.9752925267   -0.2612637031   -0.5295797032
 H   -1.5284494591   -2.6500788216   -1.5177240349
 H   -0.1113049148   -4.1464430665    0.0024251563
 H    0.6721527518   -2.6544481575    0.6939228596
 H   -2.2932636701   -3.5518178326    1.1341449541