18

 C   -0.0036753670    1.4817426327    0.1824856994
 N   -0.0263851281    0.0016698804   -0.0725218583
 H    0.5091107028   -0.2327082122   -0.9111503356
 H    0.4186907245   -0.4798561447    0.7148815617
 C   -1.4438817871   -0.5417558617   -0.1298439508
 C   -1.5259466848   -2.0852007072   -0.1101174677
 C   -2.0670620669   -1.9548190099    1.3158146173
 C   -2.4509707770   -2.9656678180    2.2517785579
 O   -2.8577891960   -2.8006614636    3.3919274289
 C   -2.0164073682   -0.5449820906    1.3366672454
 O   -2.1776829414    0.4261606041    2.0718153950
 H    1.0215338050    1.7975813330    0.3804866649
 H   -0.3895405657    1.9820118204   -0.7061293379
 H   -0.6631873172    1.6530688554    1.0378374732
 H   -1.9548426244    0.0072970179   -0.9246861024
 H   -2.1951808981   -2.4831150477   -0.8845282628
 H   -0.5540931031   -2.5906403798   -0.2402565848
 H   -2.3419157072   -4.0041561984    1.8419821466