13

 O   -0.1216454676    1.3624010305    0.0054074944
 C    0.0504876769    0.0253463128    0.0040597309
 C    1.1356952372   -0.7919559712    0.0095354103
 N    0.6856931463   -2.1256367255    0.0721208591
 C   -0.6813196390   -2.1032039175    0.0326660701
 N   -1.6968929510   -2.9330077841    0.0111184628
 N   -2.8188711481   -2.1181645995   -0.0065237785
 C   -2.4536293617   -0.8587302101    0.0004849913
 N   -1.0758808274   -0.7856198585    0.0238420161
 H    0.7376566133    1.7955603430   -0.0251524592
 H    2.1834210777   -0.5462019178    0.0247792859
 H    1.2397036152   -2.9329499647   -0.1507617374
 H   -3.1029977518   -0.0005666074   -0.0010598157