19

 C    0.2086860858    1.5904095991    0.0696574801
 C    0.0518726639    0.0831621774    0.0074665815
 C    0.6869491033   -0.6144281329   -1.2458910478
 C    1.2097751687   -1.9131518190   -0.6768006916
 C    2.4551779656   -2.0082030367    0.1573643088
 C    1.1114683944   -1.7821876356    0.8140979862
 C    0.2142925117   -3.0218108271    0.7291443067
 O    0.4629106371   -3.1436812302   -0.7051851664
 O    0.7124427474   -0.5034024683    1.1657733133
 H    1.2665787349    1.8678235169    0.0236983647
 H   -0.3126346347    2.0621646224   -0.7691666217
 H   -0.2111169817    1.9844054100    0.9990906853
 H   -1.0154412095   -0.1797136625    0.0549572366
 H   -0.0557525400   -0.7906343935   -2.0269410147
 H    1.4870563599    0.0015778742   -1.6686604640
 H    2.9550093554   -2.9673197004    0.2551070031
 H    3.1015892438   -1.1380021744    0.1487906304
 H    0.5168926674   -3.9198304987    1.2794921769
 H   -0.8390044536   -2.7969410804    0.9312170228