18

 O   -0.6748599150    0.6515871129    0.4543828538
 C    0.1658091011    0.9181646834   -0.3648727652
 C    1.3358040632    1.8482211292   -0.1389999105
 C    1.3655881619    2.9897275489   -1.1691496259
 C    2.5999010194    3.8901486111   -1.0232635102
 C    2.6205446847    4.9945613087   -2.0514825582
 C    3.8588455649    5.4609974197   -2.6858509953
 O    2.9540449503    4.6074534820   -3.3888733568
 H    0.1244886017    0.4794631928   -1.3903486767
 H    1.2871099814    2.2277529241    0.8861366177
 H    2.2553115511    1.2524254864   -0.2387365480
 H    1.3512846657    2.5751306895   -2.1844963696
 H    0.4555927610    3.5945094557   -1.0663487012
 H    2.6218229025    4.3347606738   -0.0194104610
 H    3.5110440501    3.2891453385   -1.1289567745
 H    1.7870763918    5.6985047660   -1.9969577050
 H    3.9276445429    6.4813454448   -3.0605140089
 H    4.8085052811    5.0060050324   -2.4060876246