16

 O    0.0108761638   -0.0456527923    0.1320734537
 C   -0.0276656538    1.1600781488    0.0038830955
 C   -1.3303790691    1.9433018590   -0.0659868930
 C   -1.1991561306    3.2009699767   -0.9338763580
 C   -0.0479460064    4.0917171028   -0.4524765134
 C    1.2199581984    3.2915369438   -0.2376130154
 C    1.2222831350    1.9572047730   -0.0526358949
 C    2.4500478394    4.0209206667   -0.2278907064
 N    3.4262661995    4.6442869241   -0.2249335762
 H   -2.1159725992    1.2715292766   -0.4197048482
 H   -1.5912931020    2.2264334009    0.9643664418
 H   -1.0107156403    2.9063919421   -1.9732469216
 H   -2.1347792382    3.7677716693   -0.9298537253
 H    0.1487213257    4.8976643010   -1.1663158403
 H   -0.3105021184    4.5860777173    0.4938509133
 H    2.1462124561    1.4050964803    0.0817126887