17

 C   -0.1991772214    1.5531710288    0.0148702273
 C   -0.0255727333    0.0522481167    0.0644194337
 C    1.2745399869   -0.6035903088   -0.2540176166
 C    0.7690403295   -0.6532588716    1.1785311948
 C    1.4845673940    0.1405766184    2.2185770677
 C    1.3013329133   -0.3289630541    3.6511368888
 O    2.1728119495    1.1054636802    1.9495925407
 H    0.6999518162    2.0660238286    0.3597003102
 H   -0.4080092826    1.8718406210   -1.0123138229
 H   -1.0392799789    1.8753502702    0.6398290545
 H   -0.9115556036   -0.5081699004   -0.2242927693
 H    1.2843278347   -1.5314740659   -0.8147918139
 H    2.1308853108    0.0449550087   -0.4071205799
 H    0.3449744421   -1.5894834755    1.5262593301
 H    1.6745148002   -1.3537740355    3.7625962413
 H    1.8376662899    0.3325106303    4.3321778035
 H    0.2370054327   -0.3498005710    3.9121255600