21

 C   -0.0189685131    1.4702948768   -0.0066560518
 C    1.3367536268    0.7865682522   -0.0306732123
 C    2.1949086171    0.4140539064   -1.2162684865
 O    2.3128649762   -1.0185262802   -1.2883253652
 C    1.0968502636   -1.7526283955   -1.0519001409
 C    0.9296619850   -2.1699047797    0.4482369488
 C    0.0122352314   -1.0736569598    1.0995763939
 C    0.0510568089   -0.0220478378    0.0062471216
 C   -0.1154625832   -0.8424057475   -1.2691957896
 H   -0.2647226171    2.0073850988    0.9038857086
 H   -0.3980238518    1.9420470092   -0.9088810116
 H    1.8728661012    0.8236497789    0.9139993635
 H    1.7917240613    0.8192323461   -2.1551791554
 H    3.2210317535    0.7790530180   -1.1215364070
 H    1.1487817944   -2.6222379557   -1.7124166359
 H    0.4817939418   -3.1656564194    0.5217177779
 H    1.9139415294   -2.2133924609    0.9199067206
 H   -0.9999888663   -1.4590059578    1.2714745991
 H    0.3973322524   -0.7134196843    2.0567877694
 H   -0.0809907684   -0.2758152582   -2.2010254605
 H   -1.0496756130   -1.4146390396   -1.2549438368