21

 O   -0.0104526179    1.4011899341   -0.1040531331
 C    0.0276264813   -0.0139349615    0.0150026455
 C   -1.4057995555   -0.5337606230    0.0126074954
 C   -2.1634872106   -0.1257910012   -1.2627084476
 C   -3.4696262536   -0.8605940735   -1.4094290155
 C   -3.8048188156   -1.9248810440   -0.6805767406
 C   -2.8964551725   -2.5545229866    0.3460523247
 O   -2.9753720601   -3.9793152640    0.3025126064
 C   -1.4531977189   -2.0574286901    0.1907696591
 H    0.8934031848    1.7267220219   -0.1383494121
 H    0.5850417665   -0.4684313506   -0.8218673075
 H    0.5284356902   -0.3204584009    0.9474244096
 H   -1.9169640056   -0.0709232406    0.8686603103
 H   -2.3339972062    0.9556433478   -1.2632143206
 H   -1.5343542972   -0.3188892826   -2.1465639952
 H   -4.1664670329   -0.4772570788   -2.1520918558
 H   -4.7706725156   -2.4085819322   -0.8068119949
 H   -3.2558588379   -2.3055890723    1.3541855867
 H   -2.7636746048   -4.2476760033   -0.5988258853
 H   -1.0145155502   -2.5420811436   -0.6938817605
 H   -0.8619097280   -2.3786750748    1.0551560311