16

 N   -0.0978739820    1.3512320954   -0.1277823442
 C   -0.0047892054    0.0880961072   -0.0692413616
 N    1.1012789095   -0.7530997928   -0.1373144798
 C    0.8023050842   -2.1055569233    0.0979834401
 O    1.6028218487   -2.9731692526    0.3391282992
 N   -0.5883781145   -2.2201419342    0.0304381782
 C   -1.3151415134   -2.6379800176    1.2682308862
 C   -1.7895668680   -1.1704547533    1.4751254813
 C   -1.1792127168   -0.8594584689    0.0752370585
 H    0.8124610527    1.8005710844   -0.2375957167
 H    2.0586042999   -0.4409796865   -0.1801056256
 H   -2.1151181286   -3.3466724491    1.0427059018
 H   -0.6570703433   -3.0667452478    2.0270603508
 H   -2.8643904466   -1.0118806285    1.5643450341
 H   -1.2809808763   -0.6521001951    2.2899410548
 H   -1.9210713100   -0.6759194671   -0.7053645072