17

 C   -0.0184849923    1.4715663806   -0.0065765090
 C   -0.0169233563    0.0164473468   -0.0167119961
 C   -0.0182786508   -1.1902099008   -0.0338942212
 C    0.0114909752   -2.6083591020   -0.0166902066
 C   -0.3511294560   -3.5051169846   -1.1847826207
 C   -1.1574434911   -3.6154988089    0.0737041234
 C   -0.3771732288   -4.3727958543    1.1895487274
 O    0.8974106701   -4.7964291556    0.6775119657
 C    0.7380446549   -3.4419524382    1.1061707161
 H    0.7543023692    1.8608618008    0.6658856654
 H    0.1784549902    1.8801321722   -1.0042821101
 H   -0.9809901878    1.8719515415    0.3322047291
 H   -0.8437391178   -2.9853238432   -1.9989520022
 H    0.3208611295   -4.3037083460   -1.4723510980
 H   -2.2103441421   -3.3767369824    0.1334897873
 H   -0.7956458231   -4.9272708423    2.0197838873
 H    1.4246419471   -3.0475836535    1.8450038221