24

 C   -0.0907966986    1.5988750066   -0.0839986863
 C    0.0700135101    0.0784461741   -0.0338503907
 C    0.7346915774   -0.4408648019    1.2628875954
 C    0.7699398865   -1.9862962604    1.3115955192
 C    1.3873312822   -2.6094097513    2.5763025233
 C    0.6051411833   -2.2529101852    3.8485851526
 C    1.4879123440   -4.1321529334    2.4114294941
 C    2.0858918914    0.1145038560    1.4059601629
 N    3.1539560750    0.5467098020    1.5049097719
 H    0.8786764157    2.1029069200   -0.0271572637
 H   -0.5753638764    1.9057092034   -1.0153449028
 H   -0.7062367253    1.9605422384    0.7470938187
 H   -0.9107543425   -0.4048669191   -0.1106092707
 H    0.6575639340   -0.2664222455   -0.8925439447
 H    0.1494054138   -0.0704257602    2.1141627425
 H   -0.2640892218   -2.3385067381    1.2010270300
 H    1.3171366148   -2.3430828620    0.4306717225
 H    2.4062345171   -2.2137639445    2.6808216195
 H   -0.4353932071   -2.5934954548    3.7786901895
 H    1.0518320927   -2.7341885919    4.7242626858
 H    0.5947424601   -1.1760448327    4.0428640877
 H    0.4941064391   -4.5830303467    2.3014613312
 H    2.0760709218   -4.4011798749    1.5279152546
 H    1.9642202527   -4.5905517180    3.2837989573