17

 O    0.0451587459    1.5312426932   -0.0538582717
 C    0.0519913960    0.1369062571    0.1771130716
 C   -1.3524041137   -0.4744467407    0.0212642544
 C   -2.2267014178    0.1612059538    1.0086319648
 N   -2.8614091384    0.7083367598    1.8069678986
 C   -2.0173777114   -0.6985708115   -1.3913662641
 C   -1.0495939505   -1.8831582178   -1.6347874216
 C   -1.6040348964   -2.0175268096   -0.1940363238
 N   -2.9638233175   -1.7271624879   -0.7994720481
 H   -0.4549992390    1.9525919422    0.6547250671
 H    0.7392311891   -0.2855011435   -0.5569755259
 H    0.4407918337   -0.1123564617    1.1759482290
 H   -2.3513687409    0.0727661778   -2.0844492680
 H   -1.4314799465   -2.6317768731   -2.3268194064
 H    0.0088854670   -1.6793811819   -1.7780666402
 H   -1.4495053207   -2.8148792520    0.5335426211
 H   -3.5742378988   -1.2871271643   -0.1039000667