14

 N    0.1468066524    1.3436552734    0.1805894699
 C   -0.0297851026   -0.0120169827    0.0523759426
 C   -1.1826749617   -0.7065839475    0.0241456648
 C   -1.1626696812   -2.1669416544   -0.0225877866
 O   -2.1664809771   -2.8489804585   -0.0391628061
 N    0.1209636522   -2.7636247561   -0.0488223170
 C    1.1534506423   -2.0170591211   -0.0459523320
 N    2.4248620435   -2.4950754109   -0.1418553566
 O    1.1804732350   -0.6437945642    0.0096858377
 H    0.9978444383    1.7034697895   -0.2270101635
 H   -0.6687823656    1.9000551624   -0.0250623654
 H   -2.1374861512   -0.1988867357    0.0459339972
 H    2.5156020230   -3.4858176389    0.0141117611
 H    3.1728582726   -1.9073685152    0.1880691639