17

 C    0.3880267195    0.5194245861   -0.9632580731
 C    0.0767431723    0.0725911667    0.4644081660
 O    0.3345259817    1.1009761865    1.4165549577
 C   -1.3354078465   -0.4174400925    0.6383218147
 C   -1.9467833138   -1.1362049316    1.8543306709
 C   -2.9097894055   -1.8227000301    0.8390900992
 O   -3.6846790698   -2.7273012620    0.9114144914
 C   -2.3014629665   -1.0300967897   -0.3178026225
 O   -2.4068149853    0.3542669181    0.0857476859
 H    1.3957978077    0.9393257898   -0.9989858340
 H    0.3363877919   -0.3210828599   -1.6621278643
 H   -0.3259882960    1.2806079055   -1.2920966721
 H    0.7514186553   -0.7425813158    0.7515170699
 H   -0.2415628643    1.8439538982    1.2007152811
 H   -1.2985249918   -1.8792861602    2.3286208836
 H   -2.3863389177   -0.4851121661    2.6112320374
 H   -2.2428039412   -1.2396227328   -1.3793960317