18

 O    0.4318644975    0.7323045817   -0.8564370099
 C    0.0935314756   -0.3758163982   -0.0684388089
 C    0.4293235663   -0.1292810404    1.4085161012
 O    1.3488123716    0.5649907281    1.7948404176
 N   -0.4935680465   -0.7975427366    2.1461312507
 C   -1.5649116912   -1.3998700816    1.3554941568
 C   -1.3893167510   -0.7189659815   -0.0043006178
 C   -2.4098883902    0.2600732235   -0.5176935897
 C   -2.2132325722   -1.0749151920   -1.2021220889
 H    1.0818767633    1.2260480737   -0.3331421173
 H    0.6643867905   -1.2654768121   -0.3923817015
 H   -0.4580048075   -0.8151723026    3.1527625544
 H   -1.4432773156   -2.4903712783    1.2871009101
 H   -2.5455339524   -1.1973633550    1.7980958535
 H   -3.3145195582    0.4088775073    0.0627704159
 H   -2.0279873797    1.1433620239   -1.0147009702
 H   -1.7214685724   -1.0821568704   -2.1692485374
 H   -2.9862867180   -1.8286656296   -1.0872508787