23

 C    0.4471608138    1.3933744108    0.0250171650
 N   -0.0218685500    0.0094137046    0.0237009685
 C   -0.0665306921   -0.6973651855    1.2106517593
 N   -0.2093978808    0.0788518858    2.3669164550
 O    0.0290128036   -1.9121642075    1.2977019940
 C   -0.0099269802   -0.7389543324   -1.2751742232
 C   -0.2409371235    0.2503835018   -2.4338683928
 C    1.3426411284   -1.4521004277   -1.4622415473
 C   -1.1706676135   -1.7534204160   -1.3157074594
 H    1.3568138247    1.4999458255   -0.5769838653
 H   -0.3009049711    2.0910244899   -0.3685044555
 H    0.7055975963    1.6910404471    1.0394613081
 H   -0.8207247000    0.8804512671    2.3120460552
 H   -0.4031613445   -0.5149289640    3.1602889737
 H    0.5742872513    0.9668463786   -2.5582897561
 H   -0.3165895149   -0.3183087047   -3.3644206425
 H   -1.1756973066    0.8054132039   -2.3064354537
 H    1.4997124187   -2.1724603578   -0.6586066255
 H    1.3673453160   -1.9789736788   -2.4219002831
 H    2.1688124266   -0.7323912794   -1.4571337871
 H   -2.1269337725   -1.2418684960   -1.1635463428
 H   -1.1965335066   -2.2295926319   -2.3008627949
 H   -1.0593546632   -2.5220110132   -0.5547680198