22

 C   -0.3677889391    1.5309479589   -0.0688440257
 C   -0.0842105742    0.0365636031    0.0091840721
 C    0.4928064108   -0.6295028642   -1.2486936078
 N    1.8264513008   -0.0166544025   -1.4737240830
 C    1.6754223007   -1.1317802693   -0.5055091988
 C    1.1825961526   -0.5158450939    0.8094278367
 C    2.1332217552    0.4220375574    1.5469102151
 C    1.6120584134    0.8721010034    2.9065053656
 O    2.6069664997    1.6898274910    3.5060465743
 H    0.4968959757    2.0717006920   -0.4600766949
 H   -1.2142827138    1.7216827240   -0.7387618639
 H   -0.6256369279    1.9473441244    0.9103227201
 H   -0.9774416706   -0.4991163750    0.3452091174
 H   -0.0537109300   -1.0759920704   -2.0710889850
 H    2.1976589378   -0.4184705344   -2.3340090342
 H    2.2400579642   -2.0486091815   -0.6297220260
 H    0.8497349938   -1.3120763892    1.4851094437
 H    3.0886749165   -0.0936933315    1.7092802845
 H    2.3567137102    1.2990178049    0.9336328441
 H    0.6651561210    1.4225164464    2.7902410217
 H    1.3967336845   -0.0120654627    3.5306566732
 H    2.2734263488    1.9952672691    4.3544992607