21

 C   -0.0595091671    1.1639858709   -0.7069024117
 O   -0.1692642510   -0.2419127953   -0.6056682279
 C   -1.2299729583   -0.6646124510    0.2030078733
 O   -2.4937924685   -0.3125392776   -0.3257272640
 C   -2.9923018214   -1.3740049125   -1.1444127313
 C   -2.0463174728   -2.5833309212   -0.9750946332
 O   -1.1571062438   -2.7503053686   -2.0680247849
 C   -1.2377694039   -2.1976944695    0.2798324414
 C    0.1255593516   -2.8666779426    0.4228471568
 H    0.8105059572    1.3736600469   -1.3329689898
 H   -0.9529654112    1.6058480437   -1.1637418785
 H    0.0917084171    1.6259523743    0.2815076806
 H   -1.1651423742   -0.1721386492    1.1856469603
 H   -4.0144852868   -1.5999308369   -0.8172150323
 H   -3.0241993581   -1.0619035954   -2.1962225637
 H   -2.6162521546   -3.5079974164   -0.8070203795
 H   -1.6761148949   -2.9887136698   -2.8417804608
 H   -1.8656264527   -2.4471651431    1.1437547931
 H    0.7595468545   -2.6329556399   -0.4315286182
 H    0.6278043995   -2.5232506210    1.3328031385
 H    0.0170925095   -3.9537389857    0.4882442017