13

 O   -0.0324043849   -0.0547228085    0.0035872049
 C   -0.0024629452    1.1467542799    0.0096587398
 C   -1.2229245303    2.1033097136    0.0316871616
 C   -0.7023544327    3.5769987581    0.0321680318
 C    0.7744448946    3.3624634553    0.0104433722
 C    1.1631612082    2.0632480923   -0.0018110213
 O    2.4789145565    1.9754214746   -0.0208367395
 N    2.9294927766    3.3818534429   -0.0193274155
 N    1.9160539090    4.1219619589   -0.0015131894
 H   -1.8489059644    1.8842406527   -0.8379292849
 H   -1.8244390667    1.8750288274    0.9160768988
 H   -1.0539144983    4.1374396756   -0.8394240188
 H   -1.0293909525    4.1282057672    0.9190607504