19

 C   -0.1183516804    1.5302954265    0.1686812729
 C    0.0345848737    0.0112584867    0.0425988988
 C    0.6840673305   -0.4283818426   -1.2813747629
 C    2.1229706936    0.0619643740   -1.3633498420
 O    2.7143728268    0.2934115006   -2.3870378523
 C    0.6268422180   -1.9483150165   -1.4586632462
 C    1.4314510358   -2.6595763319   -2.4783530941
 N    1.7175223566   -2.8516560793   -1.0430723170
 H    0.8491149006    2.0426826743    0.1204822931
 H   -0.7412425044    1.9311072171   -0.6383034859
 H   -0.5862914563    1.8013899696    1.1194508732
 H    0.6291120209   -0.3786935821    0.8795587009
 H   -0.9486066816   -0.4652125998    0.1248060368
 H    0.1464858923    0.0229782931   -2.1257266397
 H    2.6322553173    0.1772259063   -0.3767038484
 H   -0.3565225660   -2.3529010037   -1.2235280558
 H    1.0177854168   -3.5294329987   -2.9804875476
 H    2.1249013970   -2.0713047088   -3.0724413760
 H    2.5500045287   -2.3256046248   -0.7869971379