18

 C    0.0655010454    1.5709607755   -0.1341438590
 C    1.3348039048    0.7610472019   -0.0038131560
 C    2.1068669654    0.7889920962    1.2767961950
 O    1.5331558074    1.4938613286    2.3830542941
 C    1.6004751456    0.0662306809    2.4665209356
 C    0.3217158645   -0.7051429660    2.3836951590
 C   -0.9882198263    0.0094675362    2.3675661717
 N   -0.5000312001   -0.6375076171    1.1611136790
 C   -0.0260316186    0.0752100266    0.0035438830
 H   -0.1950838001    2.1919484670    0.7137730397
 H   -0.1712207480    1.9974664665   -1.1023970048
 H    1.9485045375    0.6296837250   -0.8885512942
 H    3.1823967186    0.9263142942    1.1740436755
 H    2.3154059170   -0.3060931962    3.1990881270
 H    0.3838173459   -1.7006492782    2.8194249181
 H   -1.8646552196   -0.4529811634    2.8148097755
 H   -0.9455036763    1.0917889928    2.4478031048
 H   -0.2737789131   -0.4625583804   -0.9068262040