25

 C   -0.9113046117    1.0567840443   -0.1072157572
 C    0.1446091123   -0.0388894701   -0.0969866685
 C    1.5252394236    0.2393336559   -0.7570772324
 C    2.1820497887   -0.5220945027    0.3976299802
 C    3.0645283589   -1.7264398809    0.2377244044
 C    3.6074907642   -0.4566296530    0.8557391513
 C    0.8813954905   -0.4364672770    1.2390511198
 C    0.9481264981    0.6970039058    2.2684458404
 C    0.3889486822   -1.7241119532    1.8933475341
 H   -0.5257778701    1.9982198617    0.2967638978
 H   -1.2518688733    1.2531652276   -1.1302465281
 H   -1.7912229798    0.7755029899    0.4826685627
 H   -0.2816457577   -0.9505017501   -0.5311355873
 H    1.6804107802   -0.1510212818   -1.7670453679
 H    1.7761220952    1.3063906825   -0.7576294643
 H    2.9068659492   -2.5784152147    0.8913815965
 H    3.3901113880   -1.9906500626   -0.7639889947
 H    4.3048129784    0.1420832240    0.2774919681
 H    3.8087273600   -0.4609954689    1.9227858439
 H    1.3236059952    1.6272431575    1.8313735678
 H   -0.0371000168    0.9013520025    2.7023303494
 H    1.6212001584    0.4281890463    3.0901986236
 H    1.0401938646   -2.0302782988    2.7212437463
 H   -0.6183554731   -1.5905838255    2.3057740455
 H    0.3509144448   -2.5481605086    1.1740826886