21

 C   -0.1938090475    1.4813998380    0.1325830313
 C    0.1435580018    0.0290360201    0.0270562823
 O   -0.6794095596   -0.9017383759    0.7632839167
 C    0.7450726113   -0.9090287721    0.9910970975
 C    1.3096798110   -1.7935017283   -0.1255027348
 O    0.8575455937   -3.1188034625   -0.1523187281
 C    0.7132106491   -0.7546064467   -1.1831937368
 C   -0.3140611919   -1.3136921514   -2.1604999671
 C    1.8305893735    0.0052877581   -1.8973154839
 H    0.6412237788    2.1019958679   -0.2062681198
 H   -1.0653509443    1.7242892155   -0.4855423929
 H   -0.4282257280    1.7440161431    1.1675206888
 H    1.0775759919   -0.7707308489    2.0146963127
 H    2.4018330447   -1.8234705636   -0.1624024202
 H   -0.0806651627   -3.0843614539    0.0742966732
 H   -1.1629317418   -1.7556576314   -1.6333893333
 H   -0.6986185256   -0.5259448745   -2.8182567632
 H    0.1349426552   -2.0885925559   -2.7898954018
 H    2.3581960212   -0.6549873480   -2.5939783086
 H    1.4354422213    0.8496730845   -2.4732642159
 H    2.5683093280    0.4002259759   -1.1892295762