20

 C    0.0517692695    1.5168567421   -0.0203337105
 C    0.0276266537    0.0106381940    0.0127851835
 C   -0.0075231840   -0.7143938293   -1.1780769329
 N   -0.0307826039   -2.0448778715   -1.2524977238
 C   -0.0190398402   -2.7057590691   -0.0965126004
 C    0.0153938144   -2.1065828082    1.1654070544
 C    0.0251592890   -2.9782246712    2.3978606919
 C    0.0394786579   -0.7042682960    1.2225544276
 C    0.0771785345    0.0429236756    2.5327280354
 H    0.9480355039    1.9211492199    0.4651238987
 H    0.0369592005    1.8832839792   -1.0499798676
 H   -0.8102672167    1.9501291802    0.5007914586
 H   -0.0173072268   -0.1803765154   -2.1270968083
 H   -0.0382097498   -3.7923277983   -0.1669250017
 H    0.9212175789   -2.8179768253    3.0080163073
 H   -0.8408457492   -2.7893286899    3.0422534211
 H    0.0025486098   -4.0347878380    2.1182942549
 H    0.9674044133    0.6795821260    2.5982566870
 H   -0.7883437926    0.7085907831    2.6322011757
 H    0.0827371078   -0.6259940378    3.3933041891