14

 C    0.0259502642    1.5006559651   -0.0116008291
 C    0.0370822642    0.0473472376   -0.0090309637
 C    0.0515675930   -1.1581088203   -0.0070692584
 C    0.0314213139   -2.5685306114   -0.0023640676
 N    1.1314837025   -3.3397951143   -0.0729360833
 N    0.6564158670   -4.5680672352   -0.0386753254
 N   -0.6725468784   -4.7012557359    0.0491230368
 C   -1.0842569750   -3.4420571852    0.0731950975
 O   -2.3730663646   -3.0828089856    0.1572139495
 H    1.0457922297    1.9004623629   -0.0072395967
 H   -0.4823612751    1.8937718263   -0.8992840713
 H   -0.4907992394    1.8958389270    0.8701877955
 H    1.2624016581   -5.3703411051   -0.0767393970
 H   -2.9020186701   -3.8895909158    0.1940192634