20

 C    0.0696647020    1.5559261504    0.1114261469
 C   -0.0365966124    0.0363794586   -0.0424976991
 C    0.7765290872   -0.4976931291   -1.2258215178
 C    0.6590409779   -2.0173259281   -1.3736508747
 N    1.4046024317   -2.5285867258   -2.5120240008
 C    2.5330631519   -3.2659425706   -2.5416757574
 N    2.9085395039   -3.4961449013   -3.7873647817
 C    1.9451020287   -2.8550041817   -4.5018436792
 N    1.0122380910   -2.2532601214   -3.7798753297
 H    1.1077669972    1.8657794447    0.2735603016
 H   -0.2923483893    2.0697083648   -0.7855533498
 H   -0.5209514119    1.9111153979    0.9611947052
 H    0.2999558954   -0.4501670908    0.8829456156
 H   -1.0898855087   -0.2466828896   -0.1687721171
 H    0.4387268182   -0.0332671184   -2.1586537315
 H    1.8343157859   -0.2313060686   -1.1061327419
 H    1.0424916087   -2.5272751394   -0.4841574964
 H   -0.3883508982   -2.3091876779   -1.4998922920
 H    3.0309988077   -3.6085478694   -1.6466966835
 H    1.9259840132   -2.8334657145   -5.5813327070