22

 C    0.3058005191    0.6178060120   -0.6471179932
 C   -0.4995283729    0.2202323567    0.5944867492
 N   -1.7034442192   -0.5766353999    0.4282557420
 C   -2.0892498477   -0.9307273665   -0.7128598077
 O   -3.2315069239   -1.6427383727   -0.8480660512
 C   -3.5564185010   -2.1360787658   -2.1609951185
 C   -2.8335150567   -3.4520397052   -2.4297081387
 C   -5.0800063803   -2.2762994554   -2.1523853588
 O   -5.5223354338   -3.1649584909   -1.1475153950
 H    1.1745068116    1.2101930435   -0.3445802507
 H    0.6760928932   -0.2570959507   -1.1924327790
 H   -0.2845334536    1.2268054954   -1.3403702566
 H    0.1527028080   -0.3301436472    1.2856295459
 H   -0.7908610608    1.1276030482    1.1403750127
 H   -1.5969600679   -0.7072751961   -1.6679817017
 H   -3.2746358233   -1.3810147951   -2.9094136597
 H   -1.7505207665   -3.3316579445   -2.3348524841
 H   -3.1692093617   -4.2107719040   -1.7194297433
 H   -3.0509705489   -3.8033423680   -3.4433809485
 H   -5.5254275213   -1.2770289112   -2.0325505024
 H   -5.4167031938   -2.6846669127   -3.1108379000
 H   -5.1679969589   -2.8299195797   -0.3150541309