20

 C    0.0059234469    1.5530191576    0.0369782513
 C    0.0153833709    0.0235143708   -0.0009064463
 C    0.7104124502   -0.5132259611   -1.2644999683
 C    0.9433540723   -1.9982318687   -1.2151548856
 C    0.8958694695   -2.7199427730   -0.0868416990
 C    0.6594924102   -2.0862264634    1.2073856511
 C    0.6799704846   -0.5768682045    1.2501002996
 N    0.4569572951   -2.6936110736    2.3216658874
 O    0.4749665526   -4.0910727797    2.1814332992
 H    1.0263404191    1.9513568381    0.0863598686
 H   -0.4706391014    1.9690323130   -0.8571903303
 H   -0.5391715778    1.9243642248    0.9108652099
 H   -1.0246494945   -0.3303463710   -0.0238168580
 H    0.1213786216   -0.2607215614   -2.1556530606
 H    1.6762025460   -0.0004126427   -1.4025073432
 H    1.1547644650   -2.4967044600   -2.1584046810
 H    1.0382277896   -3.7929701336   -0.1006096271
 H    1.7252799908   -0.2352003186    1.2911425424
 H    0.1950080069   -0.2325261836    2.1674541653
 H    0.3304536924   -4.3828783196    3.0870735146