14

 O    0.0728327200    1.3273430562    0.3710108350
 C   -0.0009339801   -0.0233807081   -0.0550500977
 C   -1.4357978574   -0.4475959451    0.0166762136
 N   -1.7659275195   -1.7305348634    0.1791398444
 N   -3.1014827003   -1.7494971864    0.1638378164
 C   -3.6443959989   -0.5067592870    0.0077474321
 C   -2.5768611389    0.3701870357   -0.0940408955
 C   -5.0420657867   -0.2940123431   -0.0234142550
 N   -6.1894879002   -0.1383218842   -0.0484667877
 H    0.9633151638    1.6465912123    0.1995460104
 H    0.3625866472   -0.1324072832   -1.0895346590
 H    0.6019760406   -0.6945765848    0.5732887972
 H   -3.5925541638   -2.6207218651    0.2823957485
 H   -2.6175010458    1.4383335361   -0.2169331626