23

 C    0.0464504385    1.5249396698   -0.1644604258
 C    0.0753715024    0.0092161644   -0.0256108134
 O    0.6735686926   -0.5128504713   -1.2117499241
 C    0.3536049846   -1.8798851983   -1.3972579520
 C    0.8110497712   -2.7326409276   -0.2307383228
 C    2.2154184592   -2.5570200378    0.2751513714
 C    1.0529363689   -2.0333956587    1.0910658362
 C    0.7943684946   -0.5259099087    1.2357271090
 C    2.0745197384    0.2394104011    1.6041508812
 H    1.0526611046    1.9257780445   -0.3117960829
 H   -0.5592293794    1.8068602797   -1.0297766139
 H   -0.3850208325    1.9892013659    0.7278897005
 H   -0.9656339813   -0.3557621763    0.0160463125
 H   -0.7359083287   -1.9916480489   -1.5365989372
 H    0.8429536915   -2.1857472842   -2.3287021055
 H    0.3817315053   -3.7301686990   -0.2031729236
 H    2.7486123834   -3.4263207350    0.6441375099
 H    2.8365738690   -1.8344630230   -0.2429674479
 H    0.8259258409   -2.6105623513    1.9823951717
 H    0.0861809666   -0.4003184272    2.0651272872
 H    2.7754224139    0.2735345986    0.7648076020
 H    1.8584402422    1.2691857880    1.9031424777
 H    2.5821205742   -0.2514803246    2.4403048498