22

 C    0.4090514671    0.6656907352    0.6993742758
 O   -0.0556332495    0.0508483012   -0.4911234932
 C   -1.3828616350   -0.4713663714   -0.4206676305
 C   -1.4380541704   -1.9824065058   -0.1455158908
 C   -0.6926150913   -2.7734051682   -1.2432539122
 O    0.6873370492   -2.4805671845   -1.3555719475
 N   -1.0960830907   -2.2360111714    1.2617206883
 C   -1.0794970760   -3.6100792285    1.7472535799
 C    0.1875519440   -2.8385928606    1.6373746475
 H    1.4191611847    1.0288308080    0.4946984353
 H   -0.2266460737    1.5208983865    0.9692510371
 H    0.4355192955   -0.0324387141    1.5428761933
 H   -1.9567535989    0.0584437662    0.3490190109
 H   -1.8428778088   -0.2716811025   -1.3963165451
 H   -2.5000353478   -2.2533983285   -0.2462758963
 H   -0.7728664572   -3.8511704123   -1.0600465884
 H   -1.2186778168   -2.5818407749   -2.1947986615
 H    0.7735392618   -1.5216699151   -1.2461865961
 H   -1.5528772431   -3.7682499412    2.7130004616
 H   -1.2316289406   -4.4190406430    1.0351726889
 H    0.8792055888   -3.1078208580    0.8468864957
 H    0.6423852286   -2.4196382972    2.5321693773