11

 O   -0.0225564617    0.0049166462    0.3415574225
 C    0.0250655189    1.1491353647    0.0026581475
 O   -1.1557419733    1.7955363677   -0.3827404695
 C   -1.1245532393    3.0902902389   -0.7699014106
 C    0.0263484201    3.8025914134   -0.8008508204
 N    1.2280848232    3.2387781128   -0.4371137479
 C    1.2217250764    2.0038696340   -0.0640928031
 C   -2.3944658969    3.6268762184   -1.1363417956
 N   -3.4133755277    4.0843526381   -1.4385171306
 H    0.0307214060    4.8380841999   -1.1137926181
 H    2.1535981643    1.5277963757    0.2297248658