15

 N   -0.2633837269   -1.1756879111    0.7309032654
 C   -0.1737014580   -0.0686147324    0.4120575625
 C   -0.1079256070    1.3302049712    0.0117122807
 C    0.7189886603    2.2390756831    0.8345261988
 O    1.1839036960    1.7586794513   -0.4270092817
 C   -1.2896279071    1.8158455899   -0.7762380299
 C   -1.1475009444    3.0182032932   -1.6718485367
 C   -1.3000883081    1.6444133456   -2.2751801110
 H    0.4437367378    3.2912302560    0.8618304024
 H    1.2463995930    1.8524976297    1.7034394602
 H   -2.2342610409    1.6820902059   -0.2578371030
 H   -1.9820163795    3.7076058976   -1.7237577103
 H   -0.1669316753    3.4747302613   -1.7375476922
 H   -0.4200743665    1.2059881910   -2.7321730299
 H   -2.2380056534    1.3794926677   -2.7486521153