21

 C   -0.1911033861    1.4053756415   -0.0044171334
 O   -0.0705537192   -0.0083431903   -0.0806070042
 C    0.6575369247   -0.5258305759   -1.2069177323
 C    0.6635206629   -2.0467598484   -1.0104061674
 C   -0.0596945852   -0.1500966430   -2.5167685541
 O   -1.4201810046   -0.5399100688   -2.4753384357
 C    2.1120439127   -0.0044413598   -1.2063025903
 C    2.8876805034   -0.1160121721    0.0938372460
 O    2.6117232989    0.4347347596   -2.2166603616
 H    0.7821129962    1.9118693865   -0.0598602502
 H   -0.8370114327    1.8147395073   -0.7916625665
 H   -0.6430045715    1.6227180081    0.9661387544
 H   -0.3512166063   -2.4266980922   -1.1467162820
 H    1.3140761087   -2.5254714399   -1.7481467125
 H    1.0078615432   -2.3063694951   -0.0070378954
 H    0.0498527382    0.9256585360   -2.7104230879
 H    0.4093503786   -0.6698677678   -3.3550383821
 H   -1.7357514279   -0.3396884430   -1.5856390231
 H    2.2482536825    0.0403740721    0.9645458956
 H    3.3013640886   -1.1287421812    0.1712497972
 H    3.7191382048    0.5902637165    0.0828800256