17

 C   -0.1169371472    1.5065666137   -0.0448750680
 C    0.1061762388    0.0341745257    0.0165825590
 C    0.3981257845   -1.0034382866   -1.0033621847
 C    1.2401568686   -1.8849510883   -0.0622191850
 C    0.2865921500   -3.0053307328    0.4214992266
 C   -0.5672143120   -1.8279323592    0.9182280630
 C    0.6985529735   -0.9328550914    1.0826684607
 N   -0.9390609650   -0.9913982394   -0.2999741623
 H    0.8333789210    2.0519347990   -0.0605718059
 H   -0.6755821291    1.7636095992   -0.9503715185
 H   -0.6942247137    1.8567028875    0.8184643266
 H    0.3921078298   -0.9554792311   -2.0856793547
 H    2.2951329213   -2.0405998023   -0.2790367373
 H   -0.1434227787   -3.6903837544   -0.3146701437
 H    0.7138001878   -3.5655957926    1.2593181322
 H   -1.3835358392   -1.9278798989    1.6320383912
 H    1.2311656496   -0.7117508981    2.0043568509