18

 C   -0.0768056884    1.5097655041   -0.0037339215
 C    0.0302283386    0.0138025745   -0.0380273671
 C    0.7236636807   -0.8056875676   -1.1529630913
 C   -0.3097130337   -1.8235653823   -0.6334729698
 C    0.2054224008   -2.2028479540    0.7690111697
 C    0.4688623189   -0.7393229162    1.2726801867
 C    1.8375168768   -0.4676263168    1.6845942527
 N    2.9289303396   -0.2341631169    1.9884944208
 O   -1.2045893937   -0.7062636028   -0.3347614094
 H    0.8974715010    1.9530933987    0.2235540308
 H   -0.4206919265    1.8929556505   -0.9677225061
 H   -0.7870992954    1.8264091637    0.7671250070
 H    0.4627821957   -0.4252790185   -2.1407756277
 H    1.7903291972   -1.0274603098   -1.0732175601
 H   -0.7559127367   -2.6005786450   -1.2523284545
 H   -0.5591040685   -2.7030443398    1.3650032572
 H    1.1064782689   -2.8191825268    0.7501133758
 H   -0.2075590253   -0.4665081850    2.0864709467