17

 C   -0.0293653641    1.6974196136   -0.0998316225
 C    0.1618688695    0.1925803216   -0.0165015315
 C    1.3882627837   -0.6857169294   -0.2022842368
 O    1.4830040733   -1.6884094177   -1.1491505168
 C    2.6530410634   -0.2273560236    0.6064488138
 O    2.3933662704    0.9976608850    1.3070518537
 C    1.9041168650   -0.2361366192    1.8575335915
 C    0.6015931368   -0.7006968960    1.1162324701
 O   -0.2710782351   -1.6197277169    1.6625078609
 H   -0.0824841660    2.0093713223   -1.1495805041
 H   -0.9814217602    1.9733183602    0.3675073719
 H    0.7709839750    2.2466408234    0.3867619521
 H   -0.6567204861   -0.3486158345   -0.4982565002
 H    1.5083433101   -1.2846770193   -2.0240137657
 H    3.6807522627   -0.4896208919    0.3815128505
 H    2.1908534096   -0.4938853393    2.8713110173
 H    0.1879986122   -2.4621155285    1.7600394758