20

 C    0.0153009327    1.5322986973   -0.0940878088
 N    1.2567456586    0.7492723633   -0.1671883747
 C   -0.0270146214    0.0545071947    0.0584176028
 C   -0.2019698327   -0.5357323477    1.4494996130
 O   -0.1184407148   -1.9500837689    1.4901538120
 C    0.9711270221   -2.5193930553    0.7781725808
 C    0.5797148146   -2.8612849606   -0.6606204258
 O    0.4240945166   -1.7460035993   -1.5199272937
 C   -0.5400684273   -0.7937073941   -1.0955924665
 H   -0.0727543070    2.1678058544    0.7838402668
 H   -0.3952581693    1.9646608511   -1.0032892833
 H    1.5434276657    0.6161681260   -1.1349963840
 H    0.5436870393   -0.0740481269    2.1137165432
 H   -1.2005529336   -0.3022608601    1.8361294917
 H    1.8498666912   -1.8611685191    0.7949469443
 H    1.2296500325   -3.4516213667    1.2948750877
 H    1.3610070427   -3.4786447272   -1.1173508594
 H   -0.3519617015   -3.4491544952   -0.6276318153
 H   -1.4827912911   -1.2897392261   -0.8197767365
 H   -0.7262166873   -0.1622647897   -1.9705308544