15

 N   -0.1356704937    1.3146358759   -0.0859872261
 C   -0.0352073876    0.0439695089   -0.0807271889
 N    1.0432818304   -0.8490589626   -0.1659190791
 N    0.6683924726   -2.1991949327    0.1019351337
 C   -0.6096065914   -2.0999211875    0.1452258211
 O   -1.5691353745   -3.0056052226    0.3693877561
 C   -2.8387732089   -2.3094929721    0.2324456323
 C   -2.5198276940   -0.7857509426    0.2767861495
 N   -1.1113642437   -0.8399050723   -0.0303765713
 H    0.7783972895    1.7583382313   -0.1353477142
 H    1.9523192120   -0.5903877253    0.1825119009
 H   -3.2808960775   -2.5981558275   -0.7257674844
 H   -3.4871690487   -2.6379870639    1.0452005788
 H   -3.0878634005   -0.2239718896   -0.4677741225
 H   -2.7014037840   -0.3439032372    1.2632708843