21

 C   -0.5941912238    1.2983912595    0.1896061658
 C    0.1480721986   -0.0327536880    0.1573936309
 C    1.0064127686   -0.1923925405   -1.1614531599
 C    2.2439495551    0.3430110699   -0.4935242422
 C    1.5504777155   -0.1365475349    0.7944651551
 C    1.9468033543   -1.3837731632    1.1226363267
 C    2.7471676837   -1.9831071100   -0.0234420143
 C    2.3860598340   -0.9867905502   -1.1471076942
 C    3.0436338152   -1.1512861381   -2.4988934992
 H    0.0734151845    2.1310694119   -0.0530830913
 H   -1.4218512450    1.3039932173   -0.5289050657
 H   -1.0142618300    1.4781767216    1.1844123401
 H   -0.5281826720   -0.8543075917    0.4182129155
 H    0.6261486580    0.1122522937   -2.1350310589
 H    2.7974644418    1.2573466344   -0.6651953041
 H    1.3440554693   -2.0286908018    1.7570768498
 H    3.8412413243   -2.0375500074    0.0863768870
 H    2.3990251263   -3.0096431635   -0.1986581030
 H    2.7109992465   -2.0703013930   -2.9950609703
 H    2.8220203358   -0.3126475178   -3.1657838054
 H    4.1332675894   -1.2109895381   -2.3912617721