16

 O    0.0974013511    1.3667245748   -0.0828423003
 C    0.0409245901   -0.0315922442    0.0334261488
 C   -1.4044490353   -0.5378244021    0.0374727824
 O   -2.0011686724   -0.1907150655   -1.1879816736
 C   -3.0516258008   -1.1386315818   -1.3829334033
 C   -2.5105822966   -2.4115691009   -0.6984185800
 O   -1.4317530939   -1.9394783169    0.1208104744
 C   -2.1947251729    0.0525034518    1.1652254900
 N   -2.8259069808    0.4769435994    2.0344215743
 H   -0.3480988524    1.6072152241   -0.9034108583
 H    0.5476249375   -0.5571612951   -0.7880587781
 H    0.5218663137   -0.3048736439    0.9757513966
 H   -3.9759990032   -0.7865797791   -0.9094450773
 H   -3.2117938640   -1.2482635346   -2.4563379620
 H   -3.2671752097   -2.9029111746   -0.0792827644
 H   -2.1025301403   -3.1345109815   -1.4106493291