23

 C    0.0429345226    1.3395294059    0.0634658152
 O    0.0088293124   -0.0267633595   -0.2829816404
 C   -1.2480885943   -0.6344420168   -0.0947483663
 C   -1.3719145696   -2.0032780813   -0.7407021215
 C   -0.4156748564   -2.9715198798   -0.0947468674
 C   -1.6981384782   -2.6439225997    0.6175737708
 C   -2.7339556636   -3.6762419963    0.9611427980
 C   -1.5792943914   -1.2753808727    1.3153073793
 C   -0.5889512716   -1.1167019030    2.4636440329
 H    1.0488227054    1.7057273743   -0.1574864442
 H   -0.6832356878    1.9230851171   -0.5244869073
 H   -0.1652943849    1.5089310430    1.1297063671
 H   -2.0442678911    0.0529081723   -0.4137459873
 H   -1.8114424198   -2.1948100415   -1.7127175315
 H   -0.3895904612   -3.9543961000   -0.5556440716
 H    0.5484750462   -2.6274195488    0.2652790798
 H   -2.7728354388   -4.4669652374    0.2043306331
 H   -2.5172316119   -4.1555920037    1.9238108407
 H   -3.7335438959   -3.2311513646    1.0327440852
 H   -2.5716598157   -0.9399865177    1.6376731950
 H    0.4392287222   -1.2954988628    2.1392435732
 H   -0.6304454121   -0.1081510831    2.8884106478
 H   -0.8170002647   -1.8217700439    3.2709301992