20

 C    0.0780058094    1.6197535449    0.1274693255
 C    0.0900197682    0.1047612973    0.0128622240
 C    0.8089397533   -0.4570134295   -1.2166692403
 C    1.2394995482   -1.8678516599   -0.7447221459
 C    2.4356528962   -2.4552322837   -1.5114734481
 C    1.5585125461   -1.5749307326    0.7498585789
 O    0.7930478008   -0.4476548881    1.1364312586
 C    0.0978869340   -2.7892150389   -0.8437694073
 N   -0.7962191619   -3.5168680474   -0.9325267836
 H    1.0973709647    2.0175027420    0.1004371775
 H   -0.4947358258    2.0620777490   -0.6938720677
 H   -0.3845685045    1.9247016707    1.0698961284
 H   -0.9450219555   -0.2705749478    0.0293571354
 H    0.1833477156   -0.4768684617   -2.1111564145
 H    1.7091580752    0.1295848294   -1.4320498741
 H    3.2826656566   -1.7652140172   -1.4576287012
 H    2.7425761149   -3.4152078386   -1.0866703172
 H    2.1851470750   -2.6173123364   -2.5629922939
 H    1.3243271990   -2.4278000122    1.3961212033
 H    2.6303785806   -1.3515731793    0.8507126925