14

 C   -0.1845196248   -1.2138730826    0.2180887674
 C   -0.0787170291   -0.0236229508    0.0950124389
 C    0.0180752415    1.4242554079   -0.0434862028
 N   -0.6352153278    2.1418597681    1.0720059909
 C    0.3774321734    2.5790010918    1.9081403016
 N    1.5732077073    2.5679547331    1.4622030838
 C    1.4805888890    2.0249952436    0.0937330534
 C    2.5540620572    1.0754459549   -0.2026188053
 N    3.4034445451    0.3392113125   -0.4663743732
 H   -0.2542117716   -2.2690941205    0.3216362274
 H   -0.4172458878    1.7309737536   -0.9984345905
 H   -1.4395016891    1.6942084031    1.4900066116
 H    0.1189467287    2.9592728657    2.8919281152
 H    1.5756671780    2.8579450697   -0.6149996583