19

 C    0.3242531052    1.6019403746   -0.0382781457
 C   -0.0438064647    0.1103641628   -0.0253875896
 O    0.4556204627   -0.4064460044    1.2066282182
 C   -1.5790859281   -0.1134745596   -0.1340463321
 C   -2.3212324383    0.1828878465    1.1465704611
 C   -3.4883557535   -0.6158073344    1.5434023966
 O   -2.2181442901   -0.8248776649    2.1645567913
 C    0.6023499380   -0.5671539257   -1.1658281520
 C    1.1122668505   -1.1264641863   -2.0998997890
 H    1.4011048118    1.7094240244    0.1083210912
 H    0.0515408118    2.0626825755   -0.9911262617
 H   -0.1855227536    2.1230267313    0.7765008953
 H   -0.1080235010   -1.1384781712    1.4838451430
 H   -1.9732269133    0.4987081143   -0.9529095310
 H   -1.7616920365   -1.1600382734   -0.4006252194
 H   -2.2489226321    1.1985842662    1.5342026633
 H   -4.2509030831   -0.1797834855    2.1863178706
 H   -3.8323298792   -1.4201095892    0.8944211320
 H    1.5778756036   -1.6218676611   -2.9158649820