25

 C    0.2743384763    1.5329285914    0.2278785507
 C    0.0264455626    0.0379427896   -0.0053228859
 C    0.6642671086   -0.5333876732   -1.2881955208
 C    2.1935055576   -0.3742368180   -1.2679600257
 C    0.2496226681   -2.0098258633   -1.5270909234
 C   -1.2724939306   -2.2125274879   -1.6313784093
 C    0.8897758866   -2.5627447298   -2.7886412012
 C    2.0616168226   -3.4467793033   -2.7845647902
 O    0.7518083537   -3.9707886248   -3.0042917759
 H    1.3290729207    1.7578714911    0.4099607296
 H   -0.0485886912    2.1263740607   -0.6353252185
 H   -0.2878841207    1.8850043404    1.0985372083
 H    0.3944370488   -0.5332002858    0.8588728436
 H   -1.0550690666   -0.1247267617   -0.0386167547
 H    0.2760849321    0.0524425013   -2.1369475935
 H    2.6341055215   -0.9415576146   -0.4387817712
 H    2.6517486923   -0.7306224164   -2.1937948340
 H    2.4841318833    0.6720191741   -1.1438054505
 H    0.6185530414   -2.6128982903   -0.6849222290
 H   -1.4876552298   -3.2452358735   -1.9181636067
 H   -1.7815104268   -2.0157981820   -0.6853058395
 H   -1.7066983895   -1.5521414490   -2.3917953988
 H    0.7135396263   -1.9680072763   -3.6893744383
 H    2.7297093892   -3.4764530723   -3.6448702596
 H    2.5198921835   -3.7198552263   -1.8346477557