16

 O    0.0654147087    1.3838726617    0.6295091341
 C    0.1485665992    0.0902256106    0.0542154199
 C   -1.2340651076   -0.5346685655    0.0184936873
 C   -1.5570897719   -2.0512088838    0.0244056606
 C   -1.0962726000   -2.0327722788    1.4972017889
 N   -1.9126871925   -0.7276407006    1.4028428943
 C   -2.9118881205   -1.5948035564    0.6124937696
 H   -0.4837289119    1.2926560689    1.4184527039
 H    0.5156802936    0.2209129903   -0.9701830983
 H    0.8843181539   -0.5340023469    0.5806675340
 H   -1.8694608956    0.0760645707   -0.6327240412
 H   -1.3618711470   -2.7993122354   -0.7514661661
 H   -1.5427101430   -2.7640323033    2.1762615477
 H   -0.0404084527   -1.8933319314    1.7285522992
 H   -3.5848054789   -1.0145409799   -0.0244694426
 H   -3.4620925137   -2.2993872103    1.2415017387