15

 N   -0.0451994397    1.3068607883   -0.2026490206
 C    0.0507189416    0.0487285508   -0.0665434661
 C    1.2143087764   -0.9419758071   -0.0208651485
 N    0.6232699212   -2.2766482069    0.1491923903
 C   -0.6374312118   -2.0915918195    0.1978522858
 N   -1.0700552668   -0.7735020057    0.0790129976
 C   -2.4254950002   -0.2729495411    0.0928202328
 C   -3.1182669921   -0.5298089341    1.3628395638
 N   -3.6687598529   -0.7554475731    2.3526873810
 H    0.8687647845    1.7437079146   -0.2986016061
 H    1.8063952970   -0.9008170596   -0.9419666796
 H    1.8933206529   -0.7180279707    0.8096270468
 H   -1.3707412836   -2.8808929044    0.3271553643
 H   -2.3524652887    0.8071581732   -0.0752159058
 H   -3.0180549378   -0.7026524348   -0.7238063357