17

 O   -0.2774437571   -0.0310096854   -0.2713075588
 C   -0.1653410905    1.1494052776   -0.1274943063
 O    1.0330570974    1.7686051010   -0.1936369556
 C    1.0738465845    3.1862231689    0.0554704767
 C    0.9409710626    3.6324991804    1.5483402041
 C    2.1866371921    4.5352997719    1.3480777986
 C    2.5361879135    3.7123713719    0.0794526319
 C    0.2055246558    3.9204532283   -0.8551480570
 C   -0.5048153505    4.5425005419   -1.5992354294
 H   -1.0056167342    1.8392901175    0.0656112639
 H    0.0001320068    4.0974651649    1.8455405020
 H    1.1540118061    2.7806514265    2.1989730844
 H    1.9115843589    5.5641979111    1.1070303082
 H    2.9246172603    4.5460414375    2.1508020341
 H    3.2062781882    2.8787188434    0.3002201449
 H    2.8834916702    4.2387545735   -0.8097379228
 H   -1.1328674643    5.0852534990   -2.2625289089