15

 C    0.0909885541    1.3993694134   -0.0078235412
 N    0.0621483461   -0.0438551723    0.0194162230
 N    0.1127478308   -0.7854506866   -1.1281226260
 C    0.1180524369   -2.0389038238   -0.7516852968
 N    0.0785628599   -2.1443331925    0.6179655665
 C    0.0539617716   -2.9760780062    1.7335156815
 C    0.0125028740   -2.1059279828    2.7988582816
 N    0.0095256792   -0.7744615383    2.4205919132
 C    0.0484419461   -0.8566451590    1.1108064613
 H    1.0763309140    1.7692574389   -0.3087131475
 H   -0.6607700257    1.7722327070   -0.7071006877
 H   -0.1355362774    1.7551007459    0.9985351247
 H    0.1462349138   -2.8729954862   -1.4319417977
 H    0.0680573645   -4.0488329645    1.6627361083
 H   -0.0153534979   -2.3755990729    3.8446906967