14

 N   -0.0190062437    1.3600291125    0.0101230079
 C    1.1678201931    2.0287919793    0.0018707013
 C    2.3463758208    1.3196912886   -0.0137987915
 N    2.4188063815   -0.0335299577   -0.0218906347
 C    1.2742769354   -0.6784854410   -0.0139358478
 N    1.0933883561   -2.0246733297   -0.0194433904
 C   -0.2336559087   -2.1797039329   -0.0069752977
 C   -1.0018726100   -0.9770499752    0.0072421592
 C   -0.0398152937    0.0060311964    0.0029616548
 H   -0.8836043614    1.8835675675    0.0216350550
 H    1.1185267917    3.1085164803    0.0082391827
 H    3.2865203065    1.8598216630   -0.0202783235
 H   -0.6597203033   -3.1778321411   -0.0081383431
 H   -2.0767854944   -0.8850777398    0.0185047377