19

 C    0.4124901046    1.1281017022    0.1718112599
 O    0.0896375404   -0.2489343254    0.1063629693
 C   -1.2869550379   -0.5664374017   -0.0634518546
 C   -1.3804289964   -2.1056775066    0.0561467530
 C   -1.5133017404   -2.2733106368    1.5703010291
 O   -2.3709190460   -1.2169296923    1.9778724667
 C   -2.2069629304   -0.1118897505    1.0922425654
 C   -1.7452805335   -0.1166514277   -1.4482846033
 O   -2.8840015939    0.1158146263   -1.7593320743
 H    1.5003620714    1.1958289444    0.1003595867
 H   -0.0285825591    1.7017198572   -0.6564953869
 H    0.0960991058    1.5892321133    1.1164624142
 H   -2.2835474437   -2.4632028239   -0.4465304272
 H   -0.5021728653   -2.5874675609   -0.3765320149
 H   -1.9745657024   -3.2200786881    1.8649492650
 H   -0.5283045674   -2.1936565532    2.0536080950
 H   -1.7759653392    0.7398396161    1.6305296679
 H   -3.1854990382    0.1820010742    0.6993379085
 H   -0.9093073082   -0.0626480466   -2.1820831992