21

 C   -0.0868025239    1.6093296293    0.2898156423
 C   -0.0931313188    0.1427178716   -0.1430058512
 N   -1.4241834034   -0.4429404149   -0.1077899365
 N   -2.0045885200   -0.6321817247    1.0983253307
 C   -3.1916999484   -1.1631132160    0.8241500421
 C   -3.3827075463   -1.3220414639   -0.5603864504
 C   -2.2194304077   -0.8468021170   -1.1415232392
 C   -1.8440444466   -0.7443918155   -2.5889996574
 C   -1.9959450769    0.6689966821   -3.1807693650
 H    0.9359971730    1.9984401508    0.2887210010
 H   -0.6914566942    2.2234711748   -0.3843485393
 H   -0.4968610284    1.7011290611    1.2980034449
 H    0.2940288392    0.0330303382   -1.1585944479
 H    0.5462719375   -0.4472740519    0.5209212852
 H   -3.8616721988   -1.4194184537    1.6321551072
 H   -4.2361649225   -1.7323846248   -1.0765851472
 H   -0.8168978038   -1.0978842405   -2.7432851110
 H   -2.4855267412   -1.4360223355   -3.1441222619
 H   -3.0222913325    1.0286112120   -3.0634253163
 H   -1.3344114125    1.3854781671   -2.6843946044
 H   -1.7515185837    0.6698624315   -4.2476048155