19

 C    0.0467101025   -1.2182763246   -0.4371030582
 C    0.0410485159   -0.0415935659   -0.1841983817
 C    0.0173046328    1.3594311943    0.1376529769
 C    0.2652724410    2.3416196146   -1.0011142714
 C    1.3305195747    2.1329178943    0.0360649847
 C    1.6495412890    3.2221479136    1.0442151376
 C    0.4464053255    3.7335774489    1.7881521854
 C   -0.7144179718    3.0856123930    1.8612102742
 C   -0.9867364970    1.7517146112    1.2232025741
 H    0.0561219186   -2.2548183076   -0.6656915033
 H    0.4189451671    1.9296704130   -1.9911485304
 H   -0.2981945295    3.2685801951   -0.9695484467
 H    2.1846720424    1.5425486342   -0.2790423140
 H    2.3825163946    2.8387414343    1.7692990475
 H    2.1544076963    4.0555627104    0.5357341549
 H    0.5629575969    4.6835947408    2.3034331879
 H   -1.5318674621    3.5130627305    2.4366846409
 H   -2.0016091629    1.7336315261    0.8042711883
 H   -0.9800187139    0.9748344338    2.0002538934