17

 N    0.1159566244    1.4138046688   -0.4650170550
 C    0.1197616312    0.2586287568    0.0395079196
 N   -1.0288075771   -0.4860011187    0.3121869020
 C   -2.3512343091   -0.1802236770    0.0405156370
 O   -2.7750271786    0.8072247301   -0.4938410048
 O    1.1792211526   -0.5217793755    0.4371735880
 C    2.4565282079    0.0585183458    0.3578214054
 C    3.5851170406   -0.9004165333    0.1668201778
 C    3.1883319843    0.0325341126   -0.9574096193
 H    1.0618424824    1.7601639493   -0.6018194513
 H   -0.8505877038   -1.3714053762    0.7611652021
 H   -2.9993197918   -1.0074400362    0.3973258219
 H    2.5868658547    0.9090079962    1.0219206558
 H    4.5076479498   -0.7147321574    0.7040984921
 H    3.3198859542   -1.9458687752    0.0613972985
 H    2.6633594746   -0.4011480559   -1.8004887310
 H    3.8361327336    0.8665902858   -1.2028361288