20

 C   -0.4541542278    1.3954437438   -0.2601766986
 N    0.0246762126    0.0527881966    0.0418054264
 C    1.3548768285   -0.4486432468   -0.2167956738
 C    2.5823819918    0.4709364530   -0.3031255334
 C    2.7885338166    1.0731567221    1.0929395415
 C    4.1644031741    1.4753707868    1.5502048891
 O    1.7204827709    1.9447896990    1.5015256285
 C    1.6995096132    0.5854253742    1.9624170655
 C    0.8052746905   -0.3658286162    1.1887198771
 H    0.3198946437    2.1629271913   -0.3290054754
 H   -1.0021698588    1.3465024061   -1.2080035368
 H   -1.1589383611    1.7016093641    0.5182382987
 H    1.3992003390   -1.3782119673   -0.7819118182
 H    3.4549884557   -0.1337064209   -0.5731973114
 H    2.4879852514    1.2531691166   -1.0649151684
 H    4.5716005286    2.2647499243    0.9082240826
 H    4.1285893722    1.8568382738    2.5736930491
 H    4.8536458724    0.6252667893    1.5139322430
 H    1.8092692896    0.4576114154    3.0368949090
 H    0.4202709869   -1.2240942550    1.7355086056