17

 C   -0.0209196431    1.4630650934    0.0814776969
 C   -0.0104109549   -0.0239728874    0.0001615737
 N   -0.0315490086   -0.7413511129   -1.1125835254
 C   -0.0113248947   -2.0643044859   -0.7311005061
 C    0.0233356040   -2.1521526591    0.6399242185
 C    0.0596247467   -3.0039433359    1.8104261087
 C    0.0804114465   -2.2358460412    2.9155642723
 C    0.0587071107   -0.7649598869    2.5431278119
 N    0.0233084542   -0.8419535231    1.0891447762
 H    0.8723967412    1.8502027377    0.5871415568
 H   -0.0504765835    1.8692933817   -0.9300951339
 H   -0.8933268705    1.8352302905    0.6328080694
 H   -0.0226761716   -2.8597269104   -1.4599402938
 H    0.0680509278   -4.0843645007    1.7814656312
 H    0.1086293629   -2.5720739993    3.9424691687
 H   -0.8213237348   -0.2419383385    2.9402109467
 H    0.9483470675   -0.2269353820    2.8963251284