18

 C    0.2954300720    1.5322492024   -0.0321925293
 C    0.1512897790    0.0419554769   -0.1135014649
 N   -0.0423004604   -0.5636171042   -1.2081606058
 C   -0.2250615677   -2.0106648435   -1.2006912581
 C   -0.6305744552   -2.5623233259    0.1680453903
 C    0.2868304863   -1.9365583070    1.2200346433
 O    0.2622584832   -0.5110051037    1.1379054940
 C   -0.1323122133   -2.3073323295    2.6337077518
 O   -0.0696067853   -3.4279793440    3.0639078209
 H    1.2745115609    1.7983721498    0.3788856549
 H    0.1823777890    1.9635482564   -1.0256911316
 H   -0.4610484746    1.9485918555    0.6408143163
 H   -0.9844187189   -2.2582549869   -1.9502977232
 H    0.7057567822   -2.4833609183   -1.5431086294
 H   -1.6692054590   -2.2898521921    0.3890131917
 H   -0.5510097115   -3.6510545627    0.2209831793
 H    1.3171784886   -2.2867794604    1.0655662248
 H   -0.5213178453   -1.4528282827    3.2300932049