17

 C   -0.0348826425    1.5648406637    0.0513892249
 C    0.0111162437    0.0552695434    0.0728039280
 C   -1.3114134202   -0.7652601811    0.3067208897
 O   -2.0045595175   -1.2806732898   -0.7909018692
 C   -0.5533310211   -1.7142435873    1.2969547857
 C    0.7268873352   -0.8864636764    1.0861694024
 O    1.5277156448   -1.4560877154   -0.0041613877
 C    0.9068837306   -0.6610550391   -0.9365742348
 O    1.0749437430   -0.6596189051   -2.1157808597
 H    0.9681260953    2.0025913219    0.0602631817
 H   -0.5418453784    1.9074526331   -0.8565023703
 H   -0.5860859653    1.9528421626    0.9137221416
 H   -2.0317682178   -0.1421113149    0.8442936700
 H   -1.3844928723   -1.7140211942   -1.3889206206
 H   -0.9531994223   -1.6930369214    2.3127968871
 H   -0.4543484087   -2.7519608743    0.9717904291
 H    1.3529071536   -0.5676940957    1.9169013219