14

 N   -0.1829413715    1.3350000874   -0.4412165489
 C   -0.0797670209   -0.0088217681   -0.2013383579
 N   -1.1123179424   -0.7900812556    0.0229711272
 O   -0.5109558909   -2.0658727528    0.1315633574
 C    0.7972778152   -1.8832478419   -0.0263541285
 C    1.7004002819   -3.0798906152    0.0275358909
 C    1.6455947583   -3.7893234976    1.3022381521
 C    1.6070431424   -4.3742607307    2.3494766903
 N    1.1423197030   -0.6499479568   -0.2355251591
 H    0.6477764356    1.8597502513   -0.2149548706
 H   -1.0420973490    1.7610997981   -0.1284020714
 H    1.4279841640   -3.7618346190   -0.7884824292
 H    2.7148137079   -2.7242216864   -0.1746019583
 H    1.5677043265   -4.8912955427    3.2762885562