18

 C    0.0134907179    1.5666139170   -0.0891609527
 O    1.3279383031    1.8455964784   -0.5587870957
 C    2.2459644478    0.9576911289    0.0821575761
 C    1.3977818186   -0.2059694619    0.5694625968
 N    1.9067476445   -1.5418059909    0.8095398849
 C    1.2907838672   -0.7948565337    1.9398110448
 C   -0.1696334275   -0.9875383865    2.1838036927
 C   -0.8989240236   -0.5604988001    1.1439788005
 C   -0.0302031676    0.0319121894    0.0627468486
 H   -0.1747996528    2.0482578618    0.8837351108
 H   -0.6915647997    1.9663058492   -0.8220382030
 H    2.9932135640    0.6440204959   -0.6537041578
 H    2.7642629193    1.4653067014    0.9083531045
 H    1.2608515177   -2.2485460102    0.4595785983
 H    1.9728707437   -0.5673043755    2.7528495972
 H   -0.5635183001   -1.4299258631    3.0918410176
 H   -1.9750252999   -0.6569635007    1.0508800344
 H   -0.2105482427   -0.4215753792   -0.9199424179