17

 C   -0.0793207581    1.5755021715    0.0643953786
 C    1.5098655419    1.7016578357    0.0276486576
 O    2.2166469836    2.2243426895    1.1448916667
 C    2.4141813632    1.1642537603    2.1134874633
 C    1.7403707692   -0.0439981995    1.5014056155
 C    1.4701484406    0.2197832744    0.2179514458
 C    0.0117596912   -0.0147778570   -0.0097057800
 O   -0.4343376329   -0.8129918579    1.0787902383
 C    0.6216065822   -0.8895609232    2.0687923670
 H   -0.4844583628    1.9082794702    1.0214380033
 H   -0.6041678635    2.0517018474   -0.7679166216
 H    1.8957617489    2.1731768608   -0.8779040858
 H    3.4910093781    1.0582555523    2.2977774441
 H    1.9386131438    1.4340105778    3.0678045429
 H   -0.3835140070   -0.4382739739   -0.9347363571
 H    0.8684820930   -1.9464636803    2.2323954995
 H    0.2694115187   -0.4784436581    3.0261829118