15

 O   -0.4502394288    1.0649252945    0.7887536359
 C    0.2530214304    1.0821206413   -0.1882098810
 C    1.3948987525    2.0840064922   -0.3808293175
 O    2.0652048055    2.0813592514   -1.3985846191
 N    1.5497536278    2.9238040362    0.6670016327
 C    2.5937282986    3.9271102168    0.7047800356
 C    2.2761272575    5.1232426047   -0.2244935651
 C    3.3078608881    6.1524470463   -0.1473160763
 N    4.1351102853    6.9544637208   -0.0614310752
 H    0.1421121686    0.3836590713   -1.0400000295
 H    0.9044605107    2.8115389300    1.4355115665
 H    2.7107274392    4.2687593721    1.7349448557
 H    3.5358162748    3.4726561672    0.3851551193
 H    2.2011582257    4.7586134737   -1.2532715858
 H    1.3102278742    5.5632616716    0.0453870439