17

 C   -0.0347655890    1.4669832111    0.0801006769
 C   -0.0206055728   -0.0177083304   -0.0020387371
 C   -0.0623259872   -0.8611620316   -1.0355222911
 C    0.0282738319   -2.2328617122   -0.3409142191
 C   -1.0032434703   -2.0439167806    0.8270868714
 C    0.0824619654   -0.9860399889    1.1927009322
 N    1.1546977662   -1.9325285725    0.6546527414
 C    0.1005383152   -3.4382317438   -1.1373253411
 N    0.1425339731   -4.4118061366   -1.7588293978
 H    0.8829968448    1.8427668343    0.5492271611
 H   -0.1202590982    1.9191511429   -0.9113242209
 H   -0.8710337336    1.8263223113    0.6928563394
 H   -0.1135690102   -0.6931841827   -2.1002466789
 H   -2.0102263207   -1.7077977490    0.5680970525
 H   -1.0310830161   -2.8965495178    1.5124651390
 H    0.2143819665   -0.5835942731    2.1958329516
 H    1.2027814048   -2.7308737405    1.2971665006