13

 C    0.0024812943    1.4134941357    0.0348866710
 O   -0.0068345820   -0.0039522801   -0.0061356547
 C    0.6039925634   -0.6508946721    1.0032023170
 C    0.7398383181   -2.0123618010    1.1821842649
 C    1.4560289397   -2.1246278143    2.3927983235
 N    1.7472410613   -0.9474630011    2.9328305752
 N    1.2126798746   -0.0498957835    2.0593748836
 H    1.0267530649    1.8090365635    0.0136483205
 H   -0.5270403155    1.7500312899   -0.8567829574
 H   -0.5181641644    1.7930019492    0.9243279369
 H    0.3729954625   -2.7864489217    0.5303457632
 H    1.7712867821   -3.0290407786    2.8931489814
 H    1.3063786711    0.9308334742    2.2529972650