17

 N   -0.0968248536    1.3553912398   -0.1887150016
 C   -0.0662130830    0.1025901693   -0.0766528098
 C   -1.2913302898   -0.7535917593    0.0504465130
 C   -1.4736782629   -1.7045447499   -1.1437735015
 C   -0.2601029861   -2.6035401284   -1.3949122574
 N    0.9147809396   -1.8812577991   -1.8850326492
 C    1.7421109552   -1.1079515464   -1.1192352345
 O    2.8920990381   -0.8702293923   -1.3708431352
 O    1.1448824135   -0.6042529256    0.0237684999
 H    0.8510509996    1.7346268919   -0.2419156983
 H   -1.1964881552   -1.3432910612    0.9711489559
 H   -2.1559345000   -0.0956563572    0.1516324252
 H   -2.3446602794   -2.3416394788   -0.9552129047
 H   -1.6817746316   -1.1253306989   -2.0499875881
 H   -0.0136860425   -3.1623157879   -0.4815491174
 H   -0.5097754521   -3.3392731790   -2.1635204744
 H    1.4000195002   -2.2814084670   -2.6731814520