16

 C   -0.0278583891    1.3786533973   -0.0035401159
 N   -0.0392279255   -0.0723189974   -0.0175402544
 C    0.5652939804   -0.6747504298    0.9233022521
 N    1.2623831117   -0.1222317102    2.0112789776
 C    1.7056233040   -1.1333492161    2.8565105413
 C    1.4177743926   -2.3573667433    2.3670147872
 C    0.6966750119   -2.1552419611    1.1192785947
 N    0.2231080513   -2.9892433484    0.2626914356
 O    0.4753977180   -4.3011109521    0.6569316642
 H    0.9909050410    1.7932507438    0.0585285717
 H   -0.4872916655    1.7552320361   -0.9202728849
 H   -0.6034549295    1.7862761712    0.8431486745
 H    1.1814426146    0.8404302056    2.2847683586
 H    2.2293571944   -0.8729627767    3.7658941355
 H    1.6799648749   -3.3090890051    2.7946166589
 H    0.0780216549   -4.8097023736   -0.0584787567