23

 C    0.0424551252    1.3795316390    0.3998656516
 C    0.0359225259   -0.1422775747    0.1650556302
 C    0.7941114644   -0.8427210921    1.3065919784
 C   -1.4282542825   -0.6240637635    0.1603925355
 C    0.6694073797   -0.4902575090   -1.2326764932
 C    2.1313411769   -0.0448915906   -1.4611307942
 O    2.1674260284    1.3626912619   -1.6440528297
 C    0.5895570133   -1.9239807162   -1.5207317991
 C    0.5670433165   -3.1024992494   -1.7606565638
 H    1.0546023543    1.7829777769    0.4451616651
 H   -0.4834131429    1.9072516998   -0.4028090924
 H   -0.4678100559    1.6076891043    1.3422357580
 H    0.2866342053   -0.6632133341    2.2601928607
 H    0.8424612600   -1.9240063422    1.1473555309
 H    1.8169537396   -0.4664602465    1.4097561805
 H   -1.9956577096   -0.1506358333   -0.6489884538
 H   -1.4965342633   -1.7072801772    0.0305908305
 H   -1.9159165248   -0.3613926466    1.1049750811
 H    0.0779591494    0.0415293608   -1.9916803356
 H    2.7576888014   -0.3605009664   -0.6145266847
 H    2.5052095302   -0.5623476292   -2.3552740536
 H    3.0773253865    1.6148047666   -1.8264644912
 H    0.5287066921   -4.1411321085   -1.9782604111