19

 C    0.1968942857    1.5214856850   -0.0011731431
 C    0.4419649414    0.0407720325    0.1254653240
 O    1.7300810588   -0.3845724223    0.5936604984
 C    0.5844605318   -0.6960871332    1.3933587067
 C    0.5153345701   -0.0642229381    2.7736936607
 C    1.5329950487   -0.7341683542    3.6833497859
 O    1.2806583808   -1.7397452637    4.3129851572
 C    2.9250967048   -0.1327638256    3.7474018427
 O    3.7777198419   -0.8925522104    4.5490127248
 H    0.5641516594    2.0766964618    0.8639082751
 H    0.7078264792    1.9082465228   -0.8887717731
 H   -0.8736459563    1.7208146991   -0.1184511996
 H    0.0838076594   -0.5443725558   -0.7242564964
 H    0.3231027589   -1.7556313770    1.3923163117
 H    0.7093015846    1.0091942881    2.7141945310
 H   -0.4813872499   -0.2295300471    3.1941268737
 H    3.2975450387   -0.0454731807    2.7133450674
 H    2.8280507266    0.9000892871    4.1265359391
 H    3.2271998053   -1.6187725784    4.8830507238