21

 C   -0.0646388291    1.5375436946    0.2893359024
 C   -0.0367134196    0.0341208759    0.0774286114
 O   -1.3694531792   -0.4503982793    0.0825176308
 C   -1.4597078829   -1.8488019668   -0.1354431443
 C   -2.9082072743   -2.2757794343   -0.0123180705
 C   -3.9358147252   -1.2977814934   -0.5726678812
 O   -3.5206311860   -0.7169285479   -1.7944950446
 C   -3.2018330291   -3.7092020589    0.1008446720
 O   -3.2953581116   -2.8517164018    1.2422143956
 H    0.9538193121    1.9362656961    0.3083341250
 H   -0.6133626085    2.0335921877   -0.5167420737
 H   -0.5515726823    1.7817298172    1.2374374212
 H    0.4528685811   -0.2175477057   -0.8779863781
 H    0.5388972754   -0.4604445321    0.8761096310
 H   -1.0826618202   -2.0958273164   -1.1406761614
 H   -0.8601234765   -2.4006179545    0.6031553364
 H   -4.8786843951   -1.8188867300   -0.7624649376
 H   -4.1263132458   -0.5358300465    0.1959229443
 H   -2.7829290873   -0.1388554041   -1.5634401014
 H   -4.1469599684   -4.0920489524   -0.2819517192
 H   -2.3888771177   -4.4351130572    0.1298521521