20

 C   -0.0871986669    1.5629632491    0.0674128811
 C    0.0159176376    0.0405690610    0.0131206092
 C   -1.3496127972   -0.5863945304   -0.2698721937
 C    1.1323669297   -0.5690389677   -0.9140805576
 C    1.7570184729   -1.2812663564    0.2885980812
 C    2.1787343642   -0.2897383504    1.3215919562
 C    0.7091551635   -0.6454249790    1.2287787083
 C    0.0166596464   -1.2310650589    2.3293298137
 N   -0.5664244992   -1.6987322567    3.2143619972
 H    0.8759747996    2.0391715293    0.2715046211
 H   -0.4520131183    1.9541542911   -0.8888522262
 H   -0.7899236135    1.8780713973    0.8463564314
 H   -1.7348612420   -0.2353246907   -1.2330749904
 H   -1.2891214745   -1.6786111838   -0.3043666216
 H   -2.0749650798   -0.3177644862    0.5050724995
 H    0.7199384235   -1.2478635249   -1.6628038635
 H    1.7890635986    0.1494874921   -1.4144678220
 H    2.1053883076   -2.3060358402    0.3066665199
 H    2.6849089380   -0.6955918440    2.1906753849
 H    2.5097404297    0.7037792893    1.0329204415