18

 C   -0.0984462462    1.3946081935    0.5238746457
 C   -0.1121190810   -0.1158541962    0.2994092176
 O   -0.1926807827   -0.8365975022    1.5208962526
 C   -1.2390989340   -0.5389516737   -0.6713030590
 C   -1.2631773453   -2.0411000012   -0.8011733644
 O   -0.5155361144   -2.7001246443   -1.4691835355
 O   -2.2564899583   -2.5700083518   -0.0093832842
 C   -2.3458202919   -3.9368590484    0.0852128003
 N   -3.2720892092   -4.4165375895    0.7878776729
 H    0.7042154087    1.6598558736    1.2166629048
 H    0.0575128629    1.9356478979   -0.4149897905
 H   -1.0490309666    1.7331684109    0.9536313677
 H    0.8415938265   -0.4305688675   -0.1382716204
 H   -1.0416072858   -0.6419241822    1.9348124093
 H   -2.2054477065   -0.1805531799   -0.3043203837
 H   -1.0516368693   -0.1104745576   -1.6595210929
 H   -1.5703483103   -4.4530550451   -0.4806543709
 H   -3.2186235466   -5.4342707262    0.7784391008