14

 C   -0.0640896644    1.5154553759    0.1018260393
 O    1.2580725701    1.9104490817   -0.3031299760
 C    2.1133366029    0.7858988308   -0.6104020534
 C    1.2307371942   -0.3950790091   -0.3701787036
 C    0.0067754622    0.0308568002    0.0307063788
 N   -0.7369234165   -1.1035937917    0.2285941257
 C    0.0985618075   -2.1576066758   -0.0703762650
 N    1.3005900472   -1.7619610417   -0.4371019913
 H   -0.2682589991    1.9058884950    1.1106109002
 H   -0.8030961225    1.9614107923   -0.5813762559
 H    2.4609069519    0.8739844756   -1.6489752180
 H    2.9958383610    0.8184383131    0.0433013828
 H   -1.6943912269   -1.1737993922    0.5290385888
 H   -0.2353845776   -3.1821123240    0.0014353578