17

 O   -1.0304811859    1.3846245662   -0.5627105953
 C    0.0747678798    1.0448940281   -0.2137044410
 C    1.2762089785    1.9401463354   -0.1269924870
 C    1.2365167227    3.3747791506   -0.7106369154
 C    0.3440799760    3.8778958329    0.4885737947
 C    0.8111802689    5.2857202992    0.8217924277
 C    2.1370459061    5.2323195771    0.6777706621
 C    2.3990034207    3.7938849789    0.2664386716
 C    1.4130419911    2.8993645357    1.1053033468
 H    0.2704791708   -0.0119130508    0.0849394374
 H    2.1848031747    1.3604961584   -0.3304830176
 H    1.1317217037    3.6534355533   -1.7617262660
 H   -0.7114045369    3.6237370371    0.5141526762
 H    0.1800605300    6.1154946758    1.1068788487
 H    2.8820149477    6.0033007068    0.8133575829
 H    3.4152180262    3.4441097845    0.0800108843
 H    1.5183457660    2.6133892609    2.1554173500