16

 N   -0.2270294358    1.5685126961   -0.0426471846
 C   -0.0373837430    0.1245210336   -0.0420107532
 C   -1.3230656306   -0.5450901334    0.2143970615
 N   -2.3144906134   -1.1044682272    0.4094732519
 C    0.5740854393   -0.4455882001   -1.3728825829
 O   -0.1495645198    0.0326172229   -2.4667322296
 C    2.0339726789    0.0146212012   -1.5092606537
 N    2.9348879027   -0.5595246128   -0.6756677795
 O    2.3159961943    0.8896370661   -2.3113553366
 H    0.6766307169    2.0301519164   -0.0936798316
 H   -0.7343965343    1.8191360272   -0.8877685064
 H    0.6293888837   -0.1357056549    0.7894443968
 H    0.5320131390   -1.5439703110   -1.3416474982
 H    0.4607187816    0.6394939841   -2.9219029551
 H    2.7101335629   -1.3843113533   -0.1452193023
 H    3.9068865076   -0.3144453649   -0.7817562265