18

 O    0.3591809232    1.2703848171    0.1749545489
 C    0.0767608354   -0.1102933841   -0.0026513714
 C   -1.3471157685   -0.3544952902    0.5021769220
 C   -1.8833286532   -1.7351808214    0.1004397294
 O   -0.8582133552   -2.7445810986    0.1298317287
 C    0.0241234266   -2.7842795577   -0.9079220389
 N    0.8946982495   -3.6850916543   -1.0506865617
 O   -0.1341440891   -1.8071658667   -1.8340146808
 C    0.2661761766   -0.4736897514   -1.4822247519
 H    1.3107267478    1.3982283127    0.1059604153
 H    0.7660860822   -0.7202434830    0.5986600057
 H   -1.3467579260   -0.2371682416    1.5898076269
 H   -2.0047185108    0.4217483654    0.0949499571
 H   -2.6361660795   -2.0842341188    0.8097688863
 H   -2.3315794269   -1.7092428665   -0.8953150719
 H    0.7956289481   -4.3772667392   -0.3083576969
 H   -0.3373171311    0.1946055602   -2.1024097695
 H    1.3219743710   -0.3437146619   -1.7565424872