17

 C    0.0613322398    1.5785105400    0.0981860712
 O    1.4425741081    1.5660959508   -0.3233222612
 C    1.4184699807    0.1336732337   -0.5240484186
 C    2.2946897678   -0.7383055619    0.3590714646
 C    2.1706704662   -0.6176211091    1.8669026029
 O    1.0240153912    0.1350081167    2.2522351556
 C    0.2014977973   -0.7074514807    1.3805601663
 C    1.3974291155   -1.6793354832    1.1588399605
 C   -0.0128436994    0.0348867300    0.0597398164
 H   -0.0647602886    2.0442854658    1.0789701720
 H   -0.5782671258    2.0755942606   -0.6413965065
 H    1.5552439891   -0.1146951964   -1.5837044965
 H    3.2407417218   -1.1186579161   -0.0103865532
 H    3.0112322848   -0.6467096100    2.5496266233
 H   -0.6889930524   -1.0641281466    1.9003971533
 H    1.4203996737   -2.7592834277    1.1846905406
 H   -0.7909936998   -0.4181454561   -0.5577689807