16

 C    0.0088529347    1.4684584724   -0.0510416165
 C    1.3306153833    0.7586223719    0.0086947808
 C    1.9974014364    0.4894426302    1.3345726424
 O    0.9351993459   -0.0014056142    2.1624407464
 C   -0.0227171446   -0.7130415667    1.3619766424
 C    0.0478920018   -0.0432949669    0.0063657448
 N    0.0348316548   -0.7623983054   -1.2489807008
 C    1.1057459363   -0.4122875225   -1.8431504518
 O    1.9655292249    0.4553789138   -1.2225635392
 H   -0.2995096778    1.9915897389    0.8476484180
 H   -0.2823810277    1.9255278906   -0.9893974169
 H    2.7942648560   -0.2562981722    1.1896549375
 H    2.4141050246    1.3606325390    1.8475995409
 H    0.2411942924   -1.7754176250    1.2567470579
 H   -0.9815789612   -0.6340560234    1.8814322358
 H    1.4249189701   -0.7340772406   -2.8274169016