17

 O   -0.8360670578    0.8776637300    0.3771671078
 C    0.1612112227    0.9621594592   -0.2906719569
 C    1.2518977767    1.9909808622   -0.0967885496
 C    1.5130533124    2.7852713977   -1.3916691119
 C    2.6647139162    3.7528742852   -1.2501026726
 C    2.5945694930    5.1321662663   -1.7873077173
 O    2.4672155854    4.8947541316   -0.3965290968
 C    4.0460004147    3.1814170646   -1.1231178787
 O    4.3221650109    2.0278740265   -1.3335077628
 H    0.3484618444    0.2539520815   -1.1328173415
 H    0.9755257707    2.6550340441    0.7258000513
 H    2.1673639398    1.4495867063    0.1758262067
 H    1.7491757035    2.0944969111   -2.2090660927
 H    0.6130001647    3.3398688376   -1.6745460253
 H    3.5022336955    5.6496619397   -2.0962665836
 H    1.6850755199    5.4272425508   -2.3080332342
 H    4.8048962772    3.9306550860   -0.8074976919