17

 C    0.1579914410    1.3879110257    0.2108761620
 N    0.1768300597   -0.0594829731    0.1092865449
 C    0.4836370333   -0.5873696913   -1.0124772002
 N    0.8335137750    0.1000609180   -2.1696694507
 C    0.9028028848   -0.4767850437   -3.4301669675
 C    0.7446300406   -1.7898899665   -3.6431684375
 C    0.5787044989   -2.6871657663   -2.4853582850
 O    1.6697881397   -2.7097746503   -1.5367412480
 C    0.4535994115   -2.0729453836   -1.1418531266
 H    1.1645857299    1.8249147599    0.1117579533
 H   -0.4867306048    1.8642195334   -0.5470718561
 H   -0.2241513853    1.6766903978    1.1928489404
 H    0.8827107181    1.1030285063   -2.1111662533
 H    1.0853569002    0.2276557331   -4.2334377362
 H    0.7941877162   -2.1931790791   -4.6455360856
 H    0.1257668264   -3.6622988147   -2.6508662209
 H   -0.0947578750   -2.5632678556   -0.3417288229