16

 C   -0.1056999870    1.5990095447    0.0428420863
 C    0.0217578581    0.0838912538   -0.0056216778
 C    0.8743414679   -0.6202662391   -1.1346904680
 C    2.2556774357    0.0062577210   -0.8941222128
 O    2.3080119209    0.0050002242    0.5604745531
 C    1.0638110708   -0.6155375033    0.9248289366
 C    0.9652161324   -1.7682847579   -0.0992682388
 O    0.8491814901   -2.9548370354   -0.1004229541
 H    0.8693451727    2.0799846653    0.1428426814
 H   -0.5942285242    1.9825508255   -0.8585980197
 H   -0.7126821038    1.8989907540    0.9028564391
 H   -0.9555303485   -0.4021551249    0.0755434758
 H    0.5291524038   -0.7588715451   -2.1563874738
 H    3.0749730092   -0.5977615848   -1.2999067255
 H    2.3519635027    1.0317348939   -1.2659757497
 H    0.9795995992   -0.7080703918    2.0043995978