20

 C   -0.0897706128    1.4703119932    0.0371362957
 C    0.0367773171   -0.0561032184    0.0312368869
 O   -1.2390295856   -0.6914779777    0.0646499060
 C   -1.8986678445   -0.6777261794    1.3042419494
 C   -3.1119044461   -1.5887379170    1.2066746960
 O   -3.9148542298   -1.7210193250    2.0903977001
 C    0.7540294100   -0.5476006645   -1.2150647103
 C    0.5880207754   -1.9330070255   -1.7078281129
 N    0.0046456597   -0.7984177680   -2.4537779693
 H    0.9027169364    1.9294211126   -0.0018236676
 H   -0.6595122921    1.8078337398   -0.8335738480
 H   -0.5856855892    1.8324656739    0.9421271888
 H    0.6140372685   -0.3748376383    0.9157877467
 H   -1.2499655216   -1.0501827187    2.1153028059
 H   -2.2397181477    0.3263351774    1.5976931027
 H   -3.1873333197   -2.1314263787    0.2384349007
 H    1.7102498368   -0.0520684393   -1.3733178033
 H    1.4134951737   -2.4341349425   -2.2051118714
 H   -0.0878326666   -2.5816369934   -1.1599453293
 H   -0.9890395718   -0.7571375903   -2.2356000069