15

 C   -0.0159957583   -1.2191465965   -0.0671615394
 C   -0.0340991761   -0.0204914549    0.0177311083
 C   -0.0158389869    1.4325682159    0.1179572966
 C    1.4095395155    2.0161546050   -0.0528530264
 C    1.4264290959    3.5059694281    0.0290101834
 C    1.9859321372    4.3626235860    0.9235091566
 O    1.7148243043    5.6155816615    0.5669233701
 N    0.9325743084    5.5257199398   -0.6274522792
 N    0.7902061277    4.3087090338   -0.9008340756
 H   -0.0180790324   -2.2781912144   -0.1432001325
 H   -0.6707204700    1.8703999970   -0.6442821988
 H   -0.4208987899    1.7448130977    1.0883715771
 H    2.0686894539    1.6009799000    0.7146519248
 H    1.8062037905    1.6954281524   -1.0215729827
 H    2.5778059901    4.2201717385    1.8129143676