16

 C    0.0284023850    1.4406174219    0.0526081277
 C    0.0085956918   -0.0448958783   -0.0031862672
 C   -0.0208960023   -0.9182691039   -1.0213217090
 C    0.0278583221   -2.2698956001   -0.3004184957
 O   -0.8943794765   -2.0363808698    0.8256284605
 C    0.0718741683   -1.0001240663    1.2096326022
 C    1.1415554877   -1.9785793599    0.7213416485
 N    2.2655311407   -2.3645348455    1.1297225803
 O    2.7814264296   -3.3975426989    0.3124544186
 H    0.9349714360    1.8039608966    0.5528075461
 H   -0.0035446860    1.8781174178   -0.9486878023
 H   -0.8234017015    1.8286681797    0.6246287209
 H   -0.0336913193   -0.7490989561   -2.0879196816
 H   -0.1063349822   -3.2097658433   -0.8277584395
 H   -0.0180107656   -0.6286097217    2.2280847619
 H    3.6150293321   -3.5980946021    0.7511186787