21

 C   -0.0466093632    1.4934533878    0.0877677250
 C   -0.0455092017    0.0053698201   -0.0127960077
 C   -0.0685661841   -0.7854060952   -1.0881168120
 C    0.0240593912   -2.2435891851   -0.5960255572
 C   -0.8346223406   -2.1003772623    0.6966864343
 C    0.0553626988   -0.9343820460    1.2147401441
 C    1.4330653993   -1.6401911980    1.1512787945
 C    2.5362368973   -1.3806252807    2.1208910824
 C    1.4024649727   -2.4235292984    0.0707137552
 H    0.8761952314    1.8636723097    0.5543612280
 H   -0.1362495386    1.9631016882   -0.8961710006
 H   -0.8741763524    1.8537927333    0.7125960421
 H   -0.0845583968   -0.4857694221   -2.1281908670
 H   -0.2640380000   -3.0106959154   -1.3146466791
 H   -1.8684896633   -1.8019018335    0.4996939788
 H   -0.8044671216   -2.9863663286    1.3376942751
 H   -0.1970592781   -0.4815026071    2.1755114642
 H    2.2241600249   -1.5934032199    3.1516440022
 H    3.4169280532   -1.9912457269    1.9011934261
 H    2.8447889573   -0.3266676612    2.1032475865
 H    2.2037597544   -3.0340453185   -0.3255033350