20

 O   -0.3546149186    0.0180712062    0.2121728336
 C   -0.1836812823    1.2193937722    0.1760345212
 N   -1.1625952888    2.1757435586    0.1989766687
 C   -0.6806593342    3.5345861318    0.0154277234
 C    0.8115370461    3.4014363070    0.3940752017
 C    1.1568505900    1.9436719491    0.0596002902
 C    2.3741900026    1.2991702150    0.7715434569
 C    3.2148385045    1.4768128938   -0.5198236757
 C    1.8950666594    1.6998985224   -1.3033822529
 H   -2.1318362515    1.9127615892    0.1146609427
 H   -0.8059521775    3.8733070108   -1.0231994655
 H   -1.2130457499    4.2392895685    0.6617731751
 H    1.4361147123    4.1324567517   -0.1251072833
 H    0.9264554786    3.5675019061    1.4708993149
 H    2.7275602278    1.7906088841    1.6821807691
 H    2.1623944220    0.2484348422    0.9869775045
 H    3.8353597300    2.3768381924   -0.4903824918
 H    3.8401687129    0.6369202957   -0.8298855926
 H    1.5403127507    0.7816932498   -1.7777903265
 H    1.8627966158    2.5150781934   -2.0315459237