21

 C   -0.0125823971    1.5414050531   -0.2211738670
 C    0.0417968395    0.0365119235    0.0452742877
 O    0.8019628786   -0.2562357052    1.2216635560
 C   -1.3512490461   -0.5623562568    0.0951467298
 C   -1.8942541952   -1.3465721010   -1.0768709714
 O   -1.0624929511   -1.5631256809   -2.1759605517
 C   -1.5777742635   -2.0657305558    0.2141786842
 C   -0.4305282212   -3.0585866866    0.2101053297
 O   -0.5461222330   -4.0098048647   -0.8648581895
 H    0.9983878781    1.9559386475   -0.2528658525
 H   -0.5083970667    1.7489360940   -1.1745886244
 H   -0.5710001480    2.0596820479    0.5688863378
 H    0.5965105941   -0.4398478413   -0.7668349341
 H    0.3246922745    0.1070617082    1.9755968499
 H   -2.0800443993    0.0503237112    0.6233222956
 H   -2.9420539292   -1.1985672527   -1.3370875071
 H   -0.8380273997   -2.5062923901   -2.1662901502
 H   -2.4334944776   -2.3651710865    0.8147286097
 H    0.5297370511   -2.5689067121    0.0565014678
 H   -0.3732638397   -3.5807737830    1.1738028674
 H   -1.3735474785   -4.4882088088   -0.7458800478