17

 C   -0.4282323434    1.2776941658    1.1650857390
 N    0.0945559639   -0.0680096835    1.0365104979
 C    0.6927639576   -0.5139920170   -0.0930091005
 O    0.8727659771    0.1381902081   -1.1068427465
 C    1.1719232455   -1.9579548650   -0.0364221353
 C    2.6962008887   -2.1662393111    0.1051328108
 C    2.3279308077   -2.8251528203    1.4168070544
 N    2.9586226876   -3.3795228691    2.3434172040
 O    0.9607412886   -2.6203569303    1.2566600475
 H   -0.2307165431    1.7969130531    0.2263661960
 H   -1.5079403459    1.2675896948    1.3490835209
 H    0.0617101322    1.8164230778    1.9832628992
 H    0.0053296208   -0.7228941524    1.7976528522
 H    0.6969822262   -2.5240004132   -0.8404810251
 H    3.1555781325   -2.8312783797   -0.6266399842
 H    3.2880547154   -1.2542523084    0.1913342454
 H    2.3336514587   -3.7201855694    3.0756991443