25

 C   -0.2740598079    1.4753155121   -0.0392846692
 C   -0.0272844081   -0.0361409471   -0.0838442391
 C    0.8638789775   -0.5156753152   -1.2456958828
 C    2.2818850551    0.0682231881   -1.1606784524
 C    0.8798965297   -2.0568551920   -1.2929318630
 C    1.4568879944   -2.6395510184   -2.5713485203
 C    1.2080276742   -4.1367378391   -2.8677988162
 C    0.5426557759   -3.6223800018   -4.1591553604
 O    0.6981732506   -2.2494972750   -3.7474417494
 H    0.6456507926    2.0382956929    0.1458096361
 H   -0.6982130856    1.8330654235   -0.9843927482
 H   -0.9788538438    1.7315665282    0.7581776034
 H    0.4167037527   -0.3638360822    0.8671240601
 H   -0.9952648031   -0.5482558385   -0.1567830186
 H    0.4055270509   -0.1738474345   -2.1837491957
 H    2.2689604978    1.1613398619   -1.1873279724
 H    2.7742408810   -0.2364013233   -0.2284408615
 H    2.9093037412   -0.2639681787   -1.9928063813
 H    1.4503260999   -2.4532165058   -0.4397280980
 H   -0.1473054349   -2.4294361665   -1.1879520931
 H    2.5106354803   -2.3521233992   -2.6919372385
 H    2.0937728370   -4.7611892740   -2.9928344617
 H    0.5240209420   -4.6183083935   -2.1653132956
 H    1.0979230326   -3.8367751106   -5.0818778503
 H   -0.5096032818   -3.8892277711   -4.3125629320