13

 O    0.0892250049    1.3870446162   -0.1383481095
 C    0.0663915457    0.0302591742   -0.0298625243
 C   -0.0015735049   -0.8170986307   -1.1304218087
 N   -0.0062638593   -2.0940621979   -0.6612254279
 C    0.0567394260   -2.0977227611    0.7070739786
 C    0.0645437896   -3.3462087790    1.4313681309
 O    0.0174047922   -4.4388667388    0.8931383177
 C    0.1033136664   -0.7689492770    1.1293560110
 H    0.1373191565    1.7676357553    0.7433517523
 H   -0.0451289115   -0.5841889984   -2.1813492286
 H   -0.0484037103   -2.9464456126   -1.1962063412
 H    0.1174435003   -3.2429470678    2.5352410941
 H    0.1573412645   -0.4342172325    2.1550566255