17

 C   -0.0232010614    1.4267659356   -0.0446106643
 N   -0.0085352026   -0.0117388463    0.0336896815
 C   -1.1376466024   -0.9188716580   -0.0355714888
 C   -0.8155758881   -2.1703387481    0.8316859991
 N   -1.6151814775   -3.0117896337   -0.1303119280
 C   -0.7911137240   -2.0974882841   -0.9990101631
 C    0.4747707313   -2.2051179237   -0.0673828890
 C    1.1116989434   -0.8134127462   -0.0120461653
 O    2.2727817683   -0.4722010827   -0.0194900711
 H    1.0169022776    1.7595266953   -0.0168972505
 H   -0.4824378971    1.7847148632   -0.9750347577
 H   -0.5597222741    1.8733703118    0.8007385092
 H   -2.1274486922   -0.4694448322   -0.0279355406
 H   -0.8823777645   -2.2807079956    1.9155533403
 H   -1.2144104823   -3.9530675536   -0.1624216317
 H   -0.8283623613   -2.1241721903   -2.0896906656
 H    1.1227416868   -3.0790131916   -0.0935763944