18

 O   -0.0708920528    1.4361160191    0.0105843097
 C    0.0150154502    0.0230927019    0.0020404539
 C   -1.4087023978   -0.5213953140    0.0127465579
 C   -1.4502448263   -2.0515636811    0.0048084856
 N   -2.8142430323   -2.5916879638    0.0149392907
 C   -3.4476852826   -2.8164622830   -1.2153938128
 O   -4.5663626391   -3.2116730347   -1.3833512147
 C   -3.4241336475   -2.8295409506    1.2546785250
 O   -4.5394352177   -3.2266480673    1.4397434036
 H    0.8208949319    1.7959516754    0.0039255898
 H    0.5474944655   -0.3427930277   -0.8919031827
 H    0.5645370806   -0.3524781469    0.8815374626
 H   -1.9284800500   -0.1398434531    0.8990041975
 H   -1.9453673137   -0.1302662854   -0.8591547831
 H   -0.9370725165   -2.4451038444   -0.8787643711
 H   -0.9202532009   -2.4546624943    0.8740289138
 H   -2.7559567145   -2.5823302581   -2.0502710189
 H   -2.7165585768   -2.6042741122    2.0786436831