14

 C    0.0035011415    1.4895336492   -0.0822257713
 N    1.3328646557    2.0608380176    0.1809998882
 C    2.3596553552    1.3189429898    0.2994204756
 N    2.4302023907   -0.0647005491    0.1883020527
 C    1.1982376243   -0.7159763412    0.1235785429
 C    0.0530889064   -0.0002866892   -0.0116033255
 O   -0.9990488178   -0.8299626347   -0.0674926032
 N   -0.5435860584   -2.1449480867    0.0364258348
 C    0.7647031706   -2.0642531650    0.1448240006
 H   -0.7095293061    1.9030218107    0.6438043601
 H   -0.3437193046    1.8363750274   -1.0669957269
 H    3.3241762210    1.7878856542    0.4915823653
 H    3.2345859576   -0.5367027490    0.5676164675
 H    1.3413414440   -2.9734163539    0.2377468291