17

 C   -0.0377646076    1.4039431687    0.0100902182
 O   -0.0428222327    0.0029058745   -0.2119836532
 C   -1.2720061765   -0.6133386011   -0.0098352642
 C   -1.2185125902   -1.9870589573   -0.7048142598
 N   -2.4349794805   -2.3951823379   -1.2277743522
 O   -0.2364310135   -2.6861025748   -0.7111939997
 C   -1.6037259569   -0.7934839976    1.5052499125
 N   -2.7210080522   -1.5367290682    1.7572041659
 O   -0.9476725644   -0.2537551501    2.3678159703
 H    0.9631708625    1.7518437317   -0.2535748479
 H   -0.7701497432    1.9094246763   -0.6400377918
 H   -0.2468942459    1.6470187482    1.0553010111
 H   -2.0952670591   -0.0153532418   -0.4424191842
 H   -3.0806181019   -1.6963894727   -1.5630405583
 H   -2.3961171589   -3.2471452469   -1.7704236948
 H   -3.0899948377   -2.1564454874    1.0523760689
 H   -2.9089863313   -1.7540843537    2.7236755293