23

 C    0.0831791881    1.6089139679   -0.0245944103
 C   -0.0315856940    0.0786697101   -0.0191215750
 C    0.5795706616   -0.5250733424   -1.2859800031
 O   -0.1138617087    0.0073037795   -2.4086039875
 C    0.6124472885   -0.5237464840    1.2281042566
 C   -0.0216898790   -0.1142827007    2.5767191362
 C    0.1218883059   -1.3832185648    3.4567589694
 C    0.7644237361   -2.4102137000    2.4982322042
 O    0.4887550507   -1.9441188555    1.1888519131
 H    1.1329826427    1.9227169096    0.0321917240
 H   -0.3367953962    2.0115206475   -0.9480845557
 H   -0.4468674945    2.0578783156    0.8205401819
 H   -1.0938329086   -0.2001450840   -0.0093066166
 H    1.6536087415   -0.2734138062   -1.3294146229
 H    0.4941439696   -1.6177434029   -1.2446012646
 H    0.2358357891   -0.4108248941   -3.2001364725
 H    1.6871272735   -0.2604707285    1.2409113563
 H    0.4713836307    0.7580651280    3.0113379239
 H   -1.0758551725    0.1401171427    2.4321384229
 H    0.7425129127   -1.2145697189    4.3403187981
 H   -0.8546386220   -1.7289735874    3.8041098394
 H    1.8531568897   -2.4645735780    2.6636542456
 H    0.3549495851   -3.4195150434    2.5901481768