13

 O    0.2033185023    1.2576589420   -0.3223794131
 C    0.0925523310   -0.0549525069   -0.1342237809
 N    0.2126286401   -0.9305351386   -1.1225176395
 N    0.0228543904   -2.0743273022   -0.4538373945
 C    0.0959945990   -3.3663515863   -1.0940086052
 C    1.5030759609   -3.6805622123   -1.6097562234
 O    1.7159707570   -4.5833021728   -2.3686674854
 N   -0.1879342298   -1.9200799716    0.8419635340
 N   -0.1513923076   -0.6277482570    1.0670660769
 H    0.0764330297    1.6833072957    0.5353123038
 H   -0.1850365760   -4.1093715711   -0.3426177555
 H   -0.6119127442   -3.4163284234   -1.9249281149
 H    2.3043217371   -3.0213929557   -1.2139299522