17

 C   -0.0230936152   -1.2008763898   -0.1179218103
 C    0.0375994813   -0.0031436062   -0.0244251513
 C    0.0538875101    1.4084715394    0.1403084114
 O    0.2411976996    2.2590574716   -1.0151104778
 C    1.1402839967    2.4188528628    0.0784977314
 C    0.4499558636    3.3032449770    1.1311791887
 C   -0.6803345830    2.2457909816    1.1819337974
 C   -2.1599385955    2.4121341413    1.3281944325
 C   -1.3595137976    1.7077236539    2.4030968778
 H   -0.0619514438   -2.2578621698   -0.2141749516
 H    2.1979674724    2.2855482541   -0.1169974751
 H    1.0083549403    3.3738746063    2.0684508779
 H    0.1816499089    4.3024414303    0.7794226573
 H   -2.5358437314    3.4073443902    1.5416909476
 H   -2.8071872155    1.8145625020    0.6950734730
 H   -1.4595670023    0.6303397099    2.4877103706
 H   -1.1965363987    2.2207594555    3.3453557205