18

 C    0.1096140456    1.4380983776    0.1927780329
 C    0.0015147932   -0.0871888282    0.0119388799
 C   -1.4623891259   -0.4947799581   -0.0360070362
 O   -2.0298913235   -1.1027479214    0.8355501488
 C    0.7080973186   -0.5609916960   -1.2564069642
 O    0.2526357140    0.0477410664   -2.4394490119
 C    2.1591987272   -0.9695469868   -1.1949875705
 C    1.0718262685   -2.0063926988   -1.4082280385
 H    1.1591199238    1.7504389717    0.1909341948
 H   -0.4089735267    1.9703407160   -0.6120344361
 H   -0.3375001132    1.7517966658    1.1398380874
 H    0.4433750127   -0.5907832807    0.8775794713
 H   -1.9923390633   -0.1782428631   -0.9613728229
 H    0.6232944988    0.9360251200   -2.4801133290
 H    2.7739210179   -0.7169361533   -2.0519526790
 H    2.6715701509   -0.9419442348   -0.2392361124
 H    0.8368546584   -2.6853806847   -0.5960205484
 H    0.9739756032   -2.4268034815   -2.4019052958