17

 C    0.1288861312    1.5076179912   -0.0821118835
 C   -0.0420332175    0.0225040801   -0.0549322850
 C   -1.2027180510   -0.6642243827    0.0501084365
 C   -2.5478825284    0.0089900538    0.1593230259
 C   -1.1865169135   -2.1430164140    0.0612541410
 O   -2.2040547310   -2.8199016342    0.1539649985
 C    0.1496517186   -2.7253473791   -0.0480280670
 C    1.2315449914   -1.9408377905   -0.1471671676
 O    1.1747109094   -0.5938306164   -0.1537220023
 H    0.7693037127    1.8331388228    0.7450305388
 H    0.6186861657    1.8183944312   -1.0115102298
 H   -0.8304940926    2.0170294216   -0.0041438597
 H   -2.7703014692    0.6302433075   -0.7145551066
 H   -3.3090915037   -0.7696783677    0.2312327577
 H   -2.6195690837    0.6456321062    1.0473727226
 H    0.2505161266   -3.8033085997   -0.0475143400
 H    2.2539127551   -2.2889390200   -0.2316179494