17

 N   -0.0492877060    1.3082863641   -0.2673080372
 C   -0.0055266112    0.0721809630   -0.0182441025
 O    1.1309879560   -0.6860147414    0.1384312172
 C    0.6741421520   -1.9867145246    0.5813313565
 C   -0.0344147655   -1.7575080414    1.9449468410
 N   -1.4339436554   -1.5153582755    1.4839036827
 C   -1.6385482970   -2.8048396888    0.7078201006
 C   -0.5899771890   -2.2686624051   -0.2757931852
 C   -1.1637472625   -0.8755821866    0.0892824545
 H    0.8941643768    1.6978077321   -0.3230528761
 H    1.5131283332   -2.6771886455    0.5324720125
 H   -0.0117855532   -2.6187582629    2.6164975414
 H    0.3756270327   -0.8872417309    2.4607811044
 H   -1.4452445210   -3.7193996545    1.2751319542
 H   -2.6451018731   -2.8324020217    0.2843539180
 H   -0.4424326446   -2.6147391325   -1.2990596556
 H   -2.0904243622   -0.5366143878   -0.3645572966