20

 C   -0.0059415225    1.5445029932   -0.1796113781
 C   -0.0331442663    0.0258041880    0.0355250886
 C   -1.4228807721   -0.5434994172    0.1136269943
 C   -2.4470350902   -0.1131715164    1.1869485119
 C   -3.4113685322   -1.2758044396    0.8646568375
 N   -2.6332167060   -2.5065423333    1.1911417355
 C   -1.7697621754   -2.1186072412    0.0728870675
 C   -2.9587791827   -1.4926825650   -0.6599043380
 O   -2.2304141112   -0.3531360483   -1.1009016499
 H    1.0214055863    1.9033629049   -0.2913184769
 H   -0.5619133494    1.8132767121   -1.0820530073
 H   -0.4564868215    2.0769218596    0.6640648858
 H    0.4996568115   -0.4719002690   -0.7836098609
 H    0.4964748235   -0.2380395777    0.9602737647
 H   -2.0857740041   -0.1572668623    2.2192747185
 H   -2.8411300553    0.8821662121    0.9722163433
 H   -4.4475670303   -1.2309929447    1.1962723600
 H   -2.1923605834   -2.4832647662    2.1109831283
 H   -1.0416549709   -2.8169120213   -0.3389373146
 H   -3.6212496578   -1.9589472376   -1.3850400301