17

 N   -0.1278124370   -1.1760215685   -0.0915776013
 C   -0.0735429443   -0.0234700378   -0.0210006247
 C    0.0016412184    1.4296651331    0.0298847243
 C   -0.2483884393    2.1228779139    1.3877339353
 N    0.8185245947    1.6789762635    2.3057214534
 C    1.0879025225    2.7763073573    1.3416698427
 C    1.4132051220    2.1000259035    0.0266141082
 C    2.7122789357    1.5262568137   -0.4341627430
 C    2.0905308996    2.6950109227   -1.1690994480
 H   -0.6331471064    1.8538901914   -0.7534351449
 H   -1.2023113907    2.4832709609    1.7491297959
 H    0.6254810652    2.1047852719    3.2122488723
 H    1.3912860630    3.7612157267    1.6739174499
 H    3.5898227444    1.7050578935    0.1775155084
 H    2.6878511289    0.5520814488   -0.9109588006
 H    1.6554178075    2.5146217411   -2.1469377890
 H    2.5462501260    3.6739977543   -1.0587574689