17

 N   -0.1025734949   -1.1630219737    0.1072330293
 C   -0.0467059043   -0.0211236612   -0.0587182876
 C    0.0369679245    1.4296854451   -0.2531951529
 C    1.4407252007    1.9502937301   -0.0876213433
 C    2.0924622935    2.2347649952    1.2338938310
 C    1.9670403983    3.3346809790    0.2082418333
 C    2.9207657739    3.1368366753   -0.9847131678
 C    3.7639918666    1.9256961251   -0.9275475511
 N    2.3427030793    1.7805405572   -1.3013308897
 H   -0.3266466911    1.6698523472   -1.2583414056
 H   -0.6315014357    1.9172810741    0.4649736018
 H    1.3783872464    2.3214256583    2.0479076052
 H    3.0420396693    1.8178253991    1.5479798101
 H    1.4274924314    4.2540638548    0.3933406902
 H    3.0226670968    3.8813346765   -1.7675422747
 H    4.4159685154    1.7484014200   -1.7781292904
 H    4.1417891100    1.5211080279    0.0035948123