17

 C   -0.7001844803    1.4193081070   -0.5252631651
 O   -0.6633722386    0.0185004439   -0.6643266113
 C   -0.7351086370   -0.6590521089    0.5811150870
 C   -0.7844857625   -2.1259672488    0.3248806047
 C   -0.2486676261   -3.1983855632    1.0030290918
 C   -0.6793610493   -4.3826333668    0.3408433365
 C   -1.4580570639   -3.9956682980   -0.7250555679
 N   -1.5279305260   -2.6262828620   -0.7145196633
 H   -0.6595109923    1.8491214224   -1.5289800460
 H   -1.6237913411    1.7572738861   -0.0285713654
 H    0.1567931968    1.7936609130    0.0561064553
 H    0.1340880462   -0.4217753187    1.2144946055
 H   -1.6322663600   -0.3116842204    1.1266285593
 H    0.3760478441   -3.1376987394    1.8815406386
 H   -0.4401897036   -5.3988547723    0.6138596530
 H   -1.9536207732   -4.5720536977   -1.4896298876
 H   -1.9417076731   -2.0436442362   -1.4218216050