21

 C   -0.4976757434    1.4405702181   -0.0615447472
 C    0.0474111190    0.0136896064   -0.0195194567
 C    1.1560157257   -0.2689276328   -1.0612758475
 O    2.0756662170   -1.1828873856   -0.4668463053
 C    1.5381741332   -1.6370266825    0.7712492977
 C    0.7012673745   -0.4681474027    1.3013129089
 C    1.5858579951    0.5982555899    1.9898556210
 C    2.1800926723    0.1161515451    3.2308868881
 C    2.6546611138   -0.3022900593    4.2532916214
 H    0.2933869633    2.1833584411    0.0821980049
 H   -0.9640704053    1.6454912374   -1.0309766835
 H   -1.2588751585    1.6014513517    0.7090061276
 H   -0.7856652570   -0.6721512494   -0.2169043383
 H    0.7421682416   -0.6936187608   -1.9860861600
 H    1.7031326295    0.6445458093   -1.3312138475
 H    0.9071529379   -2.5283723682    0.6228123254
 H    2.3715361584   -1.9098243071    1.4240809604
 H   -0.0544867123   -0.8083635370    2.0153106400
 H    2.3821049420    0.9094600816    1.3019373901
 H    0.9913436207    1.4938030852    2.2034775626
 H    3.0817864325   -0.6585263205    5.1576307979