19

 C    0.1156990874    1.4559933910   -0.0119999004
 N   -0.1501348742    0.0310806109   -0.1209140405
 C    0.5174031788   -0.6816510667   -1.1032828681
 N    1.1079820204   -0.1092082578   -2.1456877316
 N    1.5767097894   -1.1619051670   -2.8731907083
 C    1.3034270755   -2.3721523127   -2.3175306690
 C    1.7342874768   -3.6662316570   -2.9226170357
 C    0.6091768304   -2.1010525363   -1.1528298013
 N    0.1099733622   -2.9633821243   -0.1425249225
 H    1.1761943478    1.6923551618    0.1643732038
 H   -0.1786444157    1.9509646134   -0.9409897893
 H   -0.4818486948    1.8675140070    0.8054778724
 H   -0.1359402537   -0.4673277778    0.7594733621
 H    2.1145317614   -0.9740442918   -3.6999159546
 H    2.7977231082   -3.8774075874   -2.7542825544
 H    1.1623222147   -4.4922469620   -2.4895988720
 H    1.5633226603   -3.6801001023   -4.0046187593
 H    0.5580922225   -3.8716022879   -0.1602282781
 H   -0.8920832573   -3.1105311630   -0.2250931533