15

 N    0.0758524896   -1.1444480260    0.0186689435
 C   -0.0192534481    0.0115721553    0.0009136999
 C   -0.0718629906    1.4192888315   -0.0342092809
 C   -1.1317302124    2.2373376483   -0.0094559640
 C   -0.5509839760    3.6744753148    0.0235618380
 N    0.6772508893    3.5181102647   -0.8074953141
 C    1.1816345018    2.3683977784   -0.0142327201
 C    1.1934573448    3.0385363468    1.3727448933
 C    0.1322611586    3.8378865543    1.3982000407
 H   -2.1776407783    1.9708848717    0.0505015221
 H   -1.2195630955    4.4731317396   -0.2927327934
 H    0.4072968687    3.1846471267   -1.7336941569
 H    2.1125605368    1.9313871740   -0.3690999662
 H    1.9181991850    2.8306419650    2.1456929943
 H   -0.2461747737    4.4558765049    2.1987957238