15

 C   -0.0048791710    1.5207253722    0.0706109909
 C    0.0189565910    0.0328365578   -0.0067071996
 C    0.0357013172   -0.8038940959   -1.0961728649
 O    0.0331985987   -0.3876811531   -2.3876928165
 C    0.0557492797   -2.1583469186   -0.6228572305
 C    0.0502844108   -2.0997737329    0.7633916318
 N    0.0284883099   -0.7900230505    1.1113711072
 C    0.0765225644   -3.2973524623   -1.4543830406
 N    0.0929312111   -4.1856574038   -2.2006133000
 H    0.8727471017    1.9249680110    0.5902423230
 H   -0.0086793773    1.9294745118   -0.9419032015
 H   -0.8976596425    1.8968204116    0.5855340650
 H    0.0472750743   -1.1600615409   -2.9646458342
 H    0.0604580049   -2.8914067234    1.4932408749
 H    0.0201175671   -0.4522131129    2.0583885248