19

 C   -0.0106242600    1.3527592070   -0.0241712294
 O   -0.0406190062   -0.0653186450   -0.1303044673
 C    0.6793639791   -0.5978601261   -1.1630244325
 C    2.2026699596   -0.3112919647   -1.3159251230
 C    2.3611369706   -1.0812777069   -2.6160696762
 C    1.3512101321   -2.2376093718   -2.5815750482
 C    0.6106886798   -2.1366058725   -1.2574150251
 C    1.0124110668   -0.9436659738   -3.2881336934
 O    0.1643791113   -0.1833962807   -2.4557931498
 H    0.9840438145    1.7151492491    0.2658233246
 H   -0.3078853221    1.8260701943   -0.9652623704
 H   -0.7243722922    1.6168696617    0.7583217472
 H    2.4190358201    0.7540119026   -1.4288403235
 H    2.7772742282   -0.7178572863   -0.4796223469
 H    3.2888544101   -1.1347635759   -3.1696038521
 H    1.5152739516   -3.1687578489   -3.1062410727
 H    1.1192489146   -2.6219966967   -0.4209286611
 H   -0.4258955441   -2.4782802270   -1.3097390774
 H    0.8409420862   -0.8224147282   -4.3482485427