19

 C    0.0324759438    1.5009249453   -0.0370742806
 C    0.0335890470   -0.0019756256   -0.0246685486
 C    0.5945846494   -0.9645239624   -1.0847644598
 O    1.9899123871   -0.8690093375   -1.2628781403
 C    0.0380358897   -1.9159032380   -0.0005804713
 C    0.6046906071   -0.9556978997    1.1001808315
 C   -0.4166414279   -0.9421046754    2.2278917208
 O   -1.6458457046   -0.9428880588    1.4800481377
 C   -1.1828553531   -0.9658923689    0.1413108299
 H    1.0542279784    1.8930012920   -0.0704919034
 H   -0.5040151298    1.8865786350   -0.9111449951
 H   -0.4586936113    1.8998553414    0.8568532582
 H    0.0711450645   -0.9758710136   -2.0519269787
 H    2.2746730439   -1.6038861213   -1.8146166796
 H    0.0326145549   -3.0064695911    0.0156331370
 H    1.6672892020   -0.9497425298    1.3290364199
 H   -0.3680214150   -1.8284158839    2.8730931246
 H   -0.3600191150   -0.0457959629    2.8585343193
 H   -2.0205899411   -0.9748569648   -0.5554276216