11

 O    0.0434781052    0.0120409706    0.0023893227
 C   -0.0420060518    1.2004762541    0.0104637594
 N   -1.1589897148    2.0210456209    0.0298622391
 C   -0.7312020988    3.3510823584    0.0315886621
 C    0.6028633768    3.2978753329    0.0128495996
 O    1.1207013556    4.5349408225    0.0117068884
 C   -0.0285019851    5.3130210491    0.0317875197
 N   -1.1551572769    4.6554951778    0.0438713935
 O    1.1164808266    2.0549542557   -0.0013072284
 H   -2.0896734952    1.6420006829    0.0412030479
 H    0.1292012984    6.3774819852    0.0352259261