18

 C   -0.0086179015    1.5543789416    0.1894810650
 C    0.0042795733    0.0326400628    0.0429088097
 C    0.7173186255   -0.6337548065    1.2261323433
 O   -1.3629838098   -0.3585515582    0.0002056908
 C    0.7172511326   -0.3953008605   -1.2794103267
 C    0.0884607870    0.1176995206   -2.4825858235
 C   -0.4283713851    0.5444152891   -3.4880994528
 C   -1.0113463110    1.0248345055   -4.6248042033
 N   -1.5048228444    1.4333439188   -5.5942201049
 H    1.0091901477    1.9540190691    0.2176019038
 H   -0.5431283270    2.0135101037   -0.6453659321
 H   -0.5183441067    1.8302904762    1.1159532215
 H    0.2068535655   -0.3747297910    2.1572989127
 H    0.7103944407   -1.7258585873    1.1247258793
 H    1.7608213146   -0.3123577364    1.3019190091
 H   -1.4088309741   -1.3207662498    0.0223202725
 H    1.7652589173   -0.0709359685   -1.2513869780
 H    0.7365202356   -1.4926172892   -1.3296532365