12

 O   -0.0819948409   -0.1086623335   -0.0025488192
 C   -0.0325425368    1.0896824251    0.0037656047
 C    1.2565884226    1.9145466796    0.0001344873
 C    2.4583429341    1.0929527284   -0.0139229810
 N    3.4214761659    0.4569295256   -0.0250740279
 C   -1.3159006631    1.9545096128    0.0168737157
 O   -1.2319230105    3.1634376656    0.0227397779
 C   -2.5578278201    1.2273965551    0.0211998470
 C   -3.5993147130    0.6244494677    0.0248170978
 H    1.2397896555    2.5882421376   -0.8645015430
 H    1.2520980784    2.5762125136    0.8742001624
 H   -4.5203395021    0.0920372324    0.0276125283