15

 O    0.0419312803    1.4402754331    0.1836831380
 C    0.0479683021    0.0500723221    0.0761079557
 C   -1.3074468461   -0.6554690027   -0.0014722108
 O   -1.9135159721   -0.1936755436   -1.2210923814
 C   -0.9717444714   -1.2995552656   -1.2960988518
 C   -1.3868140855   -2.5299093453   -1.8717540006
 C   -1.6817301113   -3.5809355299   -2.3756887075
 C    0.4065602402   -0.6068697366   -1.3381567751
 O    0.6446270007    0.2381813439   -2.4190456607
 H   -0.6106852046    1.7741360820   -0.4428434764
 H    0.6914346656   -0.3379026569    0.8692274384
 H   -1.9779280423   -0.9976313291    0.7784573246
 H   -1.9526290778   -4.5080970196   -2.8176173561
 H    1.2440615690   -1.3036558041   -1.2675750500
 H   -0.1774386867    0.7108185221   -2.5978870566