23

 C   -0.4959786171    1.1505642954    0.3405098351
 O    0.0254971743   -0.1612355122    0.2690973708
 C    0.5472520334   -0.4963120059   -1.0013876075
 C    1.3837634974   -1.7759409834   -0.8545094736
 C    2.5727548715   -1.6548752150    0.1176519204
 C    3.1777926839   -3.0410107626    0.3779680554
 C    3.6450640917   -0.6820312634   -0.3910506763
 C   -0.5851524583   -0.7667853296   -1.9888179545
 O   -0.4904485394   -0.6622201073   -3.1833353957
 H    0.2775361424    1.9038393364    0.1283395202
 H   -1.3284759420    1.3079089348   -0.3617587588
 H   -0.8649365691    1.2956253563    1.3582444097
 H    1.1635691049    0.3204480538   -1.4060143977
 H    0.7167086110   -2.5757474782   -0.5081573524
 H    1.7374985071   -2.0630838912   -1.8524567027
 H    2.1778866861   -1.2686837641    1.0644370333
 H    4.0044100744   -2.9807452307    1.0934059792
 H    2.4325261463   -3.7330723573    0.7838286640
 H    3.5715094058   -3.4797974077   -0.5469236051
 H    3.2557745224    0.3318179786   -0.5249706247
 H    4.4782317993   -0.6200897565    0.3165278163
 H    4.0516212096   -1.0139271270   -1.3541104038
 H   -1.5222587457   -1.1156184132   -1.4935100413