16

 N   -0.0605326899   -1.2053774260   -0.1557913519
 C   -0.0338136582   -0.0552098856   -0.0448352663
 C   -0.0094293635    1.4047787023    0.0559475622
 C   -0.6557303941    1.9453265399    1.3795352329
 C    0.5565195717    2.4077596455    2.1764201135
 O    1.4232258632    1.2414913981    2.3746557489
 C    2.2504169778    1.7007101148    1.3081623260
 C    1.5549391310    3.0186023962    1.1684338497
 C    1.4181412791    1.9792012212    0.0736198799
 H   -0.5480733451    1.7948153830   -0.8132986474
 H   -1.3208916496    2.7867507236    1.1600939977
 H   -1.2242162259    1.1774769639    1.9077722712
 H    0.3573624225    2.9257233981    3.1153182929
 H    3.2917268000    1.4034467901    1.3010936014
 H    1.8973039434    4.0387805145    1.0716259170
 H    1.9467029276    2.1151082305   -0.8623239176