14

 O    0.4235526771    1.4626344589   -0.1942625795
 C    0.0612809627    0.1241341393   -0.0056670325
 C    0.4086797889   -0.7087721180   -1.1842305863
 N    0.6472396129   -1.4040971526   -2.0754115490
 C    0.7363470309   -0.4243637011    1.2309971020
 N    1.3884298753    0.3506673911    2.0628208367
 C    1.8548614849   -0.4814325005    3.0569985834
 C    1.4733099643   -1.7715113384    2.8085316687
 N    0.7517308302   -1.7212936141    1.6329834615
 H    1.0266381764    1.6748445973    0.5389178634
 H   -1.0332258312    0.0532379857    0.1076631970
 H    2.4325910867   -0.1019257119    3.8848285799
 H    1.6390783820   -2.6961773386    3.3351091286
 H    0.3707322588   -2.5068282772    1.1304259259