18

 C   -0.0600116267    1.4645933395    0.1885745906
 N    0.0569925409    0.0275863430   -0.0192685180
 C    0.6313251296   -0.7477683319    0.9734575814
 C    0.7537840885   -2.1049276422    1.1077645711
 C    0.2606230055   -3.1743155360    0.1844762549
 C    1.4986820499   -2.2782503616    2.3288541172
 O    1.8811708319   -3.4612712372    2.8829574059
 C    1.7788916256   -1.0493374837    2.8299364057
 O    1.2328860908   -0.0932492546    1.9875711930
 H    0.9328525623    1.8942839968    0.3392047370
 H   -0.4940563064    1.9094478177   -0.7097672655
 H   -0.6792781250    1.7374609603    1.0554618756
 H   -0.7776630350   -0.3923817174   -0.4010724009
 H    0.9888285441   -3.9907436918    0.0886402211
 H   -0.6883633030   -3.6259608281    0.5049334454
 H    0.1097633834   -2.7795025463   -0.8256798330
 H    1.5206491624   -4.1769739054    2.3511896726
 H    2.3162338311   -0.6857917111    3.6857117859