19

 O    0.0373158861    1.3972037142    0.1157214173
 C    0.0164060547    0.0001578603    0.0035639398
 C   -1.4407193816   -0.5036759223    0.0865476073
 C   -1.6145163993   -2.0341032713    0.0666456448
 C   -1.4139522294   -2.6514442265   -1.2980492240
 C   -0.2833260145   -2.5896600603   -1.9996741009
 C    0.9836500658   -1.9067028076   -1.5189121805
 C    0.7506306071   -0.4251983917   -1.2708818909
 O    1.1466690047    0.4294956706   -2.0355998783
 H    0.4562761861    1.7092879101   -0.7033281206
 H    0.5750721073   -0.4501459833    0.8446559987
 H   -1.8447578207   -0.0972027310    1.0196767306
 H   -2.0104682747   -0.0488722569   -0.7308708958
 H   -0.9188839139   -2.4848166719    0.7910478488
 H   -2.6181927494   -2.2760879346    0.4271502145
 H   -2.2668864429   -3.1633286401   -1.7361062901
 H   -0.2386506131   -3.0347329022   -2.9887769803
 H    1.3333973956   -2.3716058248   -0.5874103904
 H    1.7770262924   -1.9951817510   -2.2627990600