25

 C   -0.3152142136    1.5641051852   -0.0179423895
 C   -0.0492077503    0.0398112055   -0.0013473857
 C   -1.4121624747   -0.6854858374    0.0301325035
 C    0.6724523331   -0.4058389875   -1.2977134658
 C    2.0495944465    0.1899253797   -1.6163560074
 C    3.1913878846   -0.2965364650   -0.7181677944
 C    3.1512956492    0.2294453961    0.7230116057
 C    1.9930743513   -0.2254170280    1.5786943302
 C    0.6959988358   -0.3113168970    1.2781238925
 H    0.6132834521    2.1406889828   -0.0093628123
 H   -0.8859331359    1.8487971308   -0.9099900700
 H   -0.8942472583    1.8638273380    0.8614764748
 H   -2.0084011355   -0.4400778733   -0.8550964345
 H   -1.2797491061   -1.7725384009    0.0571354541
 H   -1.9913482200   -0.3967599592    0.9139973040
 H    0.7636962067   -1.5000931186   -1.2784312413
 H   -0.0005883870   -0.1725373097   -2.1334111009
 H    2.2909085814   -0.0738113461   -2.6536130810
 H    2.0073367636    1.2867297720   -1.5925387693
 H    3.1965411197   -1.3944243027   -0.7008085983
 H    4.1453855081    0.0109752792   -1.1640021144
 H    4.0813205761   -0.0625581705    1.2240552980
 H    3.1721154962    1.3302742806    0.6970655318
 H    2.2656622731   -0.4887339987    2.5996179760
 H    0.0400701639   -0.6334848253    2.0866478040