29

 C   -0.0398112807    1.6542555736    0.0628818029
 C   -0.0127052023    0.1339339891   -0.1207969264
 C   -1.3632823151   -0.5267810091    0.1851022995
 C   -1.3875955037   -2.0642803041    0.0255970275
 C   -0.6514245797   -2.7177459661    1.2073257027
 C   -2.8427783258   -2.5870758111   -0.1633314121
 C   -3.3870815962   -2.1932384381   -1.5477271475
 C   -2.9721746633   -4.1097031510    0.0510393353
 C   -4.3985644628   -4.6582951334   -0.0768832743
 H    0.9308463620    2.1033224530   -0.1703917387
 H   -0.7871585888    2.1193381171   -0.5899538189
 H   -0.2917768235    1.9241084820    1.0946480829
 H    0.2759037263   -0.1040879258   -1.1533462828
 H    0.7717874624   -0.2903201895    0.5173442309
 H   -1.6658278390   -0.2771831266    1.2126824217
 H   -2.1165276890   -0.0670715686   -0.4644782837
 H   -0.8349315091   -2.3170882363   -0.8927117865
 H   -0.4749170272   -3.7844946990    1.0505230955
 H    0.3249465552   -2.2504350486    1.3652333592
 H   -1.2228542397   -2.6039338586    2.1367911147
 H   -3.4657366365   -2.0974136855    0.6022975758
 H   -4.4553605943   -2.4066731698   -1.6376820683
 H   -3.2545295540   -1.1293324084   -1.7596556162
 H   -2.8686849041   -2.7530386794   -2.3361943238
 H   -2.3169221493   -4.6294947591   -0.6628481441
 H   -2.6009427728   -4.3673909480    1.0474563056
 H   -4.7891145157   -4.5732210922   -1.0949607440
 H   -4.4298604707   -5.7178451749    0.1966635419
 H   -5.0877564427   -4.1254895516    0.5888518513