14

 C   -0.1022119194   -1.2927068498   -0.0813407841
 C   -0.0450002298   -0.0939867133   -0.0458466668
 C   -0.0024634013    1.3632110852    0.0451738101
 C   -0.5059116425    1.9010212119    1.4494543526
 N    0.6549643077    2.5602017879    2.0436907823
 C    1.5982915096    2.4435121362    1.2105164440
 O    1.4000651724    1.7979868637    0.0337809720
 C   -0.6985581112    1.9872160781   -1.0771396129
 C   -1.2989128457    2.5184261560   -1.9709255863
 H   -0.1482883588   -2.3530903579   -0.1273790299
 H   -1.3288668474    2.6081338791    1.3216821948
 H   -0.8479412818    1.0772814617    2.0803765221
 H    2.6056862492    2.8234841892    1.3387539616
 H   -1.8231746509    2.9799417519   -2.7714321495