23

 C   -0.1084911390    1.4880469841    0.2500824114
 C   -0.4028700259    0.0448103461    0.6661218297
 C   -1.3325980596   -0.6626388922   -0.3097734559
 O   -1.5530264349   -1.9827379639    0.1441370406
 C   -2.4027129873   -2.7301148908   -0.6981327766
 C   -2.4958193069   -4.1430972586   -0.1594543830
 C   -1.1983310083   -4.9123735289   -0.0960106947
 C   -3.6209717967   -4.4897129297    0.7190480496
 O   -3.6297614070   -4.8610968165   -0.6638703962
 H    0.5599612439    1.9745337493    0.9660586778
 H    0.3718051342    1.5303717952   -0.7337265971
 H   -1.0265422120    2.0835348554    0.1959486739
 H    0.5285747375   -0.5286024442    0.7369171365
 H   -0.8606040375    0.0212649774    1.6616962047
 H   -2.2915733111   -0.1210374689   -0.3876472222
 H   -0.8907009350   -0.6764175865   -1.3215305781
 H   -3.4103767096   -2.2884056270   -0.7471259053
 H   -2.0041841980   -2.7542286374   -1.7275887087
 H   -0.4763390780   -4.3769167609    0.5262565635
 H   -1.3576731525   -5.9119240742    0.3152425663
 H   -0.7688239897   -5.0178286584   -1.0985510817
 H   -3.5184649091   -5.3156608828    1.4214973069
 H   -4.3438642077   -3.7262477165    1.0036336685