19

 C    0.0094957193    1.6287135531   -0.3343620101
 C    0.0418866595    0.1238321904   -0.1215299143
 C    1.1076924508   -0.6897327387   -0.8752413536
 O    2.3855760006   -0.2891641470   -0.3560635039
 C    1.6300091880   -1.2709587809    0.3687996398
 C    0.6273784880   -0.4711686266    1.2150051118
 C    1.0629559601    0.3363319322    2.4482589163
 C    0.1068554798   -0.5964429623    3.2163917259
 O   -0.3027421183   -1.2476718128    1.9906324694
 H    1.0125127242    2.0520185442   -0.2296791038
 H   -0.3615731051    1.8764148674   -1.3348154607
 H   -0.6492393718    2.1179630206    0.3910682729
 H   -0.9475169941   -0.3275946938   -0.2529979816
 H    1.0883334827   -1.0875259136   -1.8835480100
 H    2.0960492579   -2.2273173740    0.5782330352
 H    2.1220584869    0.2675604018    2.7006386960
 H    0.7668294986    1.3866124622    2.4323657847
 H    0.5851470169   -1.2996326867    3.9086090379
 H   -0.7390401840   -0.1180787757    3.7223359182