20

 C   -0.0040752396    1.5576459671    0.1882947037
 C   -0.0179228926    0.0391596981   -0.0000859722
 C    0.6760306576   -0.4528000800   -1.2882811259
 C    0.8143951786   -2.0047908704   -1.3216339502
 C   -0.0104858703   -2.4385928021   -2.5038813548
 C   -0.5198627303   -1.4034443833   -3.1833363143
 C   -0.1090993115   -0.1447499052   -2.5629209250
 N   -0.3085712622    1.0550483521   -2.9625188460
 O   -1.0603686076    1.0830242563   -4.1544251268
 H    1.0236265872    1.9334348628    0.2512597372
 H   -0.4895794139    2.0640199230   -0.6484476247
 H   -0.5188022751    1.8377387050    1.1129759434
 H    0.4839222451   -0.4363158876    0.8523508286
 H   -1.0510306176   -0.3325998181    0.0061034597
 H    1.6621608085    0.0201863430   -1.3465096244
 H    1.8588728919   -2.3234639569   -1.4320965363
 H    0.4561199356   -2.4643745677   -0.3917220101
 H   -0.1542536069   -3.4828785908   -2.7596735263
 H   -1.1351216858   -1.4480738712   -4.0701246349
 H   -1.1149737811    2.0270907561   -4.3336724409