17

 N    0.0729722137    1.1255163023    0.6355096995
 C   -0.1259221856    0.1136324518   -0.2568366967
 O    0.4842368985    0.0228459422   -1.3017161540
 C   -1.1869282056   -0.9103199605    0.1080148771
 N   -0.7121621385   -2.1615677958    0.7110723158
 C   -1.6481905291   -1.3234391223    1.4686259937
 C   -1.1360619915   -0.7693734253    2.7604192379
 C   -1.9763065291    0.0914008827    3.6132774962
 O   -1.7624355381   -1.2796183904    3.9388342266
 H    0.7264473585    1.8505640757    0.3858459924
 H   -0.5266159594    1.2631688220    1.4295715102
 H   -1.9248610028   -0.9930225205   -0.6880527873
 H   -1.1739346440   -2.9652466773    0.2959229027
 H   -2.6883888944   -1.6407288233    1.5369264087
 H   -0.0530088297   -0.6819646708    2.8266458485
 H   -1.5110889872    0.8123504928    4.2846490252
 H   -2.9873743258    0.3425633765    3.2931740336