21

 C   -0.3539940119    1.3400353558    0.0380391722
 C    0.0703874908   -0.1270832697   -0.1112904856
 C    0.9448863965   -0.3319228089   -1.3603255156
 O    0.3057900581    0.0842949284   -2.5592926497
 C    0.8028146577   -0.6381767764    1.1151775801
 C    0.0571015893   -1.1947527836    2.3183819977
 O   -1.3280071205   -1.4105602033    2.2414836110
 C    0.8467025141   -2.1228583243    1.4356340416
 O    0.1303855610   -3.0167799467    0.6392321268
 H    0.5118697672    1.9774589247    0.2524744673
 H   -0.8119961359    1.6976202548   -0.8873416171
 H   -1.0705465230    1.4766472091    0.8560208506
 H   -0.8280716957   -0.7407779081   -0.2530041569
 H    1.8525546051    0.2790451593   -1.2828393340
 H    1.2534128563   -1.3844829372   -1.4146816264
 H   -0.4023562278   -0.5413838525   -2.7421965047
 H    1.7030678730   -0.0793698913    1.3655430752
 H    0.4185729946   -0.9598926426    3.3176343082
 H   -1.7705174058   -0.5661209095    2.1081521105
 H    1.7721369924   -2.5490566828    1.8124974538
 H   -0.7886362958   -2.9616693951    0.9362046749