12

 N   -0.0101942992   -1.0893653012   -0.0043054549
 C    0.0180374123    0.0640476035    0.0019879208
 C   -0.0049707407    1.5244881625    0.0105948110
 O    1.3542879939    1.9857246867   -0.0014899416
 C    1.5296379106    3.2962289890    0.0036576109
 N    2.6750463912    3.9053179155   -0.0056655193
 C    2.2650485132    5.2135226620    0.0058470733
 N    0.9766296577    5.4207847447    0.0215339446
 O    0.4599527603    4.0960276937    0.0198831015
 H   -0.5418651299    1.8951445873   -0.8689302675
 H   -0.5226280247    1.8849836367    0.9057394296
 H    2.9548848755    6.0455007795    0.0028206116