19

 C   -0.1964620832    1.4512010671   -0.0700736492
 C   -0.0247465415   -0.0515369192    0.0365614285
 O   -0.0060314890   -0.6365118587    1.0992101140
 C    0.1173802515   -0.7525799800   -1.2248294779
 C    0.2339286203   -1.3313923252   -2.2784390899
 C    0.3859600018   -2.0669408360   -3.5286606706
 C    0.2023957629   -3.5695920118   -3.3721381149
 C   -1.1750522119   -4.1725056142   -3.4325141028
 C   -0.1999517290   -4.3997098252   -4.5629467326
 H    0.6647548277    1.8924325690   -0.5834234266
 H   -1.0811890641    1.6869911323   -0.6712927384
 H   -0.2968962813    1.8800115021    0.9280932593
 H   -0.3326647202   -1.6824199731   -4.2649571338
 H    1.3807364204   -1.8507308119   -3.9427484532
 H    0.8971757374   -4.0239332729   -2.6726861101
 H   -1.4035362912   -5.0000943676   -2.7709057308
 H   -2.0123583240   -3.5059865675   -3.6123831142
 H   -0.3843937012   -3.8870263436   -5.5017322522
 H    0.2425664947   -5.3828789038   -4.6766100945