18

 C    0.0146661140    1.4998340313    0.3408754795
 O    1.3473411552    1.6452861600   -0.2047932853
 C    1.4243285604    0.2296966016   -0.5032136553
 C   -0.0324717963    0.0059582824   -0.0413008115
 C   -0.6408482769   -0.3540691388   -1.3853849063
 C   -0.0299331589    0.4906969576   -2.5381241351
 C   -0.1281933369   -0.7835165564   -3.3857502081
 N    0.3543611792   -1.3520940130   -2.0482507652
 C    1.2862461139   -0.1051558751   -1.9793412193
 H    0.0028462347    1.6944882355    1.4200511155
 H   -0.7099839679    2.1598311653   -0.1512858655
 H    2.2559497747   -0.2608252732    0.0097134625
 H   -0.2448013942   -0.7118588028    0.7501897457
 H   -1.6877238094   -0.6598641328   -1.4323599918
 H   -0.2401344139    1.5297125833   -2.8114052294
 H   -1.1211967117   -1.1385947437   -3.6769769577
 H    0.5878433034   -0.9186806499   -4.2013099667
 H    2.1772140705   -0.1626631313   -2.6063749761