23

 C   -0.0705271763    1.5784495798   -0.0438300423
 C   -0.0056384009    0.0433153720   -0.0275474668
 C    0.6862036372   -0.5072183694   -1.2850832174
 C    1.0063778274   -1.9977423013   -1.1379845143
 C    1.9591329231   -2.2332907349    0.0413672944
 C    1.5455810474   -1.4587791054    1.2727697193
 C    2.2034655126   -1.9028821790    2.5518294296
 O    1.8385767104   -1.0637084260    3.6310808839
 C    0.6630014042   -0.4599112993    1.2299417394
 H    0.9360303093    2.0112644996   -0.0337620752
 H   -0.5855395127    1.9402223954   -0.9404535787
 H   -0.6066909902    1.9619384607    0.8305339188
 H   -1.0458574164   -0.3226863035   -0.0247486651
 H    0.0580438091   -0.3299596366   -2.1657580282
 H    1.6204273081    0.0479872193   -1.4495395270
 H    0.0747440453   -2.5527184600   -0.9675216027
 H    1.4442592955   -2.3940367238   -2.0606536850
 H    2.0118305975   -3.3055047277    0.2764730369
 H    2.9840682753   -1.9480916511   -0.2419360067
 H    1.9199494365   -2.9524553838    2.7508309798
 H    3.2991252275   -1.9081701145    2.4035154362
 H    2.2297227372   -1.4221707842    4.4321596518
 H    0.4036801530    0.0424541038    2.1575748492