14

 N   -0.0024690429    1.3682800337    0.0893380770
 C   -0.0321425748    0.0174136647   -0.0011396448
 N   -1.1419160341   -0.6344603615    0.0138178790
 C   -1.1335947580   -1.9953097147   -0.0204206326
 C   -2.1930222744   -2.8680876938   -0.0616863417
 N   -3.5546507118   -2.6102452124   -0.1584521048
 N   -1.6772267766   -4.1318533451   -0.0677979591
 N   -0.4085580100   -4.1019073870   -0.0346959646
 O   -0.0058044554   -2.7414980709   -0.0103827594
 H    0.8431010885    1.8673019502   -0.1220425707
 H   -0.8739295170    1.8707423713    0.0271648642
 H    0.9502341296   -0.4573958111   -0.0585851885
 H   -3.7885599346   -1.6830595018    0.1713806264
 H   -4.1152338983   -3.3151988915    0.3021787796