18

 C    0.4368505242    1.5195764443   -0.0617882849
 C    0.1215274431    0.0486977989    0.0799759411
 O    0.8740708465   -0.8085091795   -0.8376085891
 C    1.2896767172   -1.6768606920    0.2309352264
 C    2.6451154574   -1.2879717374    0.8548984679
 C    3.7310144237   -0.7005812826   -0.0161954291
 O    1.9777038404   -0.3057156367    1.7109485901
 C    0.6750192420   -0.7403990304    1.2836178202
 H    1.4735983759    1.7179330231    0.2169847438
 H    0.2738947836    1.8401972846   -1.0952210599
 H   -0.2193059390    2.1111248999    0.5858155997
 H   -0.9533598766   -0.1397722798   -0.0572662172
 H    1.0575021511   -2.7276560083    0.0486595511
 H    3.0393160754   -2.0993703099    1.4841657912
 H    3.3065239975    0.0004226490   -0.7375186719
 H    4.4673273387   -0.1790234124    0.6028006764
 H    4.2483940792   -1.4959597678   -0.5635100052
 H    0.0137917296   -1.0019258731    2.1116771294