15

 C    0.2268415023    1.4550929506    0.0504747184
 N   -0.2893632057    0.1229792464   -0.2577684443
 C    0.4192039431   -0.6737151349   -1.1272852407
 C    0.6809402755   -2.0111694588   -1.1568963629
 N    0.3139655797   -2.9370289708   -0.1547376054
 N    1.3618334659   -2.3023977698   -2.3412546063
 C    1.4837947858   -1.1673691390   -2.9350975981
 O    0.9246883144   -0.1138897296   -2.2609457182
 H    1.2137034204    1.4425586757    0.5372634290
 H    0.3074466172    2.0335270076   -0.8721896791
 H   -0.4834176260    1.9615175738    0.7078070994
 H   -0.5338892974   -0.4201096051    0.5612348379
 H   -0.3816389260   -3.5940994696   -0.4985546573
 H    1.1153053951   -3.4932252826    0.1298688667
 H    1.9702587059   -0.9307018741   -3.8671992092