19

 C    0.0555488672    1.5211280436   -0.1634262969
 N    0.0436236491    0.0677746552   -0.0308959666
 C   -1.0903297291   -0.5030981513    0.7534838255
 C   -0.2489268125   -1.7427428462    1.1738713348
 C   -0.6353301484   -1.5990653256    2.6577205239
 C   -0.5248337044   -0.1397641025    2.1745580946
 C    0.6852050018   -0.4864521282    1.2105509272
 C    2.1591265016   -0.4173992013    1.4794795255
 H    1.0419293838    1.8468749647   -0.5102858718
 H   -0.6749639725    1.8180802796   -0.9235852387
 H   -0.1784029186    2.0689112340    0.7655621146
 H   -2.1268837042   -0.4786721954    0.4120186912
 H   -0.0857131248   -2.6341886643    0.5680448739
 H   -1.6342397344   -1.9463229702    2.9384767522
 H    0.1012857381   -1.9324404373    3.3952350338
 H   -0.6843969899    0.7735702705    2.7480424016
 H    2.4073143301   -0.9431578147    2.4073577511
 H    2.7201698303   -0.8796453549    0.6608381969
 H    2.4965004770    0.6197943442    1.5812706673