21

 O    0.6125943230    0.6387905010   -0.8215662102
 C    0.0986248918   -0.3254533818    0.0614656001
 C    0.0481441444   -0.0110051169    1.5900740830
 C   -1.3731099400   -0.5946119315    1.6197732773
 C   -1.8357683862   -1.7206391577    2.5001539180
 C   -2.4707794481   -0.3514612373    2.6093067739
 C   -1.4230719325   -0.5686537263    0.1021323163
 C   -2.4084370069    0.1765366966   -0.7567618951
 C   -2.2847691117   -1.3274788417   -0.8547799200
 H    0.1302957749    1.4589556123   -0.6681353700
 H    0.6565399932   -1.2428919660   -0.1484878793
 H    0.8041273833   -0.4856313631    2.2208295133
 H    0.0652838563    1.0700943767    1.7703710549
 H   -2.4181518175   -2.5174901283    2.0478972740
 H   -1.1796663938   -2.0467178869    3.3012225507
 H   -2.2477416420    0.2514774820    3.4840660747
 H   -3.4829790548   -0.2291293915    2.2347366472
 H   -3.2934741873    0.5916091802   -0.2848916856
 H   -2.0130964917    0.7667331677   -1.5781631185
 H   -1.8187643746   -1.7455914713   -1.7417468578
 H   -3.0911831800   -1.9312745262   -0.4483952470