16

 C    0.0807905367   -1.1511512168    0.0989019431
 C   -0.0162048595    0.0486727543    0.0414336466
 C   -0.0746260725    1.4568474453   -0.0346737967
 C   -1.1537230759    2.2556993366   -0.0988755877
 C   -0.6874166273    3.6807012749   -0.0084630216
 C   -0.1624445027    3.9454786981    1.4452333234
 C    1.1928777437    3.5114740068    0.9180426095
 C    1.1391769328    2.3394148396   -0.0244430760
 N    0.7633596584    3.6787149514   -0.5203426537
 H    0.1498812608   -2.2092631579    0.1533164309
 H   -2.1887377683    1.9430660292   -0.0601048284
 H   -1.3202708803    4.4403505795   -0.4638631584
 H   -0.1544584984    5.0150419719    1.6655791425
 H   -0.6229550211    3.3984295448    2.2728762213
 H    2.1485512939    3.8826905155    1.2760451583
 H    2.0853917898    1.9523028367   -0.3879636432