19

 O   -0.3088384693    0.1066011187   -0.1187227738
 C   -0.0733066401    1.2740866862    0.0523681806
 C    1.3104499443    1.8941525076    0.0721296056
 C    1.4945334416    2.7135585326   -1.2334413084
 C    2.7187307537    3.6265840970   -1.1973829591
 C    2.5452305724    5.1060559487   -0.9470018936
 C    3.1182586748    4.2119086653    0.1351281970
 C    2.3068653868    3.8225827431    1.3129143996
 C    1.4877137078    2.7703531174    1.2961872384
 H   -0.8987272453    2.0133544258    0.1931843944
 H    2.0276017777    1.0636237822    0.0917824309
 H    1.5622661999    2.0253591746   -2.0812855826
 H    0.5890682563    3.3125358788   -1.3917820454
 H    3.5273770005    3.3406056474   -1.8615839244
 H    3.2166818484    5.7996246474   -1.4417257183
 H    1.5333690727    5.4742804742   -0.8106447677
 H    4.1808888176    4.3342832721    0.3283948922
 H    2.4160451229    4.4127738657    2.2198617697
 H    0.9305697671    2.5008038451    2.1900713247