21

 C   -1.1972297384    0.3546970262    0.3987875874
 C   -0.3611682237   -0.8885286591    0.6358311181
 C    0.9836627993   -1.2382495229    0.0249234106
 C    1.9495660421   -0.1648206120   -0.4233916007
 O    1.5509330417    1.1979768878   -0.1900524142
 C    2.4444929594    0.5818575986    0.7440473739
 C    1.7897654511    0.0345754203    2.0118838595
 C    1.1781703163    1.1039671764    2.9260946988
 C    0.8405917484   -1.0837888788    1.5366294428
 H   -1.7433637462    0.2587874462   -0.5468393468
 H   -1.9430779697    0.4578657435    1.1955239253
 H   -0.6024674779    1.2617690905    0.3460794961
 H   -0.9962769605   -1.7735872296    0.6793013667
 H    1.1057546715   -2.2087925785   -0.4444822709
 H    2.5379030124   -0.3175440247   -1.3242902617
 H    3.4299324841    1.0414747845    0.7998795030
 H    2.5942783511   -0.4660886622    2.5691807602
 H    0.4123138407    1.6800655778    2.4029184899
 H    0.7153893653    0.6444699379    3.8049321587
 H    1.9443826167    1.8025424978    3.2791266316
 H    0.8105638463   -1.9619577296    2.1745357217