22

 C   -1.5161914687    0.2671353438   -3.4717054635
 C   -0.8289044968   -0.3354543894   -2.2384460773
 C   -1.8351560791   -0.8082870559   -1.2057774030
 N   -2.4521122221   -2.1231628700   -1.1840671095
 C   -2.1109424208   -3.1412354690   -2.1673288641
 C   -1.4891518404   -1.7981612517   -0.1101555382
 C   -0.1207488248   -2.4328315144    0.0158387858
 C   -2.1927532321   -1.5694396777    1.1930420846
 O   -1.6769370765   -1.6593693919    2.2792432621
 H   -0.7775406940    0.6381596452   -4.1883674556
 H   -2.1385356073   -0.4744028371   -3.9825470378
 H   -2.1627029197    1.1056412807   -3.1921447046
 H   -0.1644619775   -1.1453587735   -2.5494987277
 H   -0.1889371155    0.4223706373   -1.7693045664
 H   -2.5416194677   -0.0194430881   -0.9359378538
 H   -1.0643557451   -3.1541449186   -2.4992034849
 H   -2.3415481953   -4.1239735334   -1.7450260148
 H   -2.7459755248   -2.9988407550   -3.0475151936
 H    0.4764720723   -2.3603542665   -0.8928046745
 H    0.4204639547   -1.9414048354    0.8279729763
 H   -0.2095260436   -3.4907159145    0.2846691026
 H   -3.2641154755   -1.2961801849    1.0673792378