14

 C   -0.0296345073    1.4962114352   -0.0056789203
 C   -0.0070600756   -0.0008594166   -0.0221698379
 C   -0.0399914922   -0.7253090858   -1.1444871981
 O   -0.0188508434   -2.0979941025   -1.1467784065
 C    0.0375530737   -2.6835217673    0.0575134493
 O    0.0518331184   -4.0029981515   -0.0997009012
 N    0.0740891768   -2.1236913082    1.2054076315
 C    0.0551226989   -0.7193330453    1.2751819317
 O    0.0877957862   -0.1329102711    2.3355149547
 H    0.8604254900    1.8825756150    0.5004996602
 H   -0.0747933843    1.9133360875   -1.0150914629
 H   -0.8899016453    1.8555222583    0.5675285979
 H   -0.0856623137   -0.3423382848   -2.1554665063
 H    0.0927451580   -4.3767341228    0.7923761081