25

 C   -0.1720984080    1.4840076796    0.0712634374
 C    0.0134055324   -0.0301619489    0.0247600913
 C    1.1237588106   -0.5109554906   -0.9625938784
 C    2.1041663529   -0.5611759443    0.2457856862
 C    0.8739138681   -0.6033841864    1.1967815624
 C    0.4723491238   -2.0135329412    1.6544211919
 C    0.6994276380   -3.1525488455    0.6411717059
 C    0.1155782683   -2.9186981477   -0.7611832612
 C    0.8509867227   -1.8717678255   -1.6220476874
 H    0.7834336405    2.0040425708    0.2041935437
 H   -0.6233575664    1.8552088268   -0.8558178943
 H   -0.8250187269    1.7767072541    0.9013358182
 H   -0.9654248550   -0.5046407238   -0.1040361371
 H    1.3924930487    0.2121396889   -1.7402980462
 H    2.8114159446   -1.3941703454    0.2885807607
 H    2.6707665366    0.3676763525    0.3490478579
 H    0.9312578682    0.0528469498    2.0720381019
 H    1.0254801240   -2.2611614954    2.5695596279
 H   -0.5891384481   -1.9932094438    1.9391104364
 H    1.7735457748   -3.3595630739    0.5514821981
 H    0.2587793852   -4.0653292627    1.0601068617
 H    0.1229708929   -3.8677962800   -1.3106464260
 H   -0.9426823980   -2.6430748122   -0.6665196693
 H    0.2631560149   -1.7122053017   -2.5352687221
 H    1.8121209854   -2.2906809535   -1.9510832193