18

 C   -0.0526963019    1.5731962847   -0.0417368584
 C    1.4900904489    1.4041815790    0.0186099339
 C    1.2448209088    0.1589943104    0.9129679213
 O    2.2823528705   -0.7719262211    0.7170435832
 C    2.4947913634   -0.7888281025   -0.6951052606
 C    1.3318925206   -1.5367117998   -1.3561220233
 N    0.5200605813   -0.2706837290   -1.3567199211
 C   -0.0347848459    0.0272165637   -0.0084101767
 C    1.8147011520    0.5353168244   -1.2010505804
 H   -0.4521719217    2.0214128024    0.8704409872
 H   -0.4950502730    2.0307259018   -0.9276092428
 H    2.1807897407    2.1994049168    0.2938605735
 H    1.0677873691    0.3126409255    1.9764157007
 H    3.5358712663   -1.0476767040   -0.9013592498
 H    1.5212972792   -1.8491250351   -2.3878143140
 H    0.9107122418   -2.3695918260   -0.7856349198
 H   -0.9053922833   -0.5776339401    0.2447812031
 H    2.1746878232    0.9988986288   -2.1183589162