16

 O    0.1885982009    1.5391379746    0.8922155075
 C   -0.0157691321    0.2203840081    0.4343841386
 C    0.5101315225   -0.0877731353   -0.9883683461
 O    1.4586486942   -1.0599458660   -0.4248696157
 C    1.0710509678   -0.7603547803    0.8525898593
 N    1.5070331193   -1.1034224287    1.9765981817
 C   -1.4353961412   -0.2098371055    0.7387276604
 C   -2.5368831577    0.0590964807   -0.1884456194
 O   -1.9894044179   -1.2575394355   -0.0534242535
 H    0.6894518583    1.4818566700    1.7147503248
 H   -0.1824665646   -0.5828150079   -1.6683277632
 H    1.0357680479    0.7450966146   -1.4572847342
 H    2.3029657113   -1.7393120450    1.9080791133
 H   -1.6505227387   -0.2769261566    1.8051591178
 H   -3.5458581703    0.1863332317    0.1982749732
 H   -2.3358916395    0.5542352911   -1.1373547447