20

 C    0.0140649488    1.5265410153    0.1057608793
 C    0.0505029233   -0.0001002769    0.0007962446
 C    0.6762435395   -0.4725988934   -1.3027524794
 O    0.6652058390   -1.8987292378   -1.3170642406
 C    1.2738361915   -2.4726659781   -2.4172860481
 C    1.2427914567   -4.0088545757   -2.2881379564
 N    0.2591836849   -4.4655901147   -3.2821710478
 C   -0.0648440940   -3.4298737460   -3.9336299235
 O    0.4981096686   -2.2318422912   -3.6251865526
 H    1.0216824328    1.9548897361    0.0650621395
 H   -0.5670954356    1.9691054178   -0.7106136802
 H   -0.4425868919    1.8432630106    1.0475766808
 H    0.6164047558   -0.4267052233    0.8368587246
 H   -0.9634832310   -0.4102430908    0.0679032241
 H    0.1180543941   -0.0867905789   -2.1661289244
 H    1.7141841305   -0.1111737529   -1.3902774480
 H    2.2617923166   -2.0304632164   -2.5996304525
 H    2.2170653668   -4.4626962067   -2.4954622395
 H    0.9384632519   -4.2920406880   -1.2771951234
 H   -0.7688971781   -3.3975077888   -4.7577854768