21

 C   -0.3423349914    1.5238350988   -0.0856656384
 C   -0.0316496507    0.0456906792    0.0127453156
 C    1.3070059833   -0.5737176390   -0.3414686556
 C    2.5491948235    0.2580546714   -0.6483464618
 C    3.6132826187    0.1611919685    0.4631811617
 C    3.0394231651    0.4832677874    1.8267860551
 O    2.0374555169    1.5085126077    1.8621089616
 C    1.6315159744    0.1546526828    2.1164985228
 C    0.8190376574   -0.5871235450    1.0959960642
 H    0.4884146947    2.1446332648    0.2462581733
 H   -0.5953817416    1.7930572941   -1.1178033990
 H   -1.2071145684    1.7718013738    0.5398292903
 H   -0.8767716342   -0.5783658204   -0.2707160022
 H    1.2611285082   -1.5238116709   -0.8655572112
 H    2.9876658040   -0.0773866425   -1.5930132994
 H    2.2882193344    1.3106163588   -0.7866069599
 H    4.0391227255   -0.8508665864    0.5044512844
 H    4.4445208623    0.8414510595    0.2425593426
 H    3.7492042152    0.5262451225    2.6533085756
 H    1.3437479641   -0.0178817105    3.1536822405
 H    0.4577098185   -1.5344828445    1.4881794099