16

 C   -0.1322404462    1.4380240038   -0.0074245678
 C   -0.0321016540   -0.0793676247    0.0026541126
 C    1.1248426367   -0.6560921477   -0.9205792631
 O    1.6176102606    0.0736328896   -1.9975730287
 C    1.9420658855   -0.6083368931    0.3627718132
 O    3.0099040156   -0.0823329027    0.5619828818
 C    0.7218759647   -0.6681303809    1.2708866121
 O    0.7978178848    0.0490659771    2.4604570778
 H    0.8388527346    1.9113788268    0.1736529093
 H   -0.4938443546    1.7906592100   -0.9765110268
 H   -0.8154926167    1.7810527601    0.7734320525
 H   -0.9997000873   -0.5498418259   -0.1778445181
 H    0.8716650181   -1.6706603365   -1.2446761060
 H    2.3867774902    0.5639366322   -1.6779754567
 H    0.3719480211   -1.6855903854    1.4728930172
 H    1.6291656770    0.5416254773    2.4404824105