16

 C   -0.3249526049    1.3702447158    0.1365096724
 N   -0.0842545702   -0.0527500298   -0.0294271293
 C   -0.0159532044   -0.8438789814    1.1871591716
 C   -1.2914236514   -0.8580168957    1.9186422703
 N   -2.2923872095   -0.8428674336    2.4954136964
 C    0.1038678708   -0.7132646192   -1.2287669728
 C    0.0360148245    0.1157759615   -2.5003808220
 O    0.3188429670   -1.9117349797   -1.2650151312
 H   -0.3920955757    1.8642251421   -0.8297049227
 H   -1.2635762353    1.5419001835    0.6762901636
 H    0.4878196144    1.8387370398    0.7072815100
 H    0.2519218408   -1.8616711727    0.8925215476
 H    0.7617833683   -0.4571635923    1.8591003285
 H    0.7943327960    0.9045048179   -2.5146543305
 H    0.2121752972   -0.5618238197   -3.3346267223
 H   -0.9435898075    0.5873339735   -2.6244194496