19

 C    0.1894233640    1.5453466442   -0.2068671005
 C    0.1145377206    0.0934844159   -0.1459152234
 C    0.0383136393   -1.1065921482   -0.0778548356
 C   -0.0168553557   -2.5372004825   -0.0223030059
 C   -0.3887968504   -3.2716311336    1.2371490255
 C   -1.3607279356   -3.3018079357    0.0874267228
 C   -2.6284500306   -2.5136769425    0.1953519780
 C   -3.7037013992   -2.8482915310   -0.8214374048
 O   -2.7797734467   -1.6527200871    1.0343133269
 H    1.0780120350    1.9224677267    0.3118788288
 H    0.2334405485    1.9022919247   -1.2419601108
 H   -0.6880304212    2.0012969372    0.2647002651
 H    0.7006790656   -3.0423346918   -0.6636756023
 H    0.1491003794   -4.1814237546    1.4770558097
 H   -0.6966329628   -2.6599109674    2.0769888042
 H   -1.4126961305   -4.2007147510   -0.5177762183
 H   -4.0070090352   -3.8971915445   -0.7225966721
 H   -4.5688939413   -2.2010517545   -0.6750217933
 H   -3.3140064531   -2.7244520042   -1.8384225541