20

 C   -1.6046850824   -0.4346992040   -0.0745239814
 C   -0.1327358044   -0.0160300727   -0.0580236862
 C    0.0199671192    1.5056717957   -0.0006525088
 N    0.5000359842   -0.5917440016    1.1476638963
 C    2.0232735421   -0.6324130659    1.2334751706
 C    1.8230175873   -1.7432191365    2.2967183871
 C    0.8055614452   -2.0867343273    1.1781219877
 C    1.9327186755   -1.7538322786    0.1622861945
 O    2.3302913841   -2.0454802244   -0.9212774609
 H   -2.1085015756   -0.1018936270    0.8384466194
 H   -2.1160589566    0.0069678688   -0.9349811677
 H   -1.7121401345   -1.5212948088   -0.1467319450
 H    0.3428406806   -0.3789712887   -0.9840238316
 H   -0.4304592220    1.9022399141    0.9147469060
 H    1.0724841808    1.8044689447   -0.0201216385
 H   -0.4724686333    1.9699612883   -0.8602466354
 H    2.6291595833    0.2691714503    1.2908312802
 H    2.6458603880   -2.4386481305    2.4663815879
 H    1.3520390659   -1.3837154659    3.2123460675
 H    0.0235058526   -2.8427756900    1.1723866083