25

 O   -0.0939837663    1.4517019243   -0.2016743010
 C    0.0125306412    0.0492318722   -0.0037434161
 C   -1.3867663911   -0.5465334072   -0.0789804171
 C   -1.4049386920   -2.0643487158    0.1232915697
 C   -2.8113417537   -2.6672844232    0.0411864773
 C   -2.8362498152   -4.1861987146    0.2553069124
 C   -4.2266125361   -4.7801462015    0.1709043456
 C   -4.8146058545   -5.1611750108   -1.1653586979
 C   -4.4240703514   -6.2332042366   -0.1760211052
 H    0.7889679516    1.8295482908   -0.1564903838
 H    0.6550802661   -0.4133340574   -0.7714384661
 H    0.4626375214   -0.1814662253    0.9762422735
 H   -2.0127866696   -0.0571745474    0.6774976551
 H   -1.8204397866   -0.2898723070   -1.0535202502
 H   -0.7620863905   -2.5427987065   -0.6291670964
 H   -0.9618408153   -2.3103479352    1.0986811753
 H   -3.4564341963   -2.1857426246    0.7890797219
 H   -3.2544120027   -2.4324957038   -0.9356191005
 H   -2.1925467008   -4.6707323463   -0.4920959690
 H   -2.3941190651   -4.4222364485    1.2336229745
 H   -4.9299718549   -4.3694762047    0.8921715085
 H   -5.8693593991   -4.9820554632   -1.3426664578
 H   -4.1908294071   -5.0349794256   -2.0448320883
 H   -3.5408658515   -6.8251900158   -0.3942418330
 H   -5.2125659007   -6.7841616262    0.3249006087