19

 O   -0.9108266579    1.6140251270    0.2699384465
 C    0.1539964102    1.0592839021    0.3363194423
 C    1.5039458735    1.7852512079    0.2223642736
 O    2.5086259528    1.1142859646    0.2904186776
 C    1.4682271275    3.2811504613    0.0365667958
 C    2.8508199680    3.9155137543   -0.1265169952
 C    2.7834432131    5.4198062299   -0.2771529023
 C    2.7268009330    6.3070724245    0.9429103004
 C    3.9680939195    6.2768042352    0.0839316457
 H    0.2692977404   -0.0357100223    0.4845284026
 H    0.8161415171    3.4951596196   -0.8214285371
 H    0.9293246758    3.7094803898    0.8934369304
 H    3.4699383917    3.6567168163    0.7402549657
 H    3.3522689354    3.4688390274   -0.9934701575
 H    2.2000100093    5.7585085221   -1.1306029326
 H    2.1008388385    7.1920146123    0.9152633140
 H    2.7775668562    5.8312544700    1.9174020467
 H    4.8471274045    5.7812329985    0.4831792861
 H    4.1890621014    7.1405015196   -0.5332572827