21

 C    0.0126811351    1.6884824201    0.0180023865
 C    1.5280783127    1.3608575320    0.0445158233
 C    1.1346202154    0.1029195715    0.9041326579
 C   -0.0804066391    0.1314255202   -0.0500134253
 O   -1.2819981901   -0.5657689539    0.0348610441
 C   -1.7371923710   -0.8104233609   -1.3160489496
 C   -0.6771185474   -0.2231429266   -2.2942727234
 C    0.5615794089   -0.2206613310   -1.3976740835
 C    1.7281234470    0.8035155191   -1.3946648543
 H   -0.3625268941    2.0741618242    0.9682330710
 H   -0.3722401076    2.2843075714   -0.8145056962
 H    2.2579055736    2.0787142857    0.4160244959
 H    1.7837423147   -0.7773175126    0.8800707234
 H    0.8989130666    0.3798695411    1.9337789668
 H   -1.8455419678   -1.8943382248   -1.4448585615
 H   -2.7236678150   -0.3533262424   -1.4502459104
 H   -0.5832883543   -0.8316175460   -3.1970122752
 H   -0.9531490467    0.7906832952   -2.6008521248
 H    0.9520915543   -1.2438413631   -1.3453936063
 H    1.6228346652    1.5944452148   -2.1442585064
 H    2.7011824795    0.3275649557   -1.5438477720