18

 O   -0.2636794563    0.0955021530   -0.1189940117
 C   -0.0208232942    1.2479956618    0.1474378998
 C    1.3154316948    1.8981026358    0.0263922658
 C    1.6442797178    3.0688858999    0.9901181770
 C    2.0497241488    3.9774307567   -0.2058104953
 C    1.6230466156    2.8711150209   -1.2067023248
 C    2.7479811607    1.9105755769   -1.6589821353
 C    2.5080874316    1.0114170485   -0.4098410620
 H   -0.8334818116    1.9354785611    0.4850139072
 H    0.7553155054    3.4351035282    1.5138999472
 H    2.4137360542    2.8528285681    1.7360710510
 H    1.4699965120    4.9002773913   -0.2789648347
 H    3.1102315888    4.2401828192   -0.2576073298
 H    0.8610686487    3.1389573210   -1.9398258759
 H    2.5220155954    1.3999282110   -2.5980407750
 H    3.7374346980    2.3684994898   -1.7480689915
 H    3.3282819764    0.9715962289    0.3115913450
 H    2.1937672739   -0.0068374122   -0.6442636169