23

 C    0.7690418641   -0.2487452512    1.3643624164
 O    0.1160323660    0.0308528099    0.1411248106
 C    0.7416537312   -0.4862917341   -0.9932151061
 C   -0.1786298935   -1.0357069960   -2.0411585532
 C    0.7742228043   -1.9677388667   -1.3116615198
 C    2.1042326282   -2.2735944362   -1.9836167330
 C    2.6295479492   -0.8942575888   -2.4536533457
 C    2.0574606011    0.1408935385   -1.4567490108
 C    1.9143445956    1.5577378973   -2.0128973097
 H    0.9237764529   -1.3280197494    1.5034805979
 H    1.7423883702    0.2546058665    1.4470403406
 H    0.1193681696    0.1229989159    2.1604832009
 H   -1.2196033743   -1.0977496134   -1.7453300834
 H   -0.0209016679   -0.8045040228   -3.0897615938
 H    0.3394580623   -2.6925586152   -0.6321087685
 H    2.7889270316   -2.7148585808   -1.2489566554
 H    2.0211186995   -2.9853303743   -2.8125539961
 H    3.7211835698   -0.8587298482   -2.5054791471
 H    2.2631558012   -0.6733188579   -3.4624142348
 H    2.7226884084    0.1782407379   -0.5824908524
 H    1.2686242778    1.5679746671   -2.8980137000
 H    1.4670715994    2.2223046779   -1.2672082360
 H    2.8855163133    1.9745520938   -2.3000616005