21

 C    0.4333192793    1.3649996411   -0.0401843623
 C    0.0901870514   -0.0923373637   -0.0269164199
 C   -0.1520857549   -0.8812018607   -1.0771556919
 C   -0.5173494714   -2.2993920134   -0.7009971287
 C   -0.2544071769   -2.3221683302    0.8133671078
 C    1.2112714579   -2.5942016652    1.2709665059
 C    1.2348290539   -1.2313728289    2.0172019760
 C   -0.0817676196   -0.8481981797    1.2800528188
 O   -1.1350383856   -0.3385705160    2.0799030069
 H    1.3863413500    1.5605554551    0.4682794935
 H    0.5089832671    1.7535932345   -1.0590291607
 H   -0.3317293693    1.9534212883    0.4831750844
 H   -0.1131274321   -0.5483117209   -2.1105855639
 H   -1.5626949953   -2.5201227233   -0.9568719363
 H    0.0920281488   -3.0437759783   -1.2298936888
 H   -0.9929394371   -2.8786171669    1.3918439786
 H    1.3683240287   -3.4822766088    1.8862673795
 H    1.9068934609   -2.6298539392    0.4283387971
 H    1.0511982744   -1.3410186814    3.0897548575
 H    2.1075187221   -0.5892124815    1.8672532155
 H   -0.8559107622    0.5110424292    2.4381912812