21

 C   -0.2076164562    1.5683915073   -0.0251875358
 C   -0.0255007445    0.0482664728   -0.0175883870
 C    0.7286832606   -0.4711657131   -1.2452585008
 C    0.9078612000   -2.0014880226   -1.2373744372
 C    1.6258000842   -2.5275443017   -2.4315888766
 C    2.8228860980   -3.1502714730   -2.6120275117
 C    2.9526378467   -3.3965388443   -4.0192702099
 C    1.8245273869   -2.9038086000   -4.5889801124
 O    1.0061953770   -2.3716361276   -3.6401204751
 H    0.7594798734    2.0829377253   -0.0458435779
 H   -0.7728026813    1.8944541580   -0.9053211858
 H   -0.7478299697    1.9107854379    0.8630034653
 H    0.5112693117   -0.2524572115    0.8922758065
 H   -1.0082429003   -0.4389887534    0.0365154134
 H    0.1948541446   -0.1808269536   -2.1582374405
 H    1.7163770361    0.0040897313   -1.3026943123
 H    1.4681907118   -2.3061504876   -0.3465820382
 H   -0.0801657448   -2.4762153210   -1.1626700060
 H    3.5277973041   -3.4059165607   -1.8361417737
 H    3.7734811869   -3.8760171192   -4.5291424448
 H    1.4604300546   -2.8529786032   -5.6017647196