18

 C   -0.0140616466    1.5574070018    0.0295829306
 O    1.3259785629    2.0764699326    0.0332561826
 C    2.2862957673    1.0621271924   -0.0527743406
 O    2.2044506470    0.1789926100    1.0613614028
 C    0.9115676309   -0.4397287511    1.1490352072
 C    0.0299682253    0.0251205915   -0.0296129374
 C    0.7641340721   -0.4132689311   -1.2937079058
 N    1.0832951755    0.6459334519   -2.2724404486
 C    2.1090654376    0.2060999407   -1.3114817359
 H   -0.5083542834    1.8810974242    0.9548726987
 H   -0.5485903872    1.9739083449   -0.8282602291
 H    3.2626630298    1.5438836600    0.0173741223
 H    1.0402963916   -1.5302208953    1.1441544110
 H    0.4542218900   -0.1549791927    2.1057090823
 H   -0.9783632883   -0.3903083426    0.0522466326
 H    0.6211049162   -1.4317771388   -1.6423205712
 H    1.2702760027    0.2193720011   -3.1764161245
 H    2.9781271766   -0.3425253295   -1.6603750870