15

 N    0.0032513462    1.3539202032    0.1359521957
 C    0.0209218442   -0.0126566875    0.0273945472
 N   -1.0141785939   -0.8200333119    0.0085693108
 H   -2.0037923078   -0.6130433590   -0.0025147883
 C   -0.6066601909   -2.1759235265   -0.0062116774
 C   -1.6340927307   -3.1405684211   -0.0267217861
 O   -2.8328609939   -2.8299240918   -0.0301252341
 C    0.8229692053   -2.1891544968   -0.0040273129
 N    1.6614169631   -3.1590193571   -0.0086674884
 N    1.1420490816   -0.7661033672    0.0030868050
 H    0.7460924071    1.8346641152   -0.3524788978
 H   -0.8971154271    1.7812261677   -0.0286075187
 H   -1.3022908112   -4.1947043353   -0.0415241247
 H    2.6267825785   -2.8376722714   -0.0048652287
 H    2.0726883697   -0.4016854205    0.1224437283