21

 C    0.1142405811    1.6081105657    0.1173188673
 C   -0.0342120544    0.0837294993   -0.0011313766
 C    0.7706465577   -0.6516393730    1.0829243262
 C   -1.4751645913   -0.3355059183    0.0436990608
 O   -1.8267896673   -1.6255212559   -0.4903694581
 C   -2.5285653642   -0.4602411405   -0.9603462242
 C   -3.6264635584   -0.0694843741    0.0772505976
 C   -3.6164800746   -0.9957530574    1.2635915720
 C   -2.5397588307    0.0496248743    1.1372888570
 H    1.1656340928    1.8974123130    0.0248012174
 H   -0.4505855222    2.1271670424   -0.6633180384
 H   -0.2417482614    1.9697971964    1.0881435152
 H    0.3434961926   -0.2285952843   -0.9829478748
 H    0.4101456107   -0.3901171941    2.0842344101
 H    0.6835028251   -1.7353632997    0.9654082778
 H    1.8304394554   -0.3834162277    1.0284566518
 H   -2.5402362129   -0.2846383317   -2.0300331772
 H   -4.4317104603    0.6205143190   -0.1362480191
 H   -4.3707018422   -0.7799045039    2.0138471296
 H   -3.3775159506   -2.0433973767    1.1339035807
 H   -2.4004514450    0.8438961176    1.8582828251