18

 C    0.0162217527    1.5492841846   -0.0356487182
 C    0.0098595976    0.0344517341    0.1412308408
 O    0.5961958415   -0.3492747782    1.3814535319
 C   -1.4292010468   -0.5411073079   -0.0159776000
 O   -2.0147696489   -0.0487042882   -1.1909432888
 C   -1.4340792212   -2.0790306780   -0.0660840833
 C   -1.1025281803   -2.8678113248    1.1714715397
 O   -1.7261301093   -2.6070853269   -1.1210048873
 H    1.0383668931    1.9295346597    0.0431993025
 H   -0.4020100618    1.8242865887   -1.0047267440
 H   -0.5934662438    2.0298446602    0.7412482707
 H    0.6403311803   -0.4246305706   -0.6296970077
 H    0.2152793773    0.2060219775    2.0710183859
 H   -2.0136244527   -0.2177390594    0.8630470742
 H   -2.1275119181   -0.8341622897   -1.7547649249
 H   -0.1357613816   -2.5478840012    1.5686799387
 H   -1.8460524532   -2.6554371128    1.9490271550
 H   -1.1077503947   -3.9345706872    0.9445648946