16

 O   -0.1715736806    0.0222013772    0.1700261989
 C   -0.0455079227    1.2125182582    0.0114382880
 C    1.2481469495    1.9075175324   -0.0068491886
 C    1.3824410731    3.3801232118    0.3208954434
 C    1.7382665909    2.9475196519   -1.0544858264
 C    3.1286024260    2.2755049441   -1.0667785863
 C    2.6128093934    1.2196340953   -0.0171578355
 C    3.5137990989    1.7079080384   -2.3485191134
 N    3.8147360147    1.2611914609   -3.3712964940
 H   -0.9268225764    1.8767094730   -0.1451075394
 H    0.4451771825    3.9212240985    0.4083932082
 H    2.1482654939    3.6906329534    1.0273474974
 H    1.2160692397    3.2956123782   -1.9362079479
 H    3.9353152364    2.9258422095   -0.7132801152
 H    3.1548263164    1.1940018088    0.9311571066
 H    2.5592245041    0.2136012783   -0.4323881858