21

 C   -0.3093704539    1.4634662160   -0.0215128801
 C    0.1102249812   -0.0077212185    0.0302615551
 C    0.6796537865   -0.4931461968   -1.2941428928
 O    1.0394670656   -1.8670322009   -1.1530106945
 C    1.5261960282   -2.4390747289   -2.2999707003
 C    0.6615688830   -2.8276528494   -3.4851889396
 C    1.4761690919   -3.8682986502   -2.7602871261
 O    2.8331672781   -3.8452231709   -3.2136017383
 C    3.0024331335   -2.4929528433   -2.7037358197
 H    0.5394974535    2.1131464853   -0.2616648515
 H   -1.0808434585    1.6326592060   -0.7807841515
 H   -0.7141247326    1.7896512328    0.9406418529
 H    0.8629934245   -0.1619273128    0.8117020858
 H   -0.7458863162   -0.6397110940    0.2929185298
 H   -0.0595383555   -0.3839103419   -2.1021869588
 H    1.5626354467    0.1024271996   -1.5748313490
 H   -0.3992150128   -2.8487385462   -3.2526520963
 H    0.9179352792   -2.5507398179   -4.5045079398
 H    1.0933802872   -4.7817490181   -2.3217291570
 H    3.3647025780   -1.7992125713   -3.4710553066
 H    3.6736302025   -2.4875533387   -1.8374255515