20

 C   -0.0081629764    1.4623058514    0.0986127832
 C   -0.0458756905   -0.0398494971    0.0000635335
 C   -1.2395542752   -0.7913098869   -0.5563121983
 C   -0.7136638023   -2.2084849455   -0.4539120750
 C   -1.4766474453   -3.3844369126   -0.9981037036
 C    0.2021743029   -2.3252594437    0.7139955279
 C    0.6549733370   -0.8992958190    1.0521875010
 C    1.1960377245   -0.8219150716   -0.3518544925
 N    0.7741999468   -2.2369654997   -0.6738287125
 H    0.9508386257    1.8084608583    0.4978847145
 H   -0.1450736778    1.9276630795   -0.8841300444
 H   -0.7963190456    1.8398426082    0.7598106938
 H   -2.1487054844   -0.6507617174    0.0403053203
 H   -1.4596252273   -0.5081467329   -1.5926835250
 H   -1.6626916097   -3.2666916167   -2.0709949790
 H   -0.9116572971   -4.3094343953   -0.8563147359
 H   -2.4438419217   -3.4901668263   -0.4946583689
 H    0.3305021169   -3.2120530936    1.3252476362
 H    1.0488413075   -0.5277856922    1.9880302996
 H    2.1114818020   -0.4174880168   -0.7645633150