22

 N   -0.0756501996    1.2877951667    0.3598241930
 C    0.0646755135   -0.0105703717   -0.0461824430
 O    1.1505044368   -0.4940145663   -0.3008970305
 C   -1.2442742529   -0.7912316053   -0.1601921034
 C   -1.0435450143   -2.2996137553   -0.0015602739
 C   -2.3169043864   -3.1062229151   -0.2821942130
 C   -2.1161406146   -4.5989524791   -0.1259840934
 C   -2.2494737597   -5.2498113379    1.2285714100
 C   -3.2839282533   -5.5073770108    0.1591333079
 H    0.7396182682    1.8787053878    0.3439491396
 H   -0.9769613778    1.7155083492    0.4786208658
 H   -1.9737526989   -0.4130703820    0.5669828561
 H   -1.6634283398   -0.5739862227   -1.1532719586
 H   -0.2387500428   -2.6110601451   -0.6749327507
 H   -0.6874590660   -2.5161059736    1.0126669884
 H   -3.1203276165   -2.7809402661    0.3937889795
 H   -2.6702405780   -2.8868568361   -1.2999882888
 H   -1.3436381914   -5.0120803701   -0.7706281976
 H   -1.5680502775   -6.0510873188    1.4921580280
 H   -2.5352267682   -4.6199768139    2.0653800137
 H   -4.2612975998   -5.0511987793    0.2809012868
 H   -3.3081457211   -6.4846242147   -0.3104791760