23

 C   -0.0779591353    1.5507242995   -0.2608842495
 C   -0.0130282314    0.0265403584   -0.1856727808
 C    1.2411395143   -0.5931759381   -0.8587671382
 O    1.8336453634    0.2165313915   -1.8494501644
 C    1.9137576223   -0.6960171877    0.5355320211
 C    0.5030281626   -0.5398494606    1.1689029495
 C    0.3434772080    0.1388813357    2.5525260895
 C    0.1934562167   -1.2692654278    3.1897894377
 C   -0.1179334398   -1.8294495371    1.7767299513
 H    0.8467700195    2.0170104912    0.0916296888
 H   -0.2362124204    1.8799187293   -1.2913846509
 H   -0.9022239318    1.9314592693    0.3510574627
 H   -0.9660554031   -0.3972656442   -0.5214334077
 H    1.0123581375   -1.5926072597   -1.2559219353
 H    2.6330799561   -0.2211908187   -2.1581239816
 H    2.4835025437   -1.6005202968    0.7695837235
 H    2.5418516384    0.1811367847    0.7207889146
 H    1.1660055879    0.7717438573    2.8975824203
 H   -0.5860736979    0.7137608327    2.6173841842
 H    1.1455126651   -1.6438787961    3.5758179986
 H   -0.5671624160   -1.3972658211    3.9634310038
 H   -1.1958310196   -1.8800400755    1.5888654968
 H    0.3279481397   -2.7884545962    1.4960958460