17

 C   -0.3374332654    1.6538035491   -0.0381035481
 N   -0.0087648209    0.2452687206   -0.0271375607
 C   -0.9685880354   -0.5723678513    0.1261645914
 N   -0.8345197608   -1.9362053657    0.1583840350
 C    0.3322476616   -2.6817731034    0.0412162067
 N    0.2320904767   -4.0094152671    0.1075876563
 N    1.5071201535   -4.4347798302   -0.0367234999
 C    2.3896511025   -3.4222722763   -0.1898161873
 C    1.6666875631   -2.2488413435   -0.1451908098
 H    0.2065774417    2.1731510904    0.7605485731
 H   -0.0177275587    2.1073581006   -0.9844951702
 H   -1.4135114668    1.8607252622    0.0925320415
 H   -2.0166899402   -0.2620178917    0.2484043819
 H   -1.6693801329   -2.4834666338    0.2904112831
 H    1.6914259647   -5.4220863588   -0.0202288487
 H    3.4452548979   -3.6047592114   -0.3164426369
 H    2.0093356896   -1.2347697196   -0.2292765873