16

 C   -0.1327566874    1.5355101919    0.0689560628
 C   -0.0137001174    0.0195000738   -0.0165264292
 C    0.7718472840   -0.5707758848    1.1563746713
 O   -1.3575346306   -0.4760898726   -0.0619292834
 C   -1.4717763859   -1.8126524944   -0.4747457470
 C   -2.8871833949   -2.1198778710   -0.7092860436
 N   -3.9923829098   -2.3932440201   -0.9005066755
 H    0.8583369611    1.9979154823    0.0607909610
 H   -0.7080217692    1.9218201736   -0.7758731244
 H   -0.6428183994    1.8243827211    0.9930166494
 H    0.4873366165   -0.2529624647   -0.9608906241
 H    1.7793768255   -0.1448946803    1.1866763952
 H    0.2698489137   -0.3407424828    2.1013489616
 H    0.8792525996   -1.6567486026    1.0779394024
 H   -0.9173462519   -1.9975981306   -1.4100089044
 H   -1.0886990940   -2.5234038987    0.2736924278