17

 C    0.0769420459    1.4045456155   -0.0285787665
 N    0.0828506800   -0.0594640204   -0.0029848484
 C    0.1802895800   -0.7418571583    1.2404516452
 C   -0.1314276795    0.0799638989    2.4863716118
 O    0.4909672853   -1.9012776335    1.3229577347
 C   -0.1112288299   -0.7824457790   -1.2079781456
 C   -0.0571286946    0.0339517101   -2.4934328244
 O   -0.3256750046   -1.9672985939   -1.2337215880
 H    0.5377271621    1.7954701316    0.8759559073
 H    0.6654392420    1.7732285039   -0.8687264247
 H   -0.9357111488    1.8193373856   -0.1067124495
 H   -1.0079065963    0.7222467982    2.3657049121
 H   -0.3006574065   -0.6295513976    3.2959769822
 H    0.7165062324    0.7145552852    2.7658760532
 H    0.9253711645    0.4949909864   -2.6383845971
 H   -0.2503537256   -0.6568932466   -3.3130183292
 H   -0.8050343263    0.8323353838   -2.5126573431