17

 C    0.0330042205    1.4168509218    0.0144275548
 N    0.0161498267   -0.0323102264   -0.0086141730
 C    0.0112160973   -0.8313221093   -1.1298577886
 C    0.0231232747   -0.2886370228   -2.5173608399
 C   -0.0058716661   -2.1223731360   -0.6500895339
 N   -0.0115773212   -2.1461133788    0.7137049309
 C    0.0018770806   -0.8752676279    1.0847669654
 C    0.0022645422   -0.3926709970    2.4130401275
 C    0.0028197706    0.0351639336    3.5393526071
 H    0.9288379425    1.8046919852   -0.4805361813
 H   -0.8497280762    1.8254962072   -0.4872934631
 H    0.0329124596    1.7465974820    1.0535827997
 H    0.9141657921    0.3188702957   -2.7188479521
 H    0.0163190388   -1.1141193829   -3.2325540527
 H   -0.8518076093    0.3395509197   -2.7259172559
 H   -0.0142677839   -3.0337457322   -1.2300216980
 H    0.0030893911    0.3941624282    4.5386848830