21

 C   -0.0771755751    1.5199446388   -0.0164034089
 C   -0.0345536470   -0.0102157217   -0.0065694610
 C    0.6741379854   -0.5756988100   -1.2369774562
 C    0.6216877095   -2.1028786591   -1.3217618512
 O    1.2546489083   -2.6033704886   -2.4907596457
 O    0.6702223865   -0.5164405342    1.1283570711
 C   -0.0440288563   -0.4487040986    2.3473192286
 C    0.6822787263   -1.1749405748    3.3818544144
 C    1.2615522932   -1.7648618452    4.2526594622
 H    0.9384642068    1.9277182557   -0.0282368456
 H   -0.6060524059    1.8793615394   -0.9045660050
 H   -0.5967042682    1.9189921888    0.8596076656
 H   -1.0690053025   -0.3969512722    0.0202362102
 H    0.2240882880   -0.1522549578   -2.1416555901
 H    1.7217298386   -0.2456501634   -1.2122286934
 H    1.0483318541   -2.5388948309   -0.4092302320
 H   -0.4207824009   -2.4360938210   -1.3868930309
 H    2.1977637571   -2.4309957880   -2.4074457857
 H   -0.1889727574    0.5937260495    2.6721785239
 H   -1.0506154765   -0.8851301467    2.2279749941
 H    1.7771305258   -2.2894783600    5.0185934657