19

 N    0.0425960550    1.3603626819    0.2977135431
 C   -0.0682834798   -0.0648604726   -0.0313578748
 C   -1.5062182104   -0.3812777920   -0.0888575171
 N   -2.6405970876   -0.5763170164   -0.1911917502
 C    0.6219222798   -0.5694161408   -1.3417074037
 C    1.9781379684    0.1053641599   -1.5582754243
 O    2.5295774263   -0.4177038980   -2.7556022124
 C    0.8079249656   -2.1011742744   -1.3163607639
 O   -0.3103982171   -2.8164642624   -0.8252642691
 H    1.0102660495    1.6099076276    0.4685236025
 H   -0.2947176128    1.9351794318   -0.4684044660
 H    0.3551522870   -0.6230642218    0.8129107875
 H   -0.0177025392   -0.2964460038   -2.1919193924
 H    1.8524397790    1.1950296695   -1.6272756578
 H    2.6338132212   -0.0997544682   -0.6932507154
 H    3.3805145176    0.0031315838   -2.9084415878
 H    1.1118739459   -2.4425975738   -2.3125429148
 H    1.6273268551   -2.3443317366   -0.6281322613
 H   -1.0651882338   -2.6614281337   -1.4032046122