19

 C   -0.0662051142    1.3842256612   -0.0530119024
 N   -0.0100503368   -0.0562116839    0.0338916933
 N   -0.0275626651   -0.7942942030   -1.0927098555
 C    0.0353003909   -2.0651554322   -0.6882759247
 C    0.0385134485   -3.1990718326   -1.6631764888
 C    0.0930550903   -2.1241228118    0.7213266330
 O    0.1656274010   -3.2175759374    1.5397043818
 C    0.0626214998   -0.8173862340    1.1672293161
 C    0.0972552275   -0.2679503541    2.5523770452
 H    0.8252743674    1.8451965202    0.3867602441
 H   -0.1174909955    1.6399354397   -1.1108469982
 H   -0.9514162654    1.7801473941    0.4571588599
 H    0.9484127445   -3.8077692480   -1.5842202864
 H   -0.8178523166   -3.8700176691   -1.5177840995
 H   -0.0136200636   -2.8063731529   -2.6808268751
 H    0.1722008576   -4.0081876527    0.9924143179
 H    0.9661907601    0.3796419435    2.7222766495
 H   -0.7986210802    0.3184914541    2.7905838680
 H    0.1534699198   -1.0953033512    3.2631870219