16

 O   -0.0285313792    1.3887555973    0.1640485053
 C    0.0746963233    0.0120611460    0.0969736654
 C    0.8302020579   -0.9762544486    0.9804466642
 N    0.0873335694   -1.9128868603    0.0335537961
 C   -1.1330793678   -0.9581982862    0.0302645679
 C   -1.2032465618   -1.0025536100   -1.5124457551
 C   -1.8184904244    0.1579716103   -2.2442976890
 O   -2.5636633537    0.0291427750   -3.1845170633
 C    0.2948986393   -0.9341684239   -1.1412102113
 H    0.8510553141    1.7738368210    0.0764170048
 H    1.9190755186   -1.0380416168    0.8848042651
 H    0.5206801882   -1.0764789583    2.0251067744
 H   -1.9342011473   -1.0818652525    0.7599249147
 H   -1.5339215649   -1.9540438820   -1.9353582435
 H   -1.5389604553    1.1614749779   -1.8610337375
 H    1.1685808736   -1.0232387190   -1.7888619284