13

 C   -0.0284723169    1.4555757220    0.0288911911
 N   -0.0164630285    0.0075959790    0.0124700004
 C   -0.1590177302   -0.8305336436   -1.0689192170
 N   -0.0993181392   -2.0918671097   -0.7291750146
 C    0.0914782861   -2.1012797035    0.6389247110
 C    0.1432198414   -0.8120563879    1.1005340677
 O    0.3066599858   -0.2274455196    2.3140786034
 H    0.9171753145    1.8500975503    0.4119385973
 H   -0.1741351159    1.8139481361   -0.9914941359
 H   -0.8409242994    1.8327482750    0.6568153020
 H   -0.3017643770   -0.4397448011   -2.0656096823
 H    0.1787337600   -3.0187664766    1.2004552488
 H    0.4054377792   -0.9203638904    2.9740249179