20

 C    0.0271428453    1.5239409122   -0.0482547615
 C    0.0558772361    0.0011533855   -0.0436759512
 O    1.1114751324   -0.6070821502   -0.1052010283
 N   -1.1508456076   -0.6514329618    0.0434532309
 C   -2.4676146635   -0.0313706098    0.0464203738
 C   -3.3269324478   -0.6514925865    1.1536946397
 O   -3.3881721137   -2.0589890684    1.0335012776
 C   -2.0934709360   -2.6393129470    1.1049798121
 C   -1.1854765410   -2.1109389590   -0.0030339634
 H    1.0583823804    1.8645960805   -0.1320082038
 H   -0.5496419248    1.9199189629   -0.8900711709
 H   -0.4056625401    1.9273232359    0.8727814268
 H   -2.3852787093    1.0439209849    0.2040653478
 H   -2.9632463970   -0.1965238254   -0.9226064443
 H   -2.9127432567   -0.3685495005    2.1362470590
 H   -4.3552062671   -0.2839484219    1.0890959792
 H   -1.6392525173   -2.4294435495    2.0871655636
 H   -2.2311407746   -3.7196000184    1.0077130228
 H   -1.5738110990   -2.4407662486   -0.9778378290
 H   -0.1627406486   -2.4721487251    0.1056236990