19

 O   -0.3051811192    0.1801177572    0.6019755521
 C   -0.0779727000    1.3667098117    0.5890218584
 C    1.2479797642    1.9614714299    0.3219471003
 C    1.2835185752    3.3410399181   -0.3476029304
 C    1.6767429833    3.2315165262    1.0707522663
 O    0.8371033286    3.8218167174    2.0088649001
 C    1.1294212136    3.4666161310    3.3344237689
 C    0.0205338903    3.6158296561    4.3208893190
 C    0.5213767966    2.2334506367    3.9484954594
 H   -0.8838631551    2.1090166674    0.7827522598
 H    2.0229388915    1.2447279982    0.0737379377
 H    2.0408261095    3.5185095098   -1.1015997029
 H    0.3192650888    3.7977056434   -0.5471117983
 H    2.7364231391    3.2819640938    1.3207167412
 H    2.1378372833    3.7442983468    3.6413381086
 H    0.2494702553    4.0176971254    5.3011756446
 H   -0.9418740550    3.9135667404    3.9205658976
 H   -0.1232483454    1.6223959210    3.3286068188
 H    1.1115085054    1.6776435096    4.6689156787