17

 C   -0.3437596250    1.5202103414   -0.0648027597
 C    0.1560703214    0.0888955936   -0.0242548486
 O    1.4456219370   -0.0711189186   -0.6624581792
 C    1.9286964983   -0.8863242961    0.4273179951
 C    0.6935894350   -0.5502075477    1.2859179953
 C    0.9706701355    0.3738946377    2.4571855587
 O    1.6551803753   -0.3974332304    3.4353003020
 H    0.3575148947    2.2100934264    0.4117663866
 H   -0.4674244071    1.8336754558   -1.1063108404
 H   -1.3169843179    1.6053142300    0.4307056668
 H   -0.5860281657   -0.5654542295   -0.5070810669
 H    2.0175834031   -1.9422304169    0.1405996928
 H    2.8944911486   -0.5380623443    0.8102773951
 H    0.1262132880   -1.4122558529    1.6442106560
 H    1.5833423906    1.2276298997    2.1288287281
 H    0.0257417025    0.7778941425    2.8548662138
 H    1.9026994958    0.1844585694    4.1597132447