19

 O    0.0690796240    1.4198865969   -0.1650548422
 C    0.0378527427    0.0200465433   -0.0099748180
 C    0.7169840789   -0.5358139887    1.2710952089
 C   -0.0550694682   -1.8187871334    1.5662354466
 C   -1.4644075951   -1.7199603078    2.1211005846
 C   -2.0758086358   -0.3461299918    2.3266562703
 O   -2.1585179930    0.2659705460    1.0416219204
 C   -1.4145587429   -0.4878095731    0.0849763815
 C   -1.2616317871   -1.9049763558    0.6450653317
 H    0.9851226612    1.6877321814   -0.2845796163
 H    0.4897526266   -0.4843962223   -0.8815173540
 H    1.7803681197   -0.7389117276    1.1136173000
 H    0.6425704162    0.2044832013    2.0756769810
 H    0.4989271127   -2.7170354016    1.8146198179
 H   -1.8206263330   -2.5398773913    2.7341373028
 H   -3.0877386627   -0.4258232236    2.7436389171
 H   -1.4827719305    0.2846879864    3.0051658542
 H   -1.9399451683   -0.4197646054   -0.8704578688
 H   -1.5594415152   -2.7874910330    0.0947713622