18

 C    0.0445902715    1.4390429558   -0.2683630348
 C    0.0405912490   -0.0402682970    0.0428242568
 C    1.3309944858   -0.8406174622    0.0017676798
 C    0.6462933382   -0.5664943471    1.3190754185
 O    1.2154259640    0.3938217262    2.1753149027
 C   -0.0538114475   -1.6982464594    2.0628069588
 C    0.9198176724   -2.5795690132    2.8135180287
 O    0.9749129383   -3.7790894537    2.7224322540
 H    0.9081206563    1.9294403698    0.1861283038
 H    0.0757985332    1.6097398446   -1.3496336350
 H   -0.8553502473    1.9256455516    0.1225764831
 H   -0.8450211601   -0.5722797943   -0.2957696590
 H    1.3175147797   -1.8501361677   -0.3953422246
 H    2.2429251507   -0.2870798284   -0.2008509451
 H    2.1285985026    0.1452854560    2.3490558457
 H   -0.7393082897   -1.2481704334    2.7945907980
 H   -0.6335268427   -2.3262955946    1.3814120274
 H    1.6185401056   -2.0270647330    3.4843376212