21

 C   -0.2419599839    1.5290235659    0.0145873697
 C   -0.0335481074    0.0270127404    0.0026046091
 O   -1.3338239453   -0.5948955322    0.0119530438
 C   -1.3398459618   -1.9436212992    0.0032914434
 O   -0.3399413155   -2.6167223406   -0.0111644789
 C   -2.7608650902   -2.4716648502    0.0140840284
 C   -2.8277970644   -3.9973596692    0.0082612462
 C   -4.2611667642   -4.5107893835    0.0184374310
 O   -4.2141790058   -5.9283485497    0.0119117964
 H    0.7263137971    2.0383393969    0.0079160376
 H   -0.8073326076    1.8524659397   -0.8640070412
 H   -0.7890155068    1.8408661758    0.9088318304
 H    0.5118454951   -0.3046338268   -0.8867163070
 H    0.5300358452   -0.3161896023    0.8760531550
 H   -3.2659248812   -2.0506610103    0.8926683875
 H   -3.2815311155   -2.0435601438   -0.8519137911
 H   -2.3121845087   -4.3911441084   -0.8730650260
 H   -2.2971637380   -4.3985578776    0.8772604293
 H   -4.7874714104   -4.1326333364    0.9112261653
 H   -4.8027695308   -4.1249782569   -0.8618494079
 H   -5.1165646499   -6.2601206417    0.0189220390