19

 C   -0.3062695398   -1.1691212174   -0.1242378925
 C   -0.0655188335    0.0092152581   -0.0929103169
 C    0.2343705945    1.4278978542   -0.0381851917
 C   -0.1144005276    2.1045087786    1.3310984084
 C    1.3821018178    1.9835312622    1.7416188570
 C    1.7396162972    1.7551944138    0.2492239558
 C    1.9970478301    3.1477180261    2.4675969639
 C    3.3345336987    3.6677735176    2.1584400193
 O    2.1612600435    4.3599294072    1.7226617260
 H   -0.5248984888   -2.2072989597   -0.1627112199
 H   -0.1835514623    1.9275958749   -0.9165120310
 H   -0.4018646370    3.1486685903    1.1840524606
 H   -0.8575578105    1.6031123141    1.9524370367
 H    1.5439201941    1.0726516969    2.3276348645
 H    2.4657503001    0.9773904136    0.0097991673
 H    2.0252417348    2.6948201711   -0.2293101059
 H    1.6195122721    3.3092857763    3.4797930304
 H    3.9146614225    4.1708303127    2.9306105133
 H    3.9203528043    3.2037539193    1.3661859145