23

 C   -0.0320733601    1.6633095686   -0.0181684987
 C    0.0367154270    0.1338567064   -0.1326997667
 C    0.8476010992   -0.2822603002   -1.3462186573
 O    0.5724137145   -1.2077487976   -2.0676959566
 C    0.5953918951   -0.5570996346    1.1395619150
 C    2.0137286415   -0.1050112565    1.5064120140
 C   -0.3618770887   -0.5132434461    2.3777015317
 C   -0.1371094505   -2.0351813730    2.5822641790
 C    0.4653477111   -2.1161254237    1.1549392411
 H    0.9651045457    2.1148599985   -0.0027736147
 H   -0.5778363784    2.0956225937   -0.8626086869
 H   -0.5474383895    1.9606159229    0.9000167785
 H   -0.9703203869   -0.2676557832   -0.2932521908
 H    1.7611570057    0.3304422558   -1.5356144837
 H    2.0601322021    0.9691457901    1.7125069720
 H    2.3569163199   -0.6228296583    2.4079420133
 H    2.7325584378   -0.3298453826    0.7108915199
 H   -0.0738070539    0.1526407132    3.1961617919
 H   -1.3925862565   -0.2827950198    2.0920647906
 H    0.5967352834   -2.2502742197    3.3630605053
 H   -1.0250733090   -2.6399918228    2.7774965633
 H   -0.2511852530   -2.4745425744    0.4118567480
 H    1.3924051533   -2.6825809866    1.0330923318