21

 C   -0.3110267395    1.2765364019   -0.5380435698
 O   -0.4031966384   -0.1273167100   -0.5071433544
 C   -0.9866707784   -0.6150876679    0.6798481717
 C   -1.0369905811   -2.1359338872    0.6005673731
 O   -1.5641670349   -2.5762717571    1.8374500896
 C   -1.8959977605   -2.6187134011   -0.5883918112
 C   -2.0225406729   -4.0723471850   -0.5911686358
 C   -2.1040316475   -5.2734419045   -0.5257188094
 C   -2.2143436022   -6.7256636427   -0.4916966152
 H    0.1534538365    1.5538404816   -1.4874553607
 H   -1.3022331641    1.7526573332   -0.4736599664
 H    0.3077056044    1.6624411534    0.2873111333
 H   -0.3988263758   -0.3191801132    1.5631806615
 H   -2.0074051655   -0.2188094843    0.8142979443
 H   -0.0112392248   -2.5094427663    0.4539216394
 H   -1.7378291342   -3.5210918130    1.7447900234
 H   -2.8896168208   -2.1575633639   -0.5116668046
 H   -1.4441004068   -2.2586066343   -1.5184831427
 H   -3.1100269997   -7.0471601678    0.0511581546
 H   -2.2744953929   -7.1402546067   -1.5040292451
 H   -1.3474574310   -7.1810870250   -0.0003855356