16

 C   -0.4945107505    1.4402062433    0.0568519580
 C   -0.0501617696    0.0061969821   -0.0061305914
 N    0.0642631888   -0.5650895563   -1.1548331290
 C    0.3864760799   -1.8776284127   -1.3729685826
 C    0.1773110963   -2.9568589278   -0.5700709378
 N   -0.3832053105   -2.9843237771    0.6813113563
 C   -0.3897261041   -1.9823468554    1.4836430963
 C    0.2389448607   -0.6497065547    1.3049857120
 N    0.8536505635   -0.0011395794    2.2189522618
 H    0.2742791054    2.0417485830    0.5516119977
 H   -0.6825982370    1.8153297351   -0.9491067888
 H   -1.4019936828    1.5376183170    0.6636962972
 H    0.7486103435   -2.0739592014   -2.3798252213
 H    0.3715532359   -3.9405642574   -0.9892823840
 H   -0.9135452937   -2.1141398245    2.4348541611
 H    0.9288755344   -0.5641814335    3.0716706744