12

 N   -0.0650103780    1.2021913964    0.5428230866
 C   -0.0403901726    0.0549241125    0.0129468629
 O    1.1314515907   -0.5204890146   -0.4553764582
 N    1.1419783433   -1.7763225309   -1.0356776575
 C    0.0083344441   -2.3845083138   -1.1176680213
 C   -0.0047442941   -3.7536174769   -1.7457304643
 O    0.9604597056   -4.3219813106   -2.1761943643
 N   -1.2377725008   -1.9234838018   -0.6865585020
 C   -1.2432466727   -0.7599955921   -0.1505015377
 H    0.8641773400    1.6256726071    0.5742616647
 H   -1.0263371889   -4.1846242259   -1.7653900780
 H   -2.1740331165   -0.3287305693    0.2115561892