22

 C   -1.7824084310    2.0419934596    2.0241638279
 C   -0.9988496261    1.0207156514    1.2205505777
 C    0.2432181355    1.4875503942    0.4897684651
 C    0.3738517296    0.6404863864    1.7293865414
 C   -1.8081927670   -0.0956381012    0.5856133842
 N   -3.2696117914    0.0646480722    0.4892500797
 C   -2.4735196692   -0.0189102230   -0.7488803463
 C   -2.5218748978    1.2314082099   -1.5956532462
 O   -3.8137808268    1.4176986188   -2.1515799494
 H   -1.1062359658    2.7856739411    2.4576954398
 H   -2.5181525049    2.5652914309    1.4076499207
 H   -2.3305481065    1.5619722624    2.8415578248
 H    0.4748866337    1.0259542260   -0.4645814924
 H    0.5079422078    2.5381205116    0.5517380063
 H    0.7276742466    1.1096554361    2.6414189887
 H    0.6971444876   -0.3889786216    1.6068695059
 H   -1.4614412198   -1.0931335764    0.8541482928
 H   -3.7390708989   -0.8148794836    0.6825838819
 H   -2.5417474760   -0.9468216698   -1.3149152730
 H   -2.2129113470    2.1000408988   -0.9986587373
 H   -1.8307399234    1.1470369429   -2.4409476796
 H   -4.4215593591    1.4133574834   -1.4024062230