20

 C   -0.7710811942    1.1868200303   -0.1278324826
 C   -0.0254981853   -0.1394713334   -0.1022926230
 C    1.2867732101   -0.2820187580   -0.9265243156
 O    1.9029073621    0.9857576115   -1.0969488601
 C    1.9372521543   -1.0560994944    0.2741349346
 O    3.2493106013   -0.6905325424    0.6056988132
 C    0.7785921988   -0.5515494536    1.1454814281
 C    0.8966027840    0.1803392219    2.4251377969
 N    0.3164523317   -1.1800139936    2.3758415603
 H   -0.0934681998    2.0209110885    0.0659534203
 H   -1.2425194524    1.3547034609   -1.1014765594
 H   -1.5644365053    1.2007435610    0.6281571159
 H   -0.7014315683   -0.9564869360   -0.3845342710
 H    1.2062533742   -0.8116615006   -1.8826692429
 H    2.7306970320    0.8392921878   -1.5671309471
 H    1.9228263818   -2.1423017780    0.1484913183
 H    3.2555646955    0.2755243299    0.6095797024
 H    1.8630061408    0.2396341695    2.9182558936
 H    0.2381686315    1.0275316440    2.5987633854
 H   -0.6989397928   -1.1224180454    2.4338707225