23

 C   -0.0494543770    0.6248191582    0.7734413919
 C   -0.4854714852    0.4177614235   -0.6829599588
 C    0.5028686262   -0.3718212234   -1.5291202710
 C    0.8046954622    0.1177126679   -2.8847438429
 O    1.7272255209    0.3317766571   -1.8122931263
 C    0.6753811970   -1.8448524277   -1.2188429086
 C    1.6743207625   -2.6889057213   -2.0592329353
 C    2.0684980176   -3.4484432623   -0.7657292604
 C    1.4703911476   -2.2769791733    0.0542027103
 H   -0.0045249741   -0.3158743589    1.3283121133
 H    0.9400466159    1.0898414885    0.8125199630
 H   -0.7529281515    1.2823557908    1.2932314669
 H   -1.4585965908   -0.0891317372   -0.7162007738
 H   -0.6278973010    1.3977004476   -1.1513471940
 H    1.1400073621   -0.5750036740   -3.6547981077
 H    0.3065342013    1.0124796836   -3.2566315431
 H   -0.3138028204   -2.3181451761   -1.2180848900
 H    1.2772353445   -3.2668984679   -2.8973954871
 H    2.4977655069   -2.0610391098   -2.4103246763
 H    1.4883285449   -4.3675583766   -0.6411254474
 H    3.1253197692   -3.6823836421   -0.6192564127
 H    2.2319127573   -1.5332098620    0.3036647335
 H    0.9031246141   -2.5210478648    0.9554755766