17

 O    0.1737573714    1.2367284487    0.2448377249
 C    0.0544257848   -0.1298661728    0.0375080622
 C   -1.3322771350   -0.6725566632    0.0241891997
 C   -2.5090948942    0.2797822136    0.1176438104
 C   -2.5168683014    1.4512005950   -0.8703073379
 O   -3.1655611239    2.4519205562   -0.6399687354
 C   -1.7981948309    1.2620667568   -2.1447841184
 C   -0.9340800845    0.2532904857   -2.3387669912
 C   -0.5335586926   -0.6811324518   -1.2786858134
 H    0.8570565886    1.5881844633   -0.3363497656
 H    0.8425229936   -0.7372131695    0.4814584810
 H   -1.4802068011   -1.6363045093    0.5014115919
 H   -3.4342855622   -0.2781636931   -0.0785261275
 H   -2.6056523758    0.6971060614    1.1237573518
 H   -2.0272906224    1.9789253744   -2.9265128377
 H   -0.4616080667    0.1260535161   -3.3103366558
 H   -0.1100487878   -1.6241478414   -1.6074711989