16

 C   -0.0418981872    1.7061361262    0.0664620530
 C   -0.0464250881    0.1904652511   -0.0584470072
 O    0.6369520850   -0.1829318134   -1.2581111210
 C   -0.0074259232   -0.9498733578   -2.1713393992
 O    0.4964533332   -1.2729921021   -3.2003277926
 C    0.6949715074   -0.4883649869    1.1223178315
 O    0.1915637103   -0.0844692216    2.3781986251
 C    0.6545285900   -1.9554155967    0.9736939230
 N    0.5554338858   -3.1023525323    0.8748112269
 H    0.9826453279    2.0864735280    0.0188362666
 H   -0.6129445586    2.1520634984   -0.7514906220
 H   -0.4831450063    2.0074634472    1.0183068003
 H   -1.0772776636   -0.1910297423   -0.0877205183
 H   -1.0316341452   -1.2229792703   -1.8537711363
 H    1.7406993287   -0.1643014159    1.0912338649
 H   -0.6539066661   -0.5227346016    2.5306582352