24

 C   -2.2015597286    0.5527940782   -2.8390621122
 C   -1.4854524863   -0.5174314934   -2.0102656157
 C   -2.3931664109   -1.7072223999   -1.6591740763
 C   -1.7445738240   -2.7256011804   -0.7347964209
 C   -0.4710532703   -3.3871524734   -1.2616489187
 O    0.7198654566   -2.7159195184   -0.8604366129
 N   -1.7261291199   -2.3608921806    0.6961233511
 C   -2.5397707826   -3.5068579716    0.2643612058
 C   -4.0349904522   -3.4167278613    0.4598955508
 H   -1.5347025505    1.3870915297   -3.0775925198
 H   -2.5715238515    0.1404787816   -3.7843916650
 H   -3.0618943108    0.9577604416   -2.2954041490
 H   -0.6089854411   -0.8681259120   -2.5739565525
 H   -1.1134050071   -0.0748295596   -1.0778221002
 H   -3.2997315166   -1.3197347924   -1.1856910230
 H   -2.7104475896   -2.2097905294   -2.5837352788
 H   -0.3693448458   -4.3975129515   -0.8538170741
 H   -0.5239934704   -3.4806355889   -2.3570876992
 H    0.6818132668   -1.8149210948   -1.1962213426
 H   -0.8427325431   -2.6597229713    1.1040275923
 H   -2.1374961126   -4.4969394674    0.4815628145
 H   -4.4018330621   -2.3995562841    0.3102387469
 H   -4.5627812436   -4.0849442295   -0.2295917527
 H   -4.2981671737   -3.7138842913    1.4809496623