20

 C   -0.0254235052    1.5572676046    0.0403392131
 C    0.0064182112    0.0283453577   -0.0078509523
 C    0.7134977662   -0.5422039316   -1.2462738854
 C    0.6729634030   -2.0813159271   -1.3532239328
 C    0.8104606679   -2.2994722842   -2.8657258687
 C    0.0751620178   -1.0794098118   -3.4470548434
 O    0.0440281468   -0.0800823773   -2.4149949957
 C    2.1303564986   -0.0827550280   -1.2813007689
 N    3.2331905719    0.2621982831   -1.3153138094
 H    0.9854683437    1.9740682993    0.0810065144
 H   -0.5240788027    1.9595970122   -0.8447520196
 H   -0.5668920942    1.8991119634    0.9268584099
 H    0.5019473569   -0.3738867160    0.8834539273
 H   -1.0134928031   -0.3713751402   -0.0225253208
 H    1.4530155054   -2.5688579218   -0.7660403428
 H   -0.3018071911   -2.4231177840   -0.9907593668
 H    1.8652563981   -2.2877552539   -3.1544396926
 H    0.3803609211   -3.2453060009   -3.2013517596
 H    0.5749015892   -0.6702323914   -4.3313028829
 H   -0.9618941215   -1.3129334321   -3.7159697029