15

 O   -0.0185683433    0.0109681529    0.0517030924
 C   -0.0613923249    1.2081952819    0.0388579511
 C   -1.2752326998    2.1525714995    0.0022958422
 C   -0.7215563500    3.2885142383   -0.8960446028
 C    0.5196721246    3.5814306969   -0.0142830991
 C   -0.1273564017    3.6439218030    1.3705101211
 C   -1.1755158508    2.8096570163    1.3801545763
 C    1.1683231279    2.1871276169    0.0274723185
 O    2.3255608102    1.8770490363    0.0296157251
 H   -2.2170325607    1.6802334460   -0.2675187887
 H   -0.4651616258    2.9546887788   -1.9075869283
 H   -1.4019943813    4.1426422112   -0.9492472119
 H    1.1879869036    4.3908767677   -0.2989627325
 H    0.2905939437    4.1844341615    2.2090994267
 H   -1.7865000518    2.5311806828    2.2282198000