22

 C   -1.5450359148   -0.2377912353   -0.1992289480
 C   -0.0399760453    0.0141263015    0.0430582338
 C    0.2351661413    1.5285780525    0.1776060818
 C    0.3488175698   -0.6462048693    1.3015736323
 N    0.6563463947   -1.1664899703    2.2875112174
 C    0.7878241109   -0.5716092687   -1.1219729687
 C    2.3406494791   -0.5934279179   -1.0512776224
 C    2.3094518020   -1.9650914610   -1.7784714002
 C    0.8168636546   -2.1053866138   -1.3738184483
 H   -1.8511961047    0.2539649005   -1.1278709579
 H   -1.7578192190   -1.3060492568   -0.2875233723
 H   -2.1478921600    0.1649750520    0.6190831695
 H   -0.3381100901    1.9606772335    1.0021878912
 H    1.2951535207    1.7231955972    0.3587128715
 H   -0.0564242853    2.0348092017   -0.7479419436
 H    0.4631213551   -0.0506137029   -2.0302036418
 H    2.8823591590    0.2278966643   -1.5259361602
 H    2.6901642297   -0.6973016768   -0.0196463394
 H    2.4294735164   -1.8553535376   -2.8599246328
 H    2.9993448884   -2.7351428658   -1.4280103425
 H    0.7082796617   -2.6638013005   -0.4391547396
 H    0.1205486857   -2.5124713665   -2.1105349998