15

 O    0.1726761741    1.2225065838   -0.4862309272
 C   -0.0484439283    0.0330998063    0.2482120566
 C   -1.4315450680   -0.5149138862    0.0729924127
 C   -2.1891603625   -0.7368214090   -1.0497442504
 C   -3.4408923813   -1.2811914601   -0.5840215090
 C   -3.3400405931   -1.3467549278    0.7644195630
 O   -2.1255205684   -0.8804943811    1.1763006372
 C   -1.7860429328   -0.4686459453   -2.3783328074
 C   -1.4274029878   -0.2345906126   -3.5055980594
 H    0.0118790150    1.0257188862   -1.4169754337
 H    0.6926787966   -0.7395773413   -0.0144365902
 H    0.0986007873    0.2756803709    1.3045863395
 H   -4.2827149244   -1.5719343083   -1.1911862821
 H   -4.0025773178   -1.6778211602    1.5462627476
 H   -1.1237814287   -0.0359846953   -4.5036313172