16

 C   -0.5322862310    1.7159346969   -0.3706191551
 N   -0.6807308612    0.2782158537   -0.3864378714
 C    0.1877200784   -0.4835287103   -0.8652620892
 C    1.5119911616   -0.2387932686   -1.5279484077
 O   -0.1613848026   -1.8592370142   -0.8708942494
 C    0.4724497265   -2.6636351623    0.0101489235
 O    1.3064343365   -2.3041496157    0.8010349634
 C    0.0109810665   -4.0268863641   -0.1256356315
 C   -0.3351061660   -5.1750988429   -0.1952021462
 H    0.3799354404    2.1072043901   -0.8389840594
 H   -1.3987990483    2.1620609491   -0.8702470541
 H   -0.5580383451    2.0554456124    0.6703463472
 H    2.3045184520   -0.6945806213   -0.9282451108
 H    1.5203421591   -0.7129033337   -2.5142680535
 H    1.7225930611    0.8240078096   -1.6440412518
 H   -0.6430869478   -6.1905573085   -0.2569917840