15

 N    0.1347527642    1.4886936165   -0.0744568519
 C    0.0488561026    0.0794808558   -0.0382984069
 C    0.0754594834   -0.8650375718   -1.2023886611
 N    1.2562435074   -1.6747797554   -1.1240628701
 C    1.7573758959   -1.7048540088    0.1694419994
 O    2.7087316819   -2.3329843858    0.5658765103
 C    0.7447086034   -0.8730852304    0.9723565902
 O   -0.4403317311   -1.7469138007    0.9871001096
 C   -0.9970572361   -1.0280279084   -0.0983020506
 H    0.0177286785    1.8640096251   -1.0069293531
 H   -0.5254843725    1.9391907001    0.5487105362
 H   -0.2339678427   -0.5159544834   -2.1809738857
 H    1.4275161648   -2.4570858726   -1.7371895000
 H    1.0448018825   -0.5499771474    1.9662826770
 H   -2.0671647122   -1.0842689229   -0.2632834534