14

 N    0.0562791683    1.0550261214    0.6185593886
 C   -0.0114231372   -0.0491713231    0.0373669212
 C   -1.1363654302   -0.9964879216   -0.3287095614
 C    0.0179450723   -1.8366110551   -0.9422086021
 O    0.9789533682   -0.8390382873   -0.5241418785
 C    0.2550608665   -3.1911856417   -0.2910532917
 O    1.0582091427   -3.3708214069    0.5919310603
 C   -0.6029257388   -4.2429105405   -0.8093530700
 C   -1.3287263880   -5.0925746346   -1.2569564161
 H    1.0180093173    1.3931030057    0.6767406169
 H   -1.6538855137   -1.4456871152    0.5202885106
 H   -1.8629595134   -0.6000724151   -1.0381544740
 H   -0.0084916093   -1.9360174719   -2.0316951940
 H   -1.9609562447   -5.8574366542   -1.6392489697