16

 O   -0.0378543054    1.4938426802    0.1520563315
 C    0.0552273923    0.0962125849    0.0991267951
 C   -1.3422287373   -0.5569632742    0.0013718681
 C   -2.0481158848   -0.2302278868   -1.2900648601
 N   -2.0987682878    0.9232985790   -1.8049142860
 O   -2.5980594530   -1.3481930547   -1.8510723938
 C   -2.2543492560   -2.5301067208   -1.1231302617
 C   -1.3559097278   -2.0761887071    0.0309152328
 O   -0.7771741704   -2.8029389440    0.7914568189
 H   -0.5875182665    1.7623531867   -0.6026012917
 H    0.6685411990   -0.2499046743   -0.7488846439
 H    0.5366552773   -0.2479865615    1.0186824320
 H   -1.9372632396   -0.1875898868    0.8470251212
 H   -2.5911031480    0.9191577684   -2.6987798742
 H   -3.1616027407   -3.0149118153   -0.7457535128
 H   -1.7296373014   -3.2309744338   -1.7803787853