15

 C   -0.0842980697    1.5952814025    0.0066303402
 C    0.0331394313    0.0937469943    0.0477604276
 O   -1.1083070683   -0.6055856169   -0.3830444231
 C    1.3066074197   -0.6658601088   -0.2406563281
 O    2.5407379121    0.0287646385   -0.0971953794
 C    2.6060971311    0.3682481236    1.2189808017
 N    1.6625628767    0.0182583597    1.9959872604
 C    0.7054365638   -0.6779475040    1.1671275440
 H    0.7706581681    2.0897534266    0.4700710316
 H   -0.1560508986    1.9485129114   -1.0289858790
 H   -0.9886817818    1.9040031464    0.5391714299
 H   -1.2145503041   -0.4444583972   -1.3281131645
 H    1.3435238770   -1.4819528706   -0.9514282684
 H    3.4923899660    0.9237477059    1.4996889396
 H    0.1675500766   -1.5079768112    1.6085376973