22

 C   -0.3111029788    1.4825684943   -0.0048197997
 C    0.0451760922   -0.0030083543   -0.0115410259
 C    0.9677895142   -0.4170668903   -1.1761608873
 C    1.5522444285   -1.7613704487   -0.7214739425
 C    1.8596587877   -1.5235767961    0.7689366605
 C    0.7755547077   -0.5397537188    1.2430611505
 C    1.0333682170    0.3083312000    2.4645333275
 C    0.0107208013   -0.7993520478    2.5157595534
 H    0.5854428897    2.1048490242    0.0894083150
 H   -0.8158766466    1.7609397083   -0.9361601161
 H   -0.9857401023    1.7387927690    0.8195210950
 H   -0.8891685322   -0.5734416226   -0.1157962948
 H    0.4389703175   -0.4703219432   -2.1328689190
 H    1.7737629615    0.3209743779   -1.2895498057
 H    0.7967761711   -2.5489501189   -0.8323074371
 H    2.4313390660   -2.0706823052   -1.2939568616
 H    1.8738584988   -2.4492205232    1.3528594123
 H    2.8519366798   -1.0665074794    0.8708318189
 H    1.9738918683    0.1605859504    2.9870496058
 H    0.6768360877    1.3323247619    2.4830162514
 H   -1.0379954866   -0.5166811315    2.5461058701
 H    0.2441140777   -1.6940567860    3.0847733192