18

 C    0.0511831891    1.5120380773   -0.0667671283
 C   -0.0193919725   -0.0071724125    0.0280242491
 O    0.6974306330   -0.5085469629    1.1554661750
 C   -1.4771918601   -0.5213653105    0.0608915268
 O   -2.2282531151   -0.0365917110   -1.0348584257
 C   -1.5095908217   -2.0425527710    0.0913594273
 C   -2.7071852728   -2.7859758656   -0.3052466432
 O   -1.6007075360   -2.6435064100   -1.2128123708
 H    1.0912691345    1.8439233880   -0.1238974707
 H   -0.4914654289    1.8657097157   -0.9458029441
 H   -0.4102755091    1.9743910379    0.8163656705
 H    0.4764573827   -0.4536526779   -0.8434412035
 H    0.4331170495    0.0106832614    1.9232197042
 H   -1.9521197279   -0.1348160977    0.9754003325
 H   -2.0770061466   -0.6753481621   -1.7479352134
 H   -0.7850353215   -2.5076378629    0.7549270697
 H   -2.8654405736   -3.7953065937    0.0690664322
 H   -3.6022055732   -2.2364697123   -0.5875872576