15

 N    0.0719505745   -1.1611008673   -0.0616712180
 C    0.0676898956   -0.0060174326    0.0108778690
 C    0.0447540092    1.4234593974    0.1033281863
 N    0.2840093918    2.2535505977   -1.1034071786
 C    1.2899315299    2.2586751585   -0.0408436770
 C    1.2087767748    3.4304924512    0.9371645444
 C   -0.1398911177    3.2948714853    1.6380171047
 O   -1.2807647313    3.3950500817    0.7803997651
 C   -0.8425302550    2.0962971625    1.1468167176
 H    0.5907277703    1.6511423112   -1.8654798033
 H    2.2498735293    1.7881783640   -0.2282267394
 H    2.0138640847    3.3501560976    1.6751116239
 H    1.3071767837    4.3935633937    0.4277981144
 H   -0.2756015516    3.6980663514    2.6386548204
 H   -1.5260155483    1.4892627380    1.7322594504