20

 O    0.1542629332    1.4294455379    0.1186111415
 C    0.0706071179    0.0318167570    0.0538722047
 C   -1.3975460784   -0.4233057368    0.2248356008
 C   -1.5850099611   -1.8739979108    0.6769273658
 C   -1.0775585754   -2.9412392992   -0.3059099929
 N    0.3507031415   -2.9185910581   -0.6073699390
 C    0.8132265663   -1.9407708588   -1.5673457679
 C    0.6680755577   -0.4446166118   -1.2705126422
 O    1.0277413273    0.3812083776   -2.0843298353
 H    0.5307673328    1.7004015293   -0.7358258011
 H    0.6660177051   -0.4186052134    0.8684418995
 H   -1.8234752845    0.2502603894    0.9746078096
 H   -1.9457245078   -0.2330298596   -0.7070887402
 H   -1.0788146274   -2.0188419518    1.6423639802
 H   -2.6510159078   -2.0526817751    0.8654309335
 H   -1.3242369213   -3.9321596479    0.0949954054
 H   -1.6131228894   -2.8537680568   -1.2605783659
 H    0.9092229428   -2.9150902397    0.2377237678
 H    1.8793124088   -2.1057151102   -1.7677196372
 H    0.3094529298   -2.1122751811   -2.5279880872