19

 O   -0.6758061469    0.4874440675    0.1186745987
 C   -0.1402270658    1.5476154175   -0.0715825786
 C    1.3532924014    1.8098142183    0.0506854655
 C    1.8951772241    2.6540338020   -1.1435865357
 C    2.1448183393    4.0642279567   -0.5809536682
 C    3.1418562071    5.0113543405   -1.2082965543
 C    1.6706978335    5.3174916278   -1.2925031066
 C    2.0089264692    3.9254169307    0.8898351054
 C    1.6072891047    2.7061472249    1.2502092142
 H   -0.7296694291    2.4553102069   -0.3444266116
 H    1.8432484524    0.8355098825    0.1418990945
 H    2.8282486269    2.2104857892   -1.5031962112
 H    1.1988499237    2.6633698998   -1.9887605475
 H    3.7585806762    5.6166617550   -0.5518753726
 H    3.6466453337    4.6771635701   -2.1093507828
 H    1.1744009135    5.1909065119   -2.2493775669
 H    1.2774771695    6.1301855547   -0.6906694978
 H    2.2235920550    4.7423717426    1.5708708246
 H    1.4273940615    2.3696248714    2.2641479310