19

 O   -0.0212178608   -0.0224459721   -0.3317370262
 C   -0.0545039973    1.1461159914   -0.0937560837
 C   -1.2170142614    2.1620960158    0.2194176462
 C   -0.1427810559    2.9163345509    1.0239850663
 C    0.4891184101    4.2808848586    1.3886165528
 C    1.4825654257    3.3377965728    2.1808317739
 C    0.2394804642    2.4524520944    2.4553786481
 C    2.2081686765    2.4693538158    1.1050603940
 C    0.9795542224    2.2635383504    0.1855315095
 H   -1.5319854558    2.6693560203   -0.6984165642
 H   -2.0940054291    1.7756436942    0.7421044388
 H    0.8819579042    4.8910979833    0.5700980511
 H   -0.0976925218    4.8960900159    2.0750064718
 H    2.0904926555    3.7334008748    2.9952598384
 H   -0.4313686553    2.8667743609    3.2121926923
 H    0.3990335654    1.3842200315    2.6350507031
 H    3.0234253003    2.9905619972    0.5965032721
 H    2.6119623109    1.5518624599    1.5418448155
 H    1.0923540122    2.7983149640   -0.7673297699