16

 O    0.0212038111   -0.0144522908    0.1318807581
 C    0.0387067937    1.1827425483    0.0336104229
 N   -0.9592882237    2.1347943227   -0.0707032655
 C   -0.0664710072    3.2997176580    0.0136257956
 C    1.0918936353    2.2857823669    0.0220217293
 C    2.3852111494    2.4052720705    0.7936173059
 C    3.1521022888    1.0893995713    0.6374905214
 O    3.0683881286    1.1735223412   -0.8166243564
 C    2.3928641108    2.4171240322   -0.7151309553
 H   -1.9546657595    2.0583718683    0.0735217362
 H   -0.1183927187    3.9663321997   -0.8535148707
 H   -0.1750410556    3.8824116737    0.9352685310
 H    2.5685014004    3.1838583385    1.5222777857
 H    4.1958370080    1.1527209374    0.9607798364
 H    2.6772151101    0.1838055661    1.0232769998
 H    2.5944363784    3.1818976563   -1.4575227443