18

 C    0.0298876534    1.5049462555    0.0123768494
 C   -0.0623732125    0.0210152701   -0.0730534399
 C    0.5275117971   -1.0179622499   -1.0703995722
 C    0.7686048913   -1.9199132634    0.1115006775
 N    0.2190453034   -0.8913530385    1.0959842657
 C   -1.0985129325   -0.9581097815    0.3590788771
 C   -0.5449783400   -2.0244993801   -0.6212347387
 C   -1.1649631698   -3.1349561205   -1.3860983487
 O   -1.6795165208   -4.0927025738   -0.4678641126
 H    1.0746596398    1.8354974923    0.0093132550
 H   -0.4832812048    1.9844067066   -0.8288252128
 H   -0.4322852875    1.8532129160    0.9413824826
 H    1.0246447077   -0.9400454022   -2.0278122411
 H    1.5367875571   -2.6488908025    0.3371064257
 H   -2.0490163309   -0.8360781351    0.8657038302
 H   -1.9657813290   -2.7414014482   -2.0335780599
 H   -0.4025195862   -3.5787574473   -2.0487761255
 H   -2.1916937759   -4.7369237576   -0.9662483118