16

 N    0.0139979542    1.2030305027   -0.4775932508
 C    0.0260470173    0.0142903397    0.1782380545
 O    0.9711030788   -0.4160336137    0.8158709130
 C   -1.2547290815   -0.7446599782    0.0389564532
 C   -1.6998304852   -1.7018277196    1.1465126966
 C   -1.4680989318   -2.2915790907   -0.1818654561
 C   -2.6722900214   -2.0216738257   -1.1007403986
 C   -2.3449883569   -0.5167597105   -0.9495841805
 O   -2.6489480978    0.4555618094   -1.5944270442
 H    0.8402094358    1.7772457580   -0.4512501619
 H   -0.7997397923    1.4955416390   -0.9999799288
 H   -0.9108583425   -1.8364237951    1.8790142579
 H   -2.7064705047   -1.6183474480    1.5463454232
 H   -0.6592012818   -2.9770883788   -0.3935009547
 H   -2.5412785410   -2.3343192069   -2.1397936163
 H   -3.6427863092   -2.3707421516   -0.7371408564