17

 C   -0.0695202198    1.5268452138   -0.0438255632
 C    1.2201740762    1.8942587243   -0.0237940054
 C    1.9569861355    0.5791903640    0.0562241836
 C    3.3769384534    0.0708066846    0.1193198058
 C    3.2277632031   -1.2608670722    0.1749724390
 C    1.7161354181   -1.4950409877    0.1427037098
 C    1.1037277190   -0.3545634817    1.0178353670
 C   -0.0504542546   -0.0014650443    0.0254786514
 C    1.1570419642   -0.4392336913   -0.8644056456
 H   -0.9485509908    2.1544485156   -0.0969683515
 H    1.6494651468    2.8854724152   -0.0562093524
 H    4.2842295051    0.6578915300    0.1186211937
 H    3.9927157400   -2.0231812049    0.2309181849
 H    1.3268739875   -2.5123302346    0.1774397535
 H    1.0893816694   -0.2856942542    2.1114909956
 H   -0.9901090583   -0.5534198947    0.0236912640
 H    1.2046767056   -0.4687934017   -1.9588865003