16

 O    0.1569964609    0.0400764572    0.2422460985
 C    0.0346281477    1.2244682539    0.0996448549
 N   -1.0518621415    2.0546104048   -0.0271810242
 C   -0.3123397635    3.3180762567   -0.0316421226
 C    1.0070444282    2.4663834530   -0.0184535425
 O    1.8422706717    2.6779107450    1.0958189661
 C    3.2107843927    2.7425222764    0.6869741414
 C    3.1668954278    2.6615159409   -0.8110953796
 C    1.9093207042    2.5091286964   -1.2108161096
 H   -2.0399144639    1.8617579895    0.0360883817
 H   -0.4774824058    3.9385887455   -0.9179671886
 H   -0.4235341401    3.9152060363    0.8780362812
 H    3.6583203323    3.6775868900    1.0545096524
 H    3.7719057441    1.9092255581    1.1352393398
 H    4.0486102082    2.7138780602   -1.4363054902
 H    1.5473091870    2.4036395662   -2.2248137986