18

 C   -0.0851053653    1.5879286292   -0.0775495505
 C    0.0418809666    0.0793094509   -0.0008183233
 C    1.0388069362   -0.6718598510   -0.9198808677
 C    1.3462073394   -1.6475652028    0.2397137881
 C    0.7681602649   -0.5845085955    1.2530558062
 C    1.8097870146    0.2475558273    1.8390043398
 C    2.6851487763    0.9306082675    2.2979917405
 C   -0.1270675633   -1.1042920411    2.2847359195
 N   -0.8643342955   -1.5330019836    3.0651827536
 H    0.8867833600    2.0743269026    0.0429154414
 H   -0.4964629619    1.8795953916   -1.0498259006
 H   -0.7555668925    1.9708657155    0.6986693994
 H   -0.9438559095   -0.3901377630   -0.0718056118
 H    0.6403025574   -1.0978602169   -1.8420050260
 H    1.9040298591   -0.0485960570   -1.1620535543
 H    0.7111122825   -2.5351650201    0.2202835082
 H    2.3811327717   -1.9410321416    0.4137564520
 H    3.4538378693    1.5309888379    2.7189389355