17

 C    0.0133144548    1.5041664921   -0.4481380586
 C    0.1053610672    0.0182123453   -0.1698699844
 O    1.1362112062   -0.6178121525   -0.2150982633
 N   -1.0850648744   -0.6111229656    0.1493012703
 C   -1.2957174141   -2.0362364436    0.4682831825
 C   -2.8144423270   -1.7228871344    0.5702344048
 O   -3.3613983909   -1.9891204863    1.8338111330
 C   -2.4401384020   -0.2623291564    0.3048101476
 N   -3.1498939785    0.7800900575    0.3077123200
 H    0.9977124748    1.8607337140   -0.7501592007
 H   -0.7120326830    1.7120003816   -1.2413514872
 H   -0.3049960924    2.0444933935    0.4499468597
 H   -0.9836136816   -2.7124039082   -0.3291740805
 H   -0.8513104398   -2.3332076299    1.4200369448
 H   -3.4067149675   -2.1639986292   -0.2427139836
 H   -4.0993920405   -1.3808848196    1.9587680870
 H   -2.6203749812    1.6365296217    0.1521339685