22

 C   -0.1349109883    1.6400897438   -0.0193774368
 C    0.0551021443    0.1180777596    0.0406770752
 C    0.7435068405   -0.4698116642   -1.1995668218
 C    2.1369706381    0.1114597376   -1.4438266229
 C    0.6811271313   -2.0433168951   -1.3587718719
 C    0.0895747505   -2.9130284287   -0.2592769927
 N   -0.1906546939   -1.8114543913   -2.5195846549
 C   -0.1453635960   -0.4423219319   -2.4744863405
 O   -0.6163651121    0.4167219245   -3.1761448272
 H    0.8204193326    2.1718388830    0.0160907479
 H   -0.6474728322    1.9284476266   -0.9412393810
 H   -0.7328168545    1.9826837229    0.8305552429
 H    0.6364242825   -0.1509997355    0.9331704893
 H   -0.9280778236   -0.3497878416    0.1605170449
 H    2.7779241433   -0.0254937836   -0.5652071967
 H    2.6229656216   -0.3726953022   -2.2969284443
 H    2.0815788898    1.1807862149   -1.6623103879
 H    1.6593806559   -2.4454189206   -1.6524959116
 H   -0.9073483506   -2.5763413098    0.0347866767
 H    0.0069101400   -3.9512993921   -0.5988698102
 H    0.7353203775   -2.9073779247    0.6249640023
 H   -0.5583770268   -2.4394560615   -3.2201356987