20

 C    0.2620115394    1.4880070804   -0.0712042962
 C   -0.0966951767    0.0179099123    0.0308355362
 C   -1.4382637438   -0.3814632012    0.6750886961
 O   -0.7891411292   -1.3966933200    1.4764376096
 C    0.5227201014   -0.8654721554    1.1496410149
 C    1.4838985591   -1.8515055738    0.4863010091
 C    1.1578953125   -1.7591994719   -1.0007935761
 C   -0.2356213614   -2.0506759447   -1.4079960698
 N    0.2050745598   -0.6512991866   -1.2560285280
 H    1.3071595556    1.6068150287   -0.3740430953
 H   -0.3568241940    1.9806519248   -0.8273271178
 H    0.1172964430    1.9988922846    0.8859009915
 H   -1.8785837737    0.4037756422    1.3030419975
 H   -2.2087034405   -0.7941480102    0.0154834162
 H    0.9560229652   -0.3521550687    2.0162730406
 H    2.5181524981   -1.5423729834    0.6715698177
 H    1.3608996186   -2.8600869849    0.8930930612
 H    1.9717393565   -1.8682434965   -1.7124433021
 H   -0.4596383311   -2.3309168629   -2.4337563839
 H   -0.8860962288   -2.4921945727   -0.6588041315