15

 O   -0.1960275453    1.4602980532    0.0026629753
 C   -0.0937748966    0.0745777810   -0.0038504669
 C   -1.3542579411   -0.7615068765    0.0499163321
 N   -2.5576542356   -0.1264719354   -0.4042765465
 C   -2.3251907393    0.3572149494   -1.6808382440
 N   -1.2223562383   -0.0243124848   -2.2411537407
 C   -0.4839901985   -0.7309521604   -1.2267326675
 C   -3.3020935771    1.1853618967   -2.3058933058
 C   -4.1420674497    1.8915843831   -2.7963668070
 H   -0.0236141691    1.7728870389   -0.8939763286
 H    0.7503801803   -0.3228569050    0.5559930143
 H   -1.4622837145   -1.6022853644    0.7250590105
 H   -3.1457152162    0.3916564596    0.2302533890
 H    0.1473516574   -1.5458663681   -1.5601597411
 H   -4.8761831464    2.5128559127   -3.2478008531