21

 C    0.3232811878    1.5669510157    0.0372090394
 C   -0.0054851782    0.0938997051   -0.0287065397
 C    0.0189115251   -0.5423833088   -1.2068222469
 C   -0.2889050035   -1.9951362926   -1.5159519016
 C   -1.5465100686   -2.5126751799   -0.8361584232
 O   -1.4525244546   -3.7512975858   -0.1173330791
 C   -1.6268741367   -2.5389970346    0.6251454390
 C   -0.4631647668   -2.0211431685    1.4404505451
 C   -0.3409000268   -0.4936089686    1.3312429529
 H    1.1947895104    1.7504547132    0.6791717819
 H    0.5345245123    1.9827716543   -0.9510077047
 H   -0.5067860550    2.1375376423    0.4747170299
 H    0.3046186438    0.0525839101   -2.0721910082
 H   -0.3898917282   -2.1117315087   -2.5998564525
 H    0.5448443506   -2.6452470400   -1.2260121180
 H   -2.4716937520   -2.4000815938   -1.4015707153
 H   -2.6097535902   -2.4406950311    1.0893551422
 H   -0.5873615768   -2.2997024246    2.4930595103
 H    0.4568997176   -2.5013439982    1.0964444621
 H    0.4245461797   -0.1501116120    2.0410362871
 H   -1.2731430299   -0.0263152834    1.6867945093