16

 N   -0.2562396298    1.3483844589   -0.3893428572
 C   -0.0774595859   -0.0058993117   -0.1135061976
 C   -1.0402966867   -0.9758134797    0.0007460763
 C   -2.5315993328   -0.9079831853   -0.0380564068
 C   -2.9320682479   -0.3272535842   -1.3843890715
 O   -3.1536953315    0.8459934870   -1.5624228786
 O   -0.4471615004   -2.2050868134    0.1669791325
 C    0.8899374596   -1.9982209899    0.1885141158
 C    1.1830021800   -0.6830801677    0.0204454207
 H    0.3372723671    1.9656845416    0.1464109298
 H   -1.2205669627    1.6532985538   -0.3783559991
 H   -2.9364686078   -1.9169375435    0.0823597444
 H   -2.9342031036   -0.2617486640    0.7515507464
 H   -2.9402868205   -1.0496771376   -2.2286984294
 H    1.4987634003   -2.8764026281    0.3287477080
 H    2.1655557128   -0.2389895363   -0.0201991838