17

 C   -0.0669980473    1.5101722877   -0.0326421497
 C   -0.0190067910    0.0560940094   -0.0442214633
 C    0.0151189408   -1.1506801424   -0.0542861185
 C    0.0454635257   -2.5634103425   -0.0668673787
 C    1.1697987713   -3.3817994706    0.0184705306
 C    2.6155457165   -3.0400080338    0.1431213276
 N    0.6985757992   -4.6509469404   -0.0345496301
 N   -0.6460381570   -4.7340993614   -0.1479706337
 C   -1.0448700917   -3.4721445757   -0.1678437358
 H    0.4984223856    1.9385757838   -0.8683371812
 H   -1.0987665374    1.8697037925   -0.1150733415
 H    0.3510138212    1.9196768879    0.8942829233
 H    3.0529312102   -3.4444062109    1.0632349153
 H    3.2004823899   -3.4255142732   -0.6999017370
 H    2.7275019841   -1.9542200212    0.1641241943
 H    1.2347184548   -5.5017621591    0.0012150292
 H   -2.0942530547   -3.2329308301   -0.2531067249