13

 N   -0.0856280815    1.0670216051   -0.7407539400
 C   -0.0300439612   -0.0483687750   -0.1655889716
 O   -0.9907396469   -0.9803066673   -0.4843560623
 C   -0.9937700903   -2.1597067247    0.2046429350
 O   -0.2444638621   -2.4345260569    1.1022714370
 C   -2.0753081630   -3.0718835606   -0.2841063788
 C   -3.3759496477   -2.5408313854   -0.7423235480
 O   -2.4133735311   -3.0216810488   -1.6657701272
 H    0.6831714775    1.6571247102   -0.4256234920
 H    0.6849749378   -0.4127040391    0.5719027002
 H   -2.0188617880   -4.0618891518    0.1611617986
 H   -4.2597914219   -3.1624083494   -0.6101242945
 H   -3.5342715616   -1.4653678763   -0.7515484063