19

 C   -0.0665487676    1.3865507713   -0.0188394039
 O    0.2633113894    0.0234925969    0.1321446737
 C    0.7037648565   -0.5854444466   -1.0474631644
 C    1.3511505051   -1.9510948911   -0.8726531268
 N    0.3012966258   -2.8966152749   -0.4208337425
 C    0.4125536294   -2.5616426770   -1.8577779686
 C   -0.3499585396   -1.2408933830   -2.0489492667
 C   -1.8229542433   -1.2254324856   -1.6664147629
 H    0.7949774849    1.9743323908   -0.3741912880
 H   -0.8993436627    1.5410800359   -0.7198126043
 H   -0.3645385685    1.7580727622    0.9646034405
 H    1.3748461402    0.0883871789   -1.6013007639
 H    2.3973203194   -2.1566487166   -0.6810540435
 H    0.7632395572   -3.7950823006   -0.2831562505
 H    0.6053037821   -3.3279249284   -2.5985460999
 H   -0.2004719831   -0.8423803275   -3.0571009794
 H   -1.9540956119   -1.5912259380   -0.6468712710
 H   -2.2414426530   -0.2157798959   -1.7305363659
 H   -2.4019989903   -1.8655889209   -2.3416414718