25

 C   -0.0462369422    1.4064453322   -0.0078835430
 O    0.1533699425    0.0176232211   -0.0903472211
 C    0.6544088412   -0.5379298698    1.1068798353
 C    0.8318479189   -2.0386733172    0.9152003758
 C    1.3634432727   -2.7375181209    2.1592301994
 C    0.4475081706   -2.8806685878    3.4100817005
 C    1.0237246943   -4.3083459954    3.6268802849
 C    0.0963783451   -5.4203534402    4.0909362124
 C    1.4996375907   -4.2852283462    2.1466776793
 H    0.8920836030    1.9446385329    0.2040447498
 H   -0.4331947646    1.7417041771   -0.9735613750
 H   -0.7736744831    1.6713507585    0.7767356004
 H    1.6186740257   -0.0684427033    1.3723839028
 H   -0.0389737906   -0.3345121629    1.9418748831
 H   -0.1347094673   -2.4717229167    0.6281131922
 H    1.5126819479   -2.2041123351    0.0706614376
 H    2.3198087372   -2.2884178447    2.4554271870
 H    0.5546145940   -2.1537949798    4.2197741819
 H   -0.6090071166   -2.9233730969    3.1191289084
 H    1.8949072317   -4.2522152765    4.2901438057
 H   -0.7828674767   -5.4950567274    3.4406379724
 H    0.6019840974   -6.3927471149    4.0794277223
 H   -0.2594582727   -5.2437123349    5.1124553040
 H    0.7519869989   -4.7396176220    1.4858255874
 H    2.4771668820   -4.7142645092    1.9105890463