17

 C   -0.1093177930    1.4994925831    0.0147657902
 N    0.0067977199    0.0476170435    0.0638285683
 C    1.3189099848   -0.5328125748   -0.1830974093
 C    0.7242784153   -0.5149408989    1.1836887823
 C    1.2824741626    0.1483816893    2.4377538872
 N    0.1345223705    0.2838765793    3.3508040764
 C    0.8680166258   -1.0272222464    3.2821128500
 C    0.3304381197   -1.7267868908    2.0413154755
 O   -0.0584315512   -2.8299088250    1.7980563690
 H    0.8004156767    2.0260317349    0.3471309197
 H   -0.3248786804    1.8023567791   -1.0139239212
 H   -0.9402189133    1.8102287102    0.6535000804
 H    1.3327007003   -1.4595958657   -0.7500109232
 H    2.1594094201    0.1391511610   -0.3605646943
 H    2.1807600966    0.7419357411    2.5423372531
 H    0.4658771230    0.7393386990    4.2026003329
 H    1.3353835625   -1.4510568489    4.1609194530