23

 C   -0.0902852844    1.5221470609   -0.3026377876
 C   -0.0490926046   -0.0036301484   -0.1911153667
 C   -1.4208898748   -0.6125744813    0.1227848352
 O   -2.3574010206   -0.2915548640   -0.9129265512
 C   -3.0078510598   -1.4702461041   -1.4032167626
 C   -2.8983135519   -1.5435342036   -2.9309014962
 C   -3.5495486481   -0.3474783834   -3.6290953994
 C   -2.3340871800   -2.5983328265   -0.6679770681
 C   -1.4427852392   -2.1166508931    0.1890115476
 H    0.8961674351    1.9279192850   -0.5465150350
 H   -0.7912478324    1.8296144837   -1.0830023408
 H   -0.4163441869    1.9779859157    0.6391553014
 H    0.3168983714   -0.4444842188   -1.1259392799
 H    0.6495268913   -0.3053720135    0.6003622410
 H   -1.7820132098   -0.1752432134    1.0716695631
 H   -4.0796309221   -1.4169742134   -1.1376999233
 H   -1.8365386705   -1.6083697728   -3.1966606621
 H   -3.3695437796   -2.4775227597   -3.2643101128
 H   -3.4393851277   -0.4153294174   -4.7155928115
 H   -4.6207685853   -0.2943300049   -3.4038380970
 H   -3.0909650832    0.5866560425   -3.2945087264
 H   -2.5768734654   -3.6393893562   -0.8415467877
 H   -0.8082788916   -2.6835930631    0.8589740402