17

 C    0.0306617994    1.3845027616   -0.0535330511
 N    0.0079000512   -0.0445421613   -0.2984185671
 C    1.1846803383   -0.7702716527    0.1643604239
 C   -1.2219224140   -0.6467836957   -0.1151019808
 C   -2.4691263614   -0.1622445365    0.1706895367
 C   -3.3474826689   -1.2990109426    0.1303131325
 C   -2.5798638934   -2.3750570571   -0.1573078800
 O   -1.2698253250   -1.9894705734   -0.3150810443
 H    0.9938740179    1.7861091234   -0.3789819690
 H   -0.7581636908    1.8704858935   -0.6341617590
 H   -0.1119396220    1.6432397901    1.0096619168
 H    1.3016372744   -0.7354347281    1.2605393713
 H    1.1172219988   -1.8134155780   -0.1435495066
 H    2.0757852704   -0.3293012763   -0.2913857923
 H   -2.7320746798    0.8574781268    0.3947763865
 H   -4.4122869862   -1.3019815930    0.3049068667
 H   -2.7672399589   -3.4284070304   -0.2740228941