17

 O    0.1281815915    1.4152691894   -0.0728427699
 C    0.0809201134    0.0317376329    0.0228729857
 C    0.2437791623   -0.6781411458    1.4438034794
 O    0.7296702334   -0.3078231584    2.4675040248
 C   -0.6569337382   -1.8498790554    0.9462879548
 C   -2.2152851372   -2.0596456507    0.9514279706
 C   -2.3588421368   -0.5221307266    1.0195204844
 C   -1.2294035250   -0.7922465558   -0.0326901659
 C   -2.1524198889   -1.9139507131   -0.6227337905
 H   -0.2916554214    1.7879740409    0.7106673777
 H    0.8213113246   -0.3782691191   -0.6741240128
 H   -0.0595798751   -2.6470242476    0.4911372312
 H   -2.7863417803   -2.8080630029    1.5044746633
 H   -3.2820418006   -0.0906656902    0.6262215085
 H   -2.0714984485   -0.0512621020    1.9634627194
 H   -1.6537374777   -2.7170651001   -1.1702330575
 H   -3.0751048455   -1.5968552455   -1.1156518432