17

 O    0.3814674473    1.1654288073   -0.6062940399
 C    0.0999498256   -0.1208133980   -0.0689052572
 C    0.5989114510   -0.3217583786    1.3444093486
 C   -0.3368593456   -0.7888802128    2.1725003249
 C   -1.6490447783   -0.9925396106    1.4678507215
 O   -2.6050400131    0.0704939109    1.7325421024
 C   -2.4029288842    0.6300613434    0.4171040266
 C   -1.4061665323   -0.4931193860    0.0286332605
 O   -1.8394722368   -1.3784997883   -0.9720813836
 H    0.1805391926    1.8196302066    0.0720455598
 H    0.5774374506   -0.8200565878   -0.7671498588
 H    1.6238017353   -0.0860921784    1.6127353839
 H   -0.2035219376   -0.9874111662    3.2300615382
 H   -2.1002626132   -1.9820136056    1.5898991544
 H   -3.3202453223    0.6110416929   -0.1815653451
 H   -2.0132020974    1.6549332849    0.4533426379
 H   -1.6475413115   -0.9784375037   -1.8279311042