20

 C    1.1782746915   -0.6238169549    1.1182143596
 N    0.6387533588   -0.3347974784   -0.2046471156
 C    1.2139768229   -1.1911101155   -1.2374542521
 C   -0.8024697219   -0.1735989815   -0.2288623022
 C   -1.2734292118    0.5900301589   -1.5038895302
 C   -2.6322717580    1.1038766239   -1.3991040778
 C   -3.7508101929    1.5314722321   -1.2928426869
 C   -1.6367403492   -1.4425644932   -0.0389481645
 O   -1.1799764934   -2.5336007930    0.1931893692
 H    2.2678307203   -0.5137475058    1.0903675940
 H    0.7898003556    0.1021823614    1.8405865387
 H    0.9443383629   -1.6357480719    1.4818380153
 H    0.9894585831   -2.2588024465   -1.1035531184
 H    0.8625496649   -0.8851525296   -2.2270342804
 H    2.3016528824   -1.0636318652   -1.2286583131
 H   -1.0725431683    0.4723006117    0.6203704294
 H   -0.5674967475    1.4137606678   -1.6539081681
 H   -1.1945559983   -0.0565041306   -2.3857800142
 H   -4.7393216177    1.9106825225   -1.2109007446
 H   -2.7359637531   -1.2845930922   -0.1226681677