17

 O   -0.1034563171    1.4068257206   -0.0142465811
 C    0.0423872393    0.0246620686   -0.0037009417
 C    0.9163182043   -0.7813611713   -1.0103927779
 C    0.7343610513   -1.9192826850    0.0295580124
 C   -0.7794565722   -2.1710572876    0.0734000063
 C   -1.2914682172   -1.5150408847    1.3397257478
 O   -0.2098314193   -1.1209857174    2.1465572486
 C    0.7226079895   -0.8112165883    1.1486629068
 C   -1.2897187739   -0.7316339319    0.0461044636
 H    0.7719326564    1.8064956727   -0.0045960413
 H    0.5250592379   -0.9369819524   -2.0182273631
 H    1.9486979342   -0.4169702323   -1.0573037162
 H    1.4013015254   -2.7775237892    0.0732640218
 H   -1.2684925834   -3.0044996868   -0.4113033508
 H   -2.1768759081   -1.8173582321    1.8819678919
 H    1.6693589159   -0.4711729173    1.5630549305
 H   -2.1749663730   -0.3837275254   -0.4671060574