18

 C    0.2798975237    1.5539787963    0.0987466927
 C   -0.2546818770    0.1506613774   -0.2080732964
 C    0.5079596554   -0.5069385667   -1.3333797099
 N    1.7870609870   -1.1256032304   -0.9960640923
 C    0.6742148239   -1.9985542334   -1.4544643196
 C    0.1124953315   -2.9102135360   -0.5049858924
 C   -0.3927240554   -3.6990265976    0.2600000686
 C   -0.9658076342   -4.6136650742    1.2096908856
 O   -1.6185670384   -5.5904921363    0.9176536497
 H    1.3351703827    1.5091520731    0.3846979949
 H    0.1935528681    2.2141786257   -0.7715839250
 H   -0.2759104803    2.0140152121    0.9207646486
 H   -0.1827621747   -0.4813646090    0.6820650517
 H   -1.3159477945    0.2001098305   -0.4814482621
 H    0.4432961565    0.0089170214   -2.2921260293
 H    2.4580852022   -1.0221442153   -1.7530874736
 H    0.7296787020   -2.3856239605   -2.4695233106
 H   -0.7599498086   -4.3511008471    2.2676333993