17

 O    0.3017548695    1.4573650126   -0.3455040356
 C   -0.0401949006    0.1705116843    0.0566310743
 C    0.1126373450   -0.1229028326    1.5881615226
 C   -1.3852524331   -0.5598326930    1.6837294099
 C   -1.5754260732   -0.1085778373    0.1992510056
 C   -1.5850987751   -2.0328356296    1.9117588501
 O   -2.2878144514   -2.5116248911    2.7631718062
 C    0.6674124130   -0.8421501586   -0.8140605333
 O    1.4057869641   -0.5071885475   -1.7086197287
 H    0.9143009038    1.3517641278   -1.0921402202
 H    0.8608482532   -0.8668913790    1.8781535053
 H    0.3139047184    0.8062219101    2.1222818337
 H   -1.9827596578   -0.0159499806    2.4156845965
 H   -2.1288553108    0.8269591774    0.1123089778
 H   -2.0115682202   -0.8425371542   -0.4852403340
 H   -1.0150080958   -2.6911501067    1.2101576129
 H    0.4749743410   -1.9112261620   -0.5908986230