23

 C   -0.2309963550    1.5174802413   -0.0800103754
 C    0.0513859579    0.0253655385    0.0112400801
 O    0.7523314557   -0.4217082328   -1.1702710448
 C    1.8757321108   -1.2193255103   -0.7291877366
 C    2.3032700503   -2.1248884414   -1.8624517012
 C    2.9407306070   -0.2324832473   -0.1944826622
 C    2.3036830376    0.2558259858    1.1452001661
 C    0.9445171639   -0.4825377197    1.1632955150
 C    1.3407072365   -1.8497523772    0.5705306303
 H    0.6883285632    2.1018491416   -0.1698010897
 H   -0.8438742411    1.7244096159   -0.9622371879
 H   -0.7807189942    1.8607621383    0.8032927632
 H   -0.9150739919   -0.5023812891    0.0585596274
 H    2.6195981575   -1.5345727435   -2.7281614702
 H    3.1410463246   -2.7586993406   -1.5557723964
 H    1.4745635812   -2.7664702213   -2.1755731893
 H    3.9035087585   -0.7283151073   -0.0335201225
 H    3.0933267641    0.5755308027   -0.9142068064
 H    2.9057013716   -0.0514358765    2.0056900792
 H    2.2022102583    1.3417597884    1.2000599422
 H    0.4407719663   -0.4891922608    2.1315678346
 H    0.4952210382   -2.5206913653    0.3942980137
 H    2.1087170588   -2.3715178594    1.1488381808