17

 C   -0.0476173302    1.4506350397    0.0151586284
 N    0.0026561400   -0.0082247799   -0.0032940978
 C   -1.1785022734   -0.7096161414   -0.0057983405
 C   -1.2192591755   -2.0720508428   -0.0395253636
 N   -2.4210523745   -2.8071488129   -0.1405677205
 C    0.0333210684   -2.7556570521   -0.0537176147
 C    1.2067197628   -2.0726565039   -0.0274889168
 C    1.2717364054   -0.6238700936   -0.0035795218
 O    2.3044657703    0.0371669402    0.0134064371
 H    0.9811356131    1.8068046069    0.0158316975
 H   -0.5704960380    1.8271015307   -0.8696222551
 H   -0.5627343332    1.8060911531    0.9133352799
 H   -2.0780016798   -0.1043691536    0.0096662787
 H   -3.2397345386   -2.2532892860    0.0780959660
 H   -2.4197698146   -3.6329596823    0.4461237004
 H    0.0328926556   -3.8420171482   -0.0908217096
 H    2.1629466322   -2.5809767538   -0.0325065976