17

 C   -0.0573271272    1.4688664468    0.0541388194
 N    0.0522877029    0.0249962484    0.0869767157
 C   -1.0156097567   -0.6429646138   -0.0353122988
 N   -1.0135475362   -2.0304907238   -0.0168010781
 C    0.1205515701   -2.8573981618    0.1341675585
 C   -0.2173746306   -4.1477932613    0.1102018649
 C   -1.7069313334   -4.2673290100   -0.0712663550
 C   -2.1748896444   -2.8104315670   -0.1484432420
 O   -3.2916202329   -2.3759412384   -0.2911352607
 H    0.5577860512    1.8647706888   -0.7622824894
 H   -1.0878690591    1.8340049025   -0.0771139298
 H    0.3436237512    1.8880306161    0.9842195264
 H   -2.0237905146   -0.2362904901   -0.1644939034
 H    1.0795434463   -2.3764275076    0.2453369336
 H    0.4645137282   -4.9788403777    0.2054779110
 H   -2.0024445931   -4.7946841091   -0.9858510795
 H   -2.2174549617   -4.7719103920    0.7573048373