18

 C   -0.2045806758    1.4946175785   -0.0389184116
 C    0.1307674232    0.0081517837   -0.0275544161
 C    1.0460794513   -0.4887637740   -1.1552099819
 C    1.6275907996   -1.7622048231   -0.5876424834
 N    2.1453855518   -2.7080968461   -1.2403266801
 O    1.4920892064   -1.7516443440    0.7806474519
 C    0.9047348456   -0.5065802255    1.2182319619
 C    1.9439442799    0.4015037047    1.7015589515
 C    2.7958452283    1.1484596581    2.1021768453
 H    0.7022293693    2.1044613733   -0.0005821036
 H   -0.7540216197    1.7527604747   -0.9492796964
 H   -0.8309342224    1.7680267994    0.8165109855
 H   -0.7991917848   -0.5721234348   -0.0600872520
 H    0.5391182014   -0.6745955131   -2.1022885210
 H    1.8560819999    0.2272894390   -1.3401994676
 H    2.4701196500   -3.4434021688   -0.6095949624
 H    0.2263668182   -0.7523092995    2.0409408874
 H    3.5533996378    1.8009827376    2.4614593427