16

 O   -0.2511329708    1.4039424156    0.0611434329
 C   -0.0269559819    0.0523418746    0.0767050108
 C   -0.1254135065   -0.8274695964   -1.2278281129
 C    0.8040837862   -2.0268826761   -1.4078326543
 C    0.5155564995   -2.8722150817   -0.1289644670
 N   -0.1952717454   -1.9415323158    0.7833592217
 C   -1.0372496871   -1.0627360523   -0.0750818438
 C    0.6693104089   -0.8060353497    1.0908494186
 O    1.5787445665   -0.7130129988    1.8593064100
 H    0.5538179953    1.8479068048   -0.2287870905
 H   -0.4720770928   -0.2552965295   -2.0824790944
 H    0.5546164384   -2.5725553281   -2.3231027953
 H    1.8562894486   -1.7335653035   -1.4753821127
 H   -0.1331316710   -3.7247516329   -0.3461110406
 H    1.4175583309   -3.2386053910    0.3644492662
 H   -2.1157886790   -1.0453102191   -0.0099853185