20

 C   -0.2620667022    1.4161199021   -0.3361571796
 C    0.0733814201   -0.0073509003    0.0906923992
 C    1.2321655685   -0.7862852535   -0.5948552425
 N    1.8806172061   -1.1222371985    0.7234809120
 C    2.2449638332    0.1784368536    1.3169296595
 C    0.8331972847   -0.2500290252    1.4013345165
 C    0.1759854000   -0.6341085253    2.6836576405
 C    0.1845611448   -2.0202466994    3.1755457933
 O    1.0289019026   -1.0205325786    3.7576825135
 H    0.6232833948    2.0593537237   -0.3326944457
 H   -0.6784439254    1.4294365685   -1.3493367691
 H   -1.0045924703    1.8656617323    0.3323620216
 H   -0.8359177390   -0.6173376927    0.0775118914
 H    0.9217871732   -1.6960903225   -1.1118339672
 H    1.8817874417   -0.2033996321   -1.2579363936
 H    2.8271620884    0.0722663034    2.2258300117
 H    2.5475998410    0.9923761414    0.6609685675
 H   -0.6542083110    0.0129205189    2.9768905348
 H   -0.6227403132   -2.3765537127    3.8137571520
 H    0.7053425420   -2.7714886431    2.5867512342