16

 C   -0.0415742339    1.3817605550    0.0223687742
 O   -0.1119128500   -0.0400878223   -0.0111268063
 C    0.5490536824   -0.6348606330   -1.0151634004
 N    0.6702688358   -1.8930802895   -1.0414659293
 C    1.2643621833   -2.4786534291   -2.1588861571
 C    1.0588260745   -2.2158565599   -3.4859513860
 O    1.8013684911   -3.0581393431   -4.2571313767
 C    2.4923410138   -3.8643886020   -3.4095091262
 C    2.1992420720   -3.5716134648   -2.1183819478
 H    0.9647183367    1.7231930275    0.2915512648
 H   -0.3277074756    1.8200184478   -0.9412897469
 H   -0.7477117313    1.7065101861    0.7870555258
 H    0.9492672072    0.0453161023   -1.7812956252
 H    0.3968798681   -1.5483701150   -4.0113820027
 H    3.1397264084   -4.5875762684   -3.8774555666
 H    2.5910651976   -4.0444450617   -1.2322185137