19

 C   -0.0461207061    1.6139923949    0.1251143005
 C    0.0181804974    0.0894666814   -0.0080329675
 C   -1.3758168241   -0.5410684760   -0.1010873455
 C   -1.3823669498   -2.0886580540   -0.0395638448
 C   -0.5982170444   -2.7456003677   -1.1819036974
 O   -0.7903064999   -2.5661531306    1.1645220530
 C   -2.7963437602   -2.5418741138   -0.0978917120
 N   -3.9031343932   -2.8746628000   -0.1150937377
 H    0.9571919536    2.0464383967    0.1822545341
 H   -0.5565976908    2.0681317928   -0.7312616875
 H   -0.5894772262    1.9113070762    1.0287350766
 H    0.6049909427   -0.1705021228   -0.8962681797
 H    0.5464497110   -0.3408381881    0.8493940589
 H   -1.9993749930   -0.1732412124    0.7252584855
 H   -1.8802814565   -0.2248787630   -1.0220453937
 H    0.4565567627   -2.4767421637   -1.0997597932
 H   -0.6845503465   -3.8318732309   -1.1152441465
 H   -0.9798523665   -2.4179707977   -2.1517141711
 H   -1.2946254202   -2.2205790410    1.9102089880