15

 C    0.0125351517    1.5475261629    0.0192134868
 C    0.1196552157    0.0505526830    0.0269956871
 N   -0.7874651972   -0.8071509799    0.8455196681
 C    0.6632977320   -0.8191923628    1.0950607866
 C    1.3216055480   -1.9984694395    0.4085033954
 O    1.0219022633   -1.8567719788   -0.9924314062
 C    0.4291714056   -0.6622928205   -1.2682625660
 O    0.2313160227   -0.2773011455   -2.3839875009
 H    0.9369648093    2.0052914377   -0.3454313918
 H   -0.7962835592    1.8634356292   -0.6461447415
 H   -0.1879753324    1.9316536032    1.0242007815
 H   -1.2388332878   -0.2063520746    1.5342398333
 H    1.0680859228   -0.4284523964    2.0217819686
 H    2.4098651662   -1.9887416648    0.5328596414
 H    0.9228087495   -2.9592084431    0.7450154875