17

 C   -0.5821246103    1.2924595324    0.1179232113
 C    0.1223699137   -0.0548368466    0.0972545106
 O    0.5282079668   -0.2659510309   -1.2760712192
 C    1.0706941898   -1.4548538265   -1.6394461527
 N    1.5411927549   -2.4329841971   -0.9974303120
 C    1.7062381612   -2.5274439361    0.4482210489
 C    1.9868594611   -1.2507909284    1.2125387236
 C    1.2863771016   -0.1318671032    1.0529601549
 H    0.1160875987    2.0904871659   -0.1526972422
 H   -1.4136865891    1.3035908947   -0.5903025653
 H   -0.9708966383    1.4961362622    1.1200993667
 H   -0.5998702603   -0.8475731635    0.3405755549
 H    1.0690722926   -1.5018442442   -2.7297946708
 H    0.8232646786   -3.0312904823    0.8740875215
 H    2.5339235659   -3.2249982901    0.6148184380
 H    2.8145188873   -1.2746595086    1.9176414303
 H    1.5369054359    0.7668054023    1.6103247415