16

 N    0.2562500650    1.2161990844   -0.4455478343
 C   -0.0126905419   -0.1131105531   -0.0672087832
 C   -1.1257961532   -0.7189941247    0.4768330893
 C   -0.7876735054   -2.0838001395    0.7116221335
 C    0.5125260276   -2.2775522250    0.3063758354
 C    1.3835251031   -3.4849532315    0.3035454705
 O    1.9201950804   -3.7863956236   -0.9877857889
 N    0.9745067367   -1.0583782081   -0.1571780762
 H    0.3793520094    1.3176985028   -1.4490950069
 H   -0.5035888197    1.8237745073   -0.1654934106
 H   -2.0744154176   -0.2398496911    0.6657987720
 H   -1.4301977582   -2.8447140492    1.1296096748
 H    2.2680639639   -3.3522527572    0.9395052753
 H    0.8126288169   -4.3286782208    0.7176858714
 H    1.1720516318   -3.8406258861   -1.5926730768
 H    1.9037362213   -0.8890241746   -0.5031947752