16

 N    0.1064462936    1.3126593159    0.5253199540
 C    0.0362898759    0.0004051208    0.1648463804
 N   -1.1816446022   -0.5547266601    0.1473167472
 C   -1.2477752020   -1.8484623545   -0.1652298053
 C   -2.6207129902   -2.4887046007   -0.1834493216
 O   -2.5794523694   -3.8432040487   -0.5397879545
 N   -0.2279458194   -2.6497109290   -0.4695777668
 C    0.9877283402   -2.0800168620   -0.4534914414
 C    1.1881143339   -0.7542602910   -0.1421961172
 H    0.9360558209    1.8413579786    0.3184466728
 H   -0.7659877544    1.8153742221    0.5545594724
 H   -3.0687958842   -2.3562648188    0.8140520977
 H   -3.2525106348   -1.9173325350   -0.8813017818
 H   -1.6388902129   -4.0384522321   -0.6793683680
 H    1.8276270114   -2.7242576813   -0.7024978397
 H    2.1785315636   -0.3150529842   -0.1303307182