10

 N    0.0267349645    1.3477080183    0.0560725975
 C   -0.0373051246    0.0056909513    0.0152614998
 N   -1.1858353235   -0.6132402129   -0.0001531034
 O   -1.1218732690   -1.9925190227   -0.0126372793
 N    0.0641560012   -2.7069328658   -0.0120202899
 N    1.1635244464   -2.1169942336   -0.0122193030
 C    1.2475922920   -0.7099528733   -0.0083100256
 O    2.3131150450   -0.1362281756   -0.0268125023
 H    0.9377042422    1.7684284422   -0.0243409159
 H   -0.8076271042    1.9059376521   -0.0040920979