18

 C   -0.0435963540    1.4767874022   -0.0056139198
 C   -0.0025853553   -0.0269154652   -0.0738344240
 C    0.5511398598   -0.8159593709   -1.2926887425
 C   -0.3048066700   -1.9832018053   -0.7299777690
 O   -0.7992332962   -3.0245587871   -1.4989067878
 C    0.1829416480   -2.2362815045    0.7217512888
 C    0.3974528556   -0.8413288294    1.1829170781
 N   -0.9448501935   -1.4921309691    1.3807317556
 C   -1.2566375204   -0.9720917298   -0.0286885245
 H    0.9680511431    1.8959569252    0.0527954602
 H   -0.5284950100    1.9018446595   -0.8905203759
 H   -0.5959006312    1.8149697653    0.8780333375
 H    0.1327594917   -0.4459355868   -2.2348151177
 H    1.6346070943   -0.9470014336   -1.3815387465
 H   -0.0660862938   -3.5983010791   -1.7486880262
 H    0.6194272671   -3.1271682991    1.1588701718
 H    1.0187202841   -0.5427081256    2.0202366627
 H   -2.2723447390   -0.7261273567   -0.3308414109