15

 O   -0.8490034137    1.3297613671    0.8988377247
 C    0.0651560695    1.0020405672    0.1908537027
 C    1.3258747619    1.8374085553   -0.0041749740
 N    2.5017104988    0.9794610363   -0.1978518641
 C    3.1539919475    1.4788833903   -1.1738339879
 N    2.6620261205    2.6377212550   -1.7541474703
 C    1.2699131544    2.7801667078   -1.2749407952
 C    0.2947675831    2.3862028250   -2.2913561274
 C   -0.4940043399    2.0705426124   -3.1418600361
 H    0.0654920147    0.0491503995   -0.3792663587
 H    1.4534029195    2.4550699207    0.8914851710
 H    4.0914882970    1.0686684221   -1.5385320545
 H    2.8200598173    2.7778083044   -2.7430106207
 H    1.0742878496    3.8108253875   -0.9682283879
 H   -1.2010040202    1.7897599395   -3.8836942816