22

 C   -1.6294080046   -0.3741413435   -0.1176632053
 C   -0.1551727598    0.0330485325   -0.0446040621
 C   -0.0019270981    1.5557598795    0.0041208440
 N    0.4393628185   -0.5448282561    1.1676597372
 C    1.9341291508   -0.6141690248    1.2183120238
 C    1.8964197851   -1.8375799469    2.1824772776
 C    2.9070207890   -2.6364447797    1.3376065326
 C    2.0817246247   -1.8738788901    0.2822954347
 C    0.7596720732   -2.0069212866    1.1303843566
 H   -2.1613337386   -0.0315941160    0.7756916848
 H   -2.1092647568    0.0633052484   -0.9987532747
 H   -1.7428005747   -1.4609381706   -0.1823535424
 H    0.3493337843   -0.3348033167   -0.9573580393
 H   -0.4850049304    1.9561969020    0.9011452121
 H    1.0514399605    1.8525368866    0.0267035107
 H   -0.4593800800    2.0198075554   -0.8752748961
 H    2.5801103869    0.2633684050    1.2783309773
 H    1.7579514119   -1.7889724016    3.2620732954
 H    3.9596917102   -2.3539670681    1.4349568319
 H    2.8029718381   -3.7256853004    1.3483588211
 H    2.1870674391   -1.8942473756   -0.8021606252
 H    0.0033332108   -2.7923484228    1.0854155553