19

 C   -0.0472049023    1.5337573221   -0.0489997773
 C    0.0157407333    0.0313135079    0.0966126857
 N    1.2545516235   -0.7589459986   -0.1672902211
 C    2.4507009488    0.0444886519   -0.1704377453
 O    3.1060390372    0.3082420374   -1.1460445485
 N    2.7176604659    0.4265592288    1.1231608766
 C    1.6908029349    0.0761206299    2.0798989562
 C    0.6955712241   -0.6984339394    1.2025298946
 C    0.1114997140   -1.9642777416    1.7787063791
 H    0.7879298372    2.0466552568    0.4318086310
 H   -0.0469164160    1.8130264749   -1.1072821092
 H   -0.9766265962    1.9044670936    0.3957044989
 H   -0.8526261616   -0.4726712956   -0.3250268753
 H    3.5004363815    1.0270665792    1.3225538672
 H    2.0761647296   -0.5745735350    2.8749957446
 H    1.2436712146    0.9582991343    2.5585752771
 H   -0.5113656951   -1.7417562110    2.6527447361
 H   -0.5075775634   -2.4763818786    1.0381548825
 H    0.9039341701   -2.6520153971    2.0929112171