20

 C   -0.1201010324    1.5014582506    0.0197358959
 C    0.0551406832   -0.0045831323    0.0085729996
 C    0.8249636962   -0.5749781175   -1.2059778103
 C    1.4465226857   -1.9159849794   -0.7050013365
 C    0.8785344593   -2.0768473846    0.7214762271
 C    0.7889533542   -0.6218452360    1.2066705675
 N   -0.4721585750   -2.6619352049    0.6615922949
 C   -1.3976139871   -1.8644004045    0.3287702891
 O   -1.3022107534   -0.5557145228   -0.0048125801
 H    0.8552240913    1.9959588589    0.0418154132
 H   -0.6577932100    1.8339949240   -0.8733462590
 H   -0.6909721432    1.8165275593    0.8976704371
 H    0.1448172186   -0.7058755037   -2.0509435300
 H    1.6006469686    0.1298542563   -1.5202134623
 H    1.1810172530   -2.7685981145   -1.3332690043
 H    2.5393215198   -1.8530810469   -0.6737418875
 H    1.4981720495   -2.7177717271    1.3521600196
 H    1.7808864015   -0.1702171316    1.3152230858
 H    0.2416758765   -0.5068303667    2.1458724050
 H   -2.4349666764   -2.1914239665    0.2805090353