17

 N   -0.0285134501    1.4695636723    0.0398437017
 C    1.2872812007    0.7828484593   -0.0382780823
 C    0.0280914602    0.0001684062   -0.0312953912
 C   -0.1427142565   -0.7169335568   -1.3586632240
 O    1.0338450703   -1.5985021964   -1.4039720026
 C    1.7016366721   -0.5984083355   -2.1679900676
 C    1.9300351951    0.8130543170   -1.4291399678
 N    0.9955937082    1.4014074022   -2.4260024512
 C    0.4116840890    0.0767590184   -2.6268909116
 H   -0.2110537047    1.7470981667    1.0003692588
 H    1.9294882171    0.7918263015    0.8358462236
 H   -0.2507452251   -0.5726845865    0.8489561001
 H   -1.0697732957   -1.2824257677   -1.4720937703
 H    2.5118884350   -0.9732032386   -2.7920749961
 H    2.9355382487    1.2395779350   -1.4307416073
 H    0.3685177203    2.0852878228   -2.0093327407
 H   -0.1156395646   -0.1167607597   -3.5625780715