16

 N   -0.0203669049    1.2737637270   -0.4239909693
 C    0.0412931483    0.0675591735   -0.0401109561
 N   -1.1293831139   -0.6615512609    0.1356641172
 C   -1.2136503584   -1.8742062278    0.9235921798
 C    0.0782721999   -2.6773086535    0.7109057040
 C    1.2621467167   -1.7573834033    0.9593056034
 O    1.2155436131   -0.6050003055    0.1091883408
 C   -1.4402509077   -1.6090085092    2.3662500717
 N   -1.6270690145   -1.3886909289    3.4854227647
 H    0.9169228473    1.6438903602   -0.5634700614
 H   -1.9415791554   -0.0619967162    0.1258374019
 H   -2.0713563211   -2.4574926045    0.5706725236
 H    0.1105861979   -3.5363456578    1.3852870815
 H    0.0918647663   -3.0377014801   -0.3215317064
 H    1.2862438105   -1.4344980810    2.0087080305
 H    2.2091739561   -2.2495597419    0.7300791240