15

 C    0.0164696387   -1.2120665933   -0.1891996779
 C   -0.0396690798   -0.0130526395   -0.0900753815
 C   -0.0420924903    1.3945184875    0.0098797980
 C   -1.0790800159    2.2218027030    0.1790885613
 C   -0.6395308274    3.6550449815    0.2507655775
 N    0.8180463436    3.6138025699    0.0257590557
 C    1.2544892587    2.2138863764   -0.0567916079
 C    2.1733258384    1.8589773148    1.0480163888
 N    2.8962291041    1.5778112349    1.9041090081
 H    0.0553249597   -2.2708185275   -0.2643829519
 H   -2.1102553531    1.9096246702    0.2823142925
 H   -1.1415124768    4.2812207531   -0.4988419192
 H   -0.8811251447    4.0920651970    1.2315724601
 H    1.0738167160    4.1104013163   -0.8148719431
 H    1.7949450688    2.0114811356   -0.9906127404