24

 C    0.0506729799    1.5909706152    0.1856132946
 C   -0.0443776009    0.0795934628   -0.0463637435
 C    0.6590556159   -0.4561295029   -1.3298822652
 C   -0.0240162423    0.1012110055   -2.6006204612
 C    2.0546171383    0.0196120820   -1.3089505468
 N    3.1485555903    0.3940548631   -1.2817853651
 C    0.7046078353   -2.0291016211   -1.3099463757
 C   -0.6868958573   -2.6771685409   -1.2514240194
 C    1.5117478882   -2.6211829786   -2.4754161079
 H    1.0912526240    1.9231742686    0.2412118605
 H   -0.4445631691    2.1601657785   -0.6064928837
 H   -0.4368272445    1.8540695939    1.1290395107
 H    0.3803754310   -0.4446176791    0.8177521395
 H   -1.0985349286   -0.2092612887   -0.1026635806
 H    0.0236737587    1.1917947636   -2.6223030661
 H    0.4573161100   -0.2669295993   -3.5088805437
 H   -1.0766389924   -0.1933689509   -2.6208083591
 H    1.2304164265   -2.2906560515   -0.3824030010
 H   -1.2641127903   -2.3641341613   -0.3783937417
 H   -1.2759640423   -2.4575881699   -2.1477948153
 H   -0.5774559074   -3.7647346068   -1.1967174977
 H    2.5048385532   -2.1710631270   -2.5541858585
 H    1.6428810630   -3.6973758210   -2.3264125212
 H    0.9980420710   -2.4876335943   -3.4331999218