17

 C   -0.0766722882    1.5247674806   -0.0063590230
 C    0.0325340167    0.0179418499    0.0038089009
 C    1.0761518132   -0.7176429612   -0.9004089033
 C    1.0197146254   -1.8337249401    0.1688182488
 C    0.6997903400   -0.7306974820    1.2046987832
 O   -0.1581196656   -2.6401479359   -0.0467669715
 C   -1.2578269355   -1.8724442979   -0.2386344059
 N   -1.2844702423   -0.6053567610   -0.2355189146
 H    0.8982182739    1.9901461117    0.1707194072
 H   -0.4614359456    1.8729283115   -0.9702666949
 H   -0.7721616238    1.8621434824    0.7687866249
 H    0.7792150169   -0.9679893655   -1.9209699774
 H    2.0485033927   -0.2200348148   -0.8929245139
 H    1.8447875101   -2.5297090929    0.3120135241
 H    1.6134336386   -0.2351276648    1.5405627836
 H    0.0681771801   -0.9926492653    2.0560717819
 H   -2.1460028265   -2.4777385048   -0.4011514201