18

 C   -0.0043415288    1.5237461414   -0.1919095759
 C    1.2938452588    0.8087487077    0.0669043735
 C   -0.0353193593    0.0482520058    0.0934667430
 C    0.4528674420   -0.7852296523   -1.1296488651
 N    0.7913180982    0.1104891213   -2.2697718386
 C    1.7443195358   -0.0435428469   -1.1589261755
 C    2.8792776492   -1.0528060034   -1.2244692920
 C    2.1297672036   -2.3791258289   -1.3261228198
 C    0.8004165180   -2.2237063304   -1.2227524194
 H   -0.3403719141    2.1414704802    0.6356820657
 H   -0.2396043935    1.9018057467   -1.1784387043
 H    1.9566595541    1.0665620291    0.8835480942
 H   -0.5674067848   -0.3818354734    0.9319323880
 H    1.0889117018   -0.4739775761   -3.0479529661
 H    3.5658492785   -0.8928733221   -2.0663037092
 H    3.4971943603   -1.0126368789   -0.3184312067
 H    2.6349559870   -3.3209796157   -1.5190625656
 H    0.0742713434   -3.0294210340   -1.2391100262