20

 C    0.1105622869    1.5659613162    0.0553546312
 N    0.0515688964    0.1212465915    0.0303953817
 C    0.9418113484   -0.5966084411   -0.9399477156
 C    1.0798233802   -1.6874730855    0.1246539274
 C    1.8821243571   -2.7189293701    0.9272548085
 C    0.4240670013   -2.8797610776    1.4971540631
 C    0.0206222581   -1.5420684871    2.2055086076
 C    0.6830710087   -0.6189415841    1.1530046807
 O   -0.0588133148   -2.5975514833    0.1562527492
 H    1.1351213410    1.9617815731    0.2009964434
 H   -0.2776844682    1.9716509619   -0.8848686338
 H   -0.5177054596    1.9449703551    0.8683167633
 H    0.4711729372   -0.8781604492   -1.8857724860
 H    1.8874891056   -0.0652481455   -1.1308987885
 H    2.1667715535   -3.6102236826    0.3671304744
 H    2.6905197576   -2.3642278564    1.5723068567
 H    0.0721641751   -3.8244806560    1.9129172486
 H   -1.0679072068   -1.4701474047    2.2457947994
 H    0.4310923300   -1.4104220381    3.2103142942
 H    1.5428485124   -0.0665328464    1.5636490645