18

 C   -0.0374451229    1.5367570691   -0.0321509898
 C    0.0279589259    0.0382601134   -0.0010580620
 C   -0.8547250983   -0.8405576172    0.8520027160
 C    0.6360133946   -0.9397454981    1.0199462822
 C    1.2308431551   -1.8002375003   -0.1070134212
 C    0.6020516317   -0.8204504881   -1.1151826605
 C    0.1834645677   -0.9779488793   -2.5088098236
 O    1.3758045211   -0.2514987665   -2.1570456851
 H    0.8952938338    1.9605538462   -0.4165943362
 H   -0.8518145282    1.8880113237   -0.6773279562
 H   -0.2140090100    1.9418731905    0.9693640534
 H   -1.3835204486   -0.3195278368    1.6446973715
 H   -1.4151932022   -1.6646319308    0.4145662383
 H    1.1262043486   -0.7144853173    1.9591320976
 H    2.3209574862   -1.7485453207   -0.1638990079
 H    0.9145363453   -2.8479871981   -0.1453508223
 H    0.3532520627   -1.9215189237   -3.0262942927
 H   -0.6298532826   -0.3719568761   -2.9068170114