16

 O   -0.1701684963    0.0047520108    0.2383937703
 C   -0.0499741260    1.1569287042   -0.0947509731
 C    1.2226591332    1.9452830172   -0.0027413710
 C    1.4607303438    2.8728654771    1.2302169683
 C    1.5267415716    1.9194564984    2.4451982523
 C    3.0492698664    1.8418717760    2.4345606172
 C    2.2557436669    0.7528754773    1.7783337849
 N    2.4891705553    1.2293398474    0.3752278625
 C    2.9758404013    2.5274419880    1.0532810839
 H   -0.9188669409    1.7380556994   -0.4842891632
 H    1.3833707660    2.4983622140   -0.9370774969
 H    1.0448657535    3.8735711140    1.3377773217
 H    0.8348763552    1.8029597697    3.2669616055
 H    3.7841344109    1.8305733588    3.2268346273
 H    2.1100087764   -0.2867828271    2.0307982858
 H    3.7179985427    3.1359697846    0.5409364043