18

 O    0.2072017579    1.3507427790   -0.2098726469
 C    0.0709118316   -0.0275054177   -0.0443496257
 C    0.1365503791   -0.6200010122    1.3992564623
 C   -1.3700330742   -0.2534299407    1.5347260827
 C   -1.3952415448   -0.6243990700    0.0142409884
 C   -1.0890277898   -2.1397461401    0.0514703204
 C    0.0708010242   -2.1290817896    1.1063658330
 C   -2.4346637092   -0.1540184443   -0.8683971338
 N   -3.2643298729    0.2397759734   -1.5716180502
 H   -0.3369103047    1.8195908327    0.4314317884
 H    0.7261332363   -0.4817921743   -0.7925429262
 H    0.8807671952   -0.2678179468    2.1125380697
 H   -1.9921408206   -0.8540932720    2.2026106369
 H   -1.5625453024    0.8046236184    1.7228581449
 H   -1.9563652108   -2.7196562710    0.3741078940
 H   -0.7758204041   -2.5121414662   -0.9265801849
 H    1.0089731112   -2.5129381174    0.6972393237
 H   -0.1737572719   -2.7134898212    1.9966782533