17

 O   -0.1520220765    1.4006385885   -0.0132596287
 C   -0.1512892082    0.0004127745   -0.0371906258
 C   -0.4223576253   -0.8355573738    1.1933401083
 C   -1.3935248141   -0.0774700498    2.1115937974
 C   -2.4368577693   -0.0398407007    0.9504920755
 C   -2.9950474929    1.2593915142    0.4211632524
 O   -3.3667411269    1.3877610570   -0.7190799512
 C   -1.4342145369   -0.7581254343    0.0366486202
 O   -1.7829748297   -1.7367199060   -0.8683969121
 H    0.6383551155    1.6961840002    0.4519339795
 H    0.5585188642   -0.4509545539   -0.7303373094
 H    0.2304467531   -1.6456745531    1.4946153610
 H   -1.7311925443   -0.6642286369    2.9667871762
 H   -1.0417465500    0.8969976933    2.4617391637
 H   -3.2808141156   -0.7031156657    1.1706685925
 H   -3.0688367514    2.0974440267    1.1507786531
 H   -2.1482962315   -1.2920493503   -1.6436311226