19

 C   -0.0108218380    1.4287299616    0.0665336240
 O   -0.1377518075    0.0271459009   -0.0935263384
 C    0.5940894363   -0.5219577950   -1.1665001050
 C    2.1193550402   -0.6814096366   -0.8899336722
 O    1.9856250855   -2.0970541729   -0.6975914204
 C    0.5922068227   -2.0848581234   -1.0845787828
 C   -0.3109419264   -2.7566549613   -0.0750176453
 C    0.2199961897    0.0501624265   -2.4555880605
 C   -0.0853201154    0.5092205241   -3.5242674430
 H    1.0327888116    1.7282446396    0.2401859764
 H   -0.3911805497    1.9715009352   -0.8076984453
 H   -0.6033967939    1.6943132535    0.9442897714
 H    2.7706925150   -0.4313559465   -1.7352873916
 H    2.4673521527   -0.1703269967    0.0150098672
 H    0.4682982943   -2.5323817235   -2.0790005300
 H   -0.2336057444   -2.2735869958    0.8997592924
 H   -1.3528809020   -2.7157881816   -0.4073627543
 H   -0.0198819246   -3.8073967478    0.0212475960
 H   -0.3567485663    0.9128825997   -4.4686962584