23

 O   -0.0711510731    1.4323070621   -0.1633266348
 C    0.0114172539    0.0153968587   -0.1049223494
 C   -1.4031239798   -0.5357248319    0.0133106325
 C   -1.4433364239   -2.0645266792    0.0841542169
 C   -2.8658947128   -2.6236440873    0.1996664399
 C   -2.8975715801   -4.1410487162    0.2207149343
 C   -4.2587570693   -4.8525602619    0.0474329093
 C   -3.5955878085   -5.5134009566   -1.1768130837
 O   -2.4001165881   -4.7240156003   -1.0128433484
 H    0.8208970186    1.7816226753   -0.2447313799
 H    0.4942570654   -0.3933803858   -1.0077682371
 H    0.6118504985   -0.3126879003    0.7598874782
 H   -1.8713477227   -0.1010949046    0.9054688093
 H   -1.9852034819   -0.1819613618   -0.8466639407
 H   -0.9736776127   -2.4944291233   -0.8088435673
 H   -0.8490143380   -2.4096833263    0.9418366759
 H   -3.3463022430   -2.2526197945    1.1160074681
 H   -3.4731318324   -2.2705001059   -0.6440295292
 H   -2.3157379821   -4.5164591781    1.0763789560
 H   -4.5618706936   -5.5212917698    0.8542220193
 H   -5.0841226508   -4.1777376861   -0.1901770124
 H   -3.3929581394   -6.5872220134   -1.0708334544
 H   -4.0725458641   -5.3399774330   -2.1486191624