19

 C   -0.1033598546    1.4879554117    0.0763523562
 C   -0.0329614810   -0.0018809702   -0.0097449133
 C   -0.0534151388   -0.8006002331   -1.0900904704
 C    0.0985805745   -2.2684068899   -0.7784979683
 C    0.0397606255   -2.3337280958    0.7605963371
 C   -1.2798537121   -2.9190487104    1.2815974217
 O    1.1470418867   -3.0524466526    1.2797945781
 C    0.1508962722   -0.8533670779    1.1837583065
 O    0.3981489143   -0.5048311709    2.3194850503
 H    0.7668519295    1.8790459036    0.6141588938
 H   -0.1435501549    1.9504849144   -0.9128965460
 H   -0.9850814545    1.8049240671    0.6445312254
 H   -0.1479441764   -0.4431478755   -2.1113702391
 H   -0.6736763918   -2.8740032668   -1.2661256191
 H    1.0671867709   -2.6470144637   -1.1244393602
 H   -1.3309193544   -3.9829339122    1.0333405703
 H   -1.3307965170   -2.8078237014    2.3691295415
 H   -2.1463626661   -2.4116707627    0.8439662594
 H    1.2991326281   -2.6952223836    2.1660279464