13

 N   -0.0279548720    1.2794844621    0.1599830801
 C    0.0154255662    0.0269911472    0.1127639679
 O    1.1590206897   -0.7249068173    0.0483781525
 C    0.9109650727   -2.1254512048    0.1312627438
 C   -0.5989684491   -2.2993989606    0.2628026097
 O   -1.1835836389   -3.3217354974    0.4566539829
 C   -1.2041959630   -0.8869894955    0.0781996174
 C   -2.2489792912   -0.5614954726    1.0338992410
 N   -3.0805125447   -0.3317680868    1.8008625915
 H    0.9093949801    1.6845939172    0.1668324257
 H    1.2808356662   -2.6270728729   -0.7702207641
 H    1.4216701063   -2.5491233632    1.0024348571
 H   -1.6293600823   -0.8570790954   -0.9352388755