19

 O    0.1802036972    1.3789244399   -0.0698462292
 C    0.0362552319   -0.0002165310   -0.0091788681
 C   -0.4187474284   -0.7024972300    1.2534795198
 C   -0.8445461251    0.1368497530    2.4518370543
 C   -2.3699192523    0.1965256853    2.6620137316
 C   -3.1240234650    0.5285934150    1.3946917240
 O   -2.5219214946    1.4840135084    0.4990552973
 C   -2.5956828255    0.0947161082    0.0912387299
 C   -1.3161535552   -0.6799668770    0.0145583516
 H   -0.6755017293    1.7717706690    0.1563348284
 H    0.8128605981   -0.4881679693   -0.5905804916
 H    0.0547434127   -1.6517836814    1.4829836227
 H   -0.3786083826   -0.2608196322    3.3573496871
 H   -0.4615055024    1.1559339372    2.3311476301
 H   -2.7489762381   -0.7700821793    3.0212918623
 H   -2.6097704075    0.9331763506    3.4376042526
 H   -4.2005403794    0.6616853499    1.4973416833
 H   -3.2957383505   -0.0680652657   -0.7264734558
 H   -1.4106068839   -1.5982757107   -0.5572490703