16

 C    0.3815568687    1.2245415900    0.2163642318
 N   -0.0646120366   -0.1058096737   -0.1569723331
 C    0.3679242651   -0.6413352361   -1.2050151394
 N   -0.0455512894   -1.8875874464   -1.6906892108
 C    0.9242044310   -2.3775282416   -2.6521148237
 C    1.4558232569   -1.0213732271   -3.1790568271
 O    1.2951780066   -0.1289467306   -2.0818506683
 C    1.9846373428   -3.2161646129   -2.0573316609
 N    2.7963248612   -3.8891610785   -1.5843176018
 H    1.0700880396    1.6858513853   -0.5009674262
 H   -0.4898605571    1.8789543360    0.3327720162
 H    0.8771981425    1.1798806700    1.1929667326
 H   -0.4139154116   -2.5181096823   -0.9939615299
 H    0.4465561700   -2.9507053006   -3.4523239358
 H    2.5073248652   -1.0499623537   -3.4663306182
 H    0.8453319451   -0.6882112479   -4.0254856156