17

 C   -0.0304533236    1.4424187709   -0.0304438501
 N   -0.0753328567   -0.0089919117   -0.0448272380
 C    0.5069994611   -0.6419235632   -0.9701850259
 O    1.2095459763   -0.0780966540   -2.0159411761
 C    1.7352241289   -1.1105237938   -2.8671599062
 C    3.2519876451   -0.9700654227   -2.9811229308
 C    1.2648287583   -2.3883956915   -2.2248156431
 C    0.5624449303   -2.0998174036   -1.1302588274
 H    0.6349860298    1.8844963324   -0.7804392219
 H   -1.0421984000    1.8365059337   -0.1886059319
 H    0.2837755209    1.7791063042    0.9641133353
 H    1.2836315501   -0.9799459554   -3.8620138936
 H    3.7218805071   -1.0943056389   -2.0016365443
 H    3.6525422464   -1.7284277512   -3.6614157508
 H    3.5109052460    0.0168255574   -3.3733964921
 H    1.4953462730   -3.3661606474   -2.6267832641
 H    0.0878987669   -2.7724685351   -0.4314058792