15

 O   -0.8915586925    1.2092637905   -0.0100347564
 C    0.2607144512    0.8474533005   -0.1001660586
 C    1.4207127672    1.7348258292    0.0562263043
 C    1.3097819290    3.0984643834    0.7036621239
 C    1.7154249400    3.0333032059   -0.7239320445
 C    3.1272770815    2.4669756949   -0.9395477041
 C    3.8443992370    2.0682000264    0.2915411130
 N    2.7974619386    1.1762295595   -0.2406771887
 H    0.5340268207   -0.2035424746   -0.3339808887
 H    0.2685647931    3.3647887671    0.8543033668
 H    1.9767177810    3.4196706231    1.4948327726
 H    1.1111375831    3.4340320900   -1.5265406109
 H    3.5969424287    2.4537855294   -1.9171820827
 H    4.8362737125    1.6469346121    0.1554415419
 H    3.7118902590    2.5836667225    1.2353091321