16

 N    0.1136201690    1.3753109835    0.0751124582
 C   -0.0461578397    0.0379466536    0.0254315384
 C   -1.1361802353   -0.7847531509    0.0138349002
 C   -0.7431603536   -2.2486314466   -0.0208084962
 C    0.7992568747   -2.2488529202   -0.0114844921
 C    1.2053101505   -0.7837768711   -0.0102987964
 O    2.3167416233   -0.3059263697   -0.0404639114
 C   -2.5245986462   -0.3715011325    0.0304532327
 O   -3.4675683663   -1.1399950156    0.0169686132
 H    1.0595399467    1.7108396919   -0.0330491209
 H   -0.6447091129    2.0205214104   -0.0525788727
 H   -1.1647034518   -2.7852516649    0.8353584895
 H   -1.1500847803   -2.7395654478   -0.9110915337
 H    1.2215829012   -2.7369394965    0.8728782437
 H    1.2396830587   -2.7478409840   -0.8800543835
 H   -2.6988702179    0.7297121902    0.0587747510