22

 C   -0.1267323849    1.4773101967   -0.0228566401
 C   -0.0207595712   -0.0135582085   -0.0893330536
 C    0.9154040460   -0.8552607270   -0.9550418001
 C    0.0942001544   -2.0864942816   -0.4788762683
 C    0.0009068627   -3.3440537117   -1.3014986820
 C    0.4020188431   -2.0827356471    1.0284769016
 N   -0.3320653906   -0.7868644413    1.1780129981
 C   -1.0696733463   -1.0660273761   -0.0943847460
 C   -2.5531593483   -1.0714372535   -0.2437467601
 H    0.7830962503    1.9150904368    0.4038656173
 H   -0.2711078765    1.9070713158   -1.0203406036
 H   -0.9666961177    1.7774420232    0.6094915549
 H    0.7546043655   -0.6423014103   -2.0165257084
 H    1.9910012093   -0.8511927185   -0.7384133774
 H    0.9817872967   -3.8272558684   -1.3870801359
 H   -0.6861220811   -4.0686523888   -0.8501938761
 H   -0.3528389021   -3.1346032320   -2.3171309214
 H   -0.1384495051   -2.8542358315    1.5858750080
 H    1.4532808543   -2.0710760500    1.3439044554
 H   -2.9842207833   -0.1872827248    0.2365139706
 H   -2.8482599664   -1.0640047933   -1.2991587145
 H   -3.0012903289   -1.9559774281    0.2235512917