14

 O    0.0308939836    0.0055812781    0.1844403707
 C   -0.0201151676    1.1936424459    0.0656970182
 N   -1.1479774842    1.9885853175   -0.0508209166
 C   -0.8445356993    3.3861799331    0.0239680355
 C   -0.7531765550    4.0671434485    1.4187206187
 O   -0.0252043212    3.1804880704    2.2605952741
 C    0.7269934056    4.0220213854    1.3893198921
 C    0.7186350674    3.3533300518   -0.0011724991
 O    1.0995731962    1.9932238572   -0.0440511324
 H   -2.0288086658    1.5858617041    0.2232304443
 H   -1.3331587414    3.9927499213   -0.7419468138
 H   -1.4307863736    4.7709309662    1.8875483229
 H    1.4726642758    4.6685988922    1.8356881997
 H    1.2155885995    3.9161190283   -0.7920895643