16

 N   -0.0355535114    1.5324968402    0.1757483264
 C   -0.0440674703    0.0913584120    0.0585123552
 C    0.8154795291   -0.5092882873    1.1778541849
 O    2.1600726785   -0.1006764223    1.0276977997
 C   -1.4219827100   -0.5723834359   -0.1841960825
 O   -0.9165247569   -1.1851718905   -1.4201533057
 C    0.3057395926   -0.5793720267   -1.2708568736
 N    1.3534331755   -0.6223166764   -1.9646339609
 H    0.9150970201    1.8234683140    0.3904027518
 H   -0.2893219370    1.9745194770   -0.7025509673
 H    0.4739491506   -0.1295603864    2.1463716140
 H    0.7142403886   -1.6052045461    1.1775872238
 H    2.4398744071   -0.3653822994    0.1384415029
 H   -1.7432328777   -1.3385483033    0.5254747063
 H   -2.2337749765    0.1266356544   -0.3956220636
 H    1.2517364475   -1.2114522334   -2.7925569016