16

 N   -0.1005758172   -1.0912692945    0.5427429255
 C   -0.0620695290    0.0215956847    0.2345324637
 C    0.0107332080    1.4370933224   -0.1423175122
 C    1.4216513552    1.9650275567   -0.1216048240
 C    2.0657135128    2.5726746356   -1.1224319653
 C    3.4681114053    2.9938694218   -0.7362010499
 C    3.5520829111    2.5975361717    0.7340463018
 O    2.6124015353    3.2655156689    1.5782594555
 C    2.2875510949    1.9397890935    1.1018199658
 H   -0.4284238443    1.5583822262   -1.1378217902
 H   -0.6208337632    2.0018554667    0.5566843093
 H    1.6409281955    2.7849660543   -2.0978269858
 H    4.2266203749    2.4710332585   -1.3324675313
 H    3.6340087359    4.0683874749   -0.8782662172
 H    4.5058454420    2.3566167324    1.1945763646
 H    2.1877543127    1.1768063963    1.8677878597