21

 C    0.1908427484    1.4483104124   -0.1966974545
 C   -0.1295940185   -0.0251805221    0.1117243881
 C    0.6132168389   -0.5618169528    1.2974936864
 C    0.1043394733   -0.9931629714    2.4522040495
 C    1.1562936362   -1.4232619316    3.4440091568
 C    2.4256160294   -1.5333681748    2.5687894695
 C    2.1468991559   -0.6170692218    1.3398279485
 C    2.7761967270   -1.0770348471    0.1068487027
 C    3.2917622185   -1.4612548066   -0.9097563056
 H    1.2508726401    1.5820780075   -0.4337458609
 H   -0.3870596154    1.7963548961   -1.0581780187
 H   -0.0503322522    2.0909869563    0.6561949708
 H   -1.2057243235   -0.1421626745    0.2806571749
 H    0.1220169113   -0.6279204911   -0.7706809716
 H   -0.9560395260   -1.0007839609    2.6839277577
 H    1.2733766633   -0.6728378897    4.2393874526
 H    0.9155795566   -2.3666600253    3.9467145196
 H    3.3449619006   -1.2574605824    3.0903515413
 H    2.5411564300   -2.5611258233    2.2138902179
 H    2.5238081969    0.3969396393    1.5460270445
 H    3.7513416290   -1.7996959860   -1.8050230795