14

 O    0.1029165675   -0.0288067547   -0.5143025610
 C   -0.0247195945    1.1424709270   -0.2479407811
 C    1.1646246276    1.9746447452    0.0351249941
 N    2.0909640262    2.6335059319    0.2472630543
 C   -1.3147178606    1.8627487101   -0.1569786612
 C   -2.5334414956    1.2362617224   -0.7901315159
 C   -2.4481316623    1.2361474223    0.7073873127
 C   -2.2391922056    0.0300633386    1.4478258709
 C   -2.0853962490   -0.9721877873    2.0929282730
 H   -1.2467347988    2.9429484140   -0.1070617907
 H   -3.2449175808    1.9023287021   -1.2633045873
 H   -2.3620094810    0.2877466584   -1.2850805237
 H   -3.0374990639    1.9901558026    1.2208895375
 H   -1.9434220391   -1.8643165727    2.6515206685