17

 C    0.2114672228    1.5595274853   -0.1025550459
 C    0.1348030292    0.0637742943    0.0501393543
 O    1.3817248205   -0.6628678654    0.0862639843
 C    0.5396582322   -0.6820285840    1.2536682153
 C    1.0705189897   -0.0544593942    2.5203577666
 C   -0.0842120529   -2.0615793606    1.3879043744
 O   -1.2232603169   -2.3257261804    1.0831509297
 C    0.8040149225   -3.2185567367    1.8763070222
 O    1.9137474063   -3.0906963188    2.3186678005
 H    0.9860776794    2.0003019449    0.5271199246
 H    0.4362226369    1.8153145512   -1.1429336421
 H   -0.7521454004    2.0131738599    0.1523933331
 H   -0.6238739024   -0.4146666970   -0.5695777868
 H    1.5114607924    0.9220528909    2.3145890772
 H    0.2609471768    0.0773246110    3.2468853730
 H    1.8354095930   -0.6949997217    2.9634528708
 H    0.2867917108   -4.1978659887    1.7906357786