23

 C   -0.1058743792    1.3837816025    0.1009327793
 O    0.0466780247   -0.0100651284   -0.0301692456
 C    0.6853911163   -0.5076116689   -1.2107600653
 C    0.0065936694   -0.0065709818   -2.4927283592
 C    2.1812216682   -0.1522463312   -1.2063668312
 C    0.5407637303   -2.0456025108   -1.0766872989
 C   -0.8316177128   -2.5365345700   -1.1219764702
 C   -1.9586911715   -2.9578033831   -1.1669101955
 C   -3.3226740326   -3.4662379727   -1.2090935659
 H    0.8499118577    1.9260335110    0.0597526661
 H   -0.7780983671    1.8106857840   -0.6561757581
 H   -0.5498697461    1.5522919959    1.0857090194
 H    0.1549883051    1.0675284679   -2.6354275015
 H    0.4311135110   -0.5145589066   -3.3643123251
 H   -1.0650678122   -0.2165402671   -2.4629463713
 H    2.6515615964   -0.4964797703   -0.2803907605
 H    2.6931681796   -0.6219569043   -2.0519650812
 H    2.3373576923    0.9269654856   -1.2897460897
 H    1.1310206246   -2.5194380699   -1.8710268976
 H    1.0034660688   -2.3334671339   -0.1249251231
 H   -3.3957737789   -4.4488766111   -0.7294339015
 H   -4.0145573005   -2.7944389874   -0.6887133401
 H   -3.6800183635   -3.5755920691   -2.2393023432