18

 C    0.0635244517    1.4758963087    0.0218031369
 C    0.0560383608   -0.0311897538   -0.0167895820
 C    0.1357390660   -0.7198084591   -1.2271647371
 C    0.1248551561   -2.1132281308   -1.2054279015
 O    0.1979149422   -2.8707313013   -2.3275781652
 C    0.0349039406   -2.7648622037    0.0224133518
 C   -0.0405429101   -1.9939889248    1.1796077898
 C   -0.1395029316   -2.6395618972    2.5380179227
 N   -0.0304590411   -0.6531368433    1.1644192822
 H    0.1356168650    1.9104281093   -0.9783645517
 H   -0.8483305306    1.8466759639    0.5004872162
 H    0.9057379153    1.8348743420    0.6217387850
 H    0.2048477529   -0.1798538167   -2.1671790857
 H    0.2555728217   -2.2924456279   -3.0961445339
 H    0.0251083665   -3.8474771149    0.0582672302
 H    0.7003488632   -2.3277857530    3.1671086433
 H   -1.0535923832   -2.3150325736    3.0453762986
 H   -0.1428385254   -3.7301554137    2.4722150104