17

 C   -0.2141485846    1.4842851025   -0.0781213004
 N    0.0234250084    0.0446908651    0.0025729558
 C    1.3726619919   -0.4791414861   -0.2843016225
 C    2.4712431198    0.4154938696   -0.5551519767
 N    3.3481721960    1.1389517711   -0.7709480489
 C    0.7890797188   -0.4771101575    1.0959325470
 C    1.3272449997    0.2086522126    2.3540125961
 O    0.9853549742   -0.9545123583    3.1373534875
 C    0.4050907565   -1.6387218631    2.0050955895
 H    0.6307833411    2.0988920292    0.2611138593
 H   -0.4376427840    1.7461429145   -1.1153180723
 H   -1.0896032677    1.7195239175    0.5331601578
 H    1.3903235930   -1.3975137135   -0.8655254809
 H    2.4014597685    0.4244420805    2.3687406007
 H    0.7738127077    1.1010811888    2.6733579554
 H   -0.6765145071   -1.7880595755    2.1124025365
 H    0.8921594576   -2.6005538676    1.8065284058