17

 C   -0.0707490784    1.5036849220   -0.0896495500
 C    0.0834016874    0.0016543589    0.0139800583
 C    1.4140175990   -0.6782771590   -0.1120090104
 C    0.7071131976   -0.6764704933    1.2371447830
 C    1.3028479588    0.1167738117    2.3982990616
 O    2.3672683081   -0.5652732420    3.0285832693
 C    0.1108781734   -1.9157930819    1.6693182842
 N   -0.3499012829   -2.9014107489    2.0655545972
 H    0.8104917452    2.0391619892    0.2723805081
 H   -0.2155131192    1.7876232211   -1.1372601434
 H   -0.9398792204    1.8576835332    0.4740407086
 H   -0.7541694391   -0.5524578075   -0.4000873345
 H    1.4797948741   -1.6144723866   -0.6531739737
 H    2.3028028507   -0.0581788947   -0.1686262499
 H    1.7251632534    1.0510824083    2.0223696607
 H    0.5068241859    0.3730120564    3.1128837745
 H    2.0131518363   -1.3672295470    3.4294606965