18

 C   -0.0304393674    1.6658563086    0.1212622840
 C   -0.0447223503    0.1540080421    0.0319046994
 C    0.3623481739   -0.5863584059   -1.2071282217
 N    0.8257119060    0.1582966157   -2.3391479477
 C    1.8684964376   -0.2508849813   -3.1223437054
 O    2.5901693877   -1.1895399781   -2.8759789410
 C    1.2314899107   -0.6899358431    0.0413582033
 C    2.5794407194   -0.0706809835    0.1142068534
 O    3.4492481413   -0.4759184353    0.8453761032
 H    0.7516344788    2.1136240193   -0.4954193872
 H   -0.9924191940    2.0765168872   -0.2053224468
 H    0.1329450089    1.9904053184    1.1533722688
 H   -0.8626365243   -0.3063166817    0.5790005230
 H   -0.1815776060   -1.4948660284   -1.4553487727
 H    0.2365226789    0.8956643596   -2.6954696164
 H    1.9916940369    0.3996704168   -4.0113717678
 H    1.1814098259   -1.6317624175    0.5763451231
 H    2.7470233860    0.8086212372   -0.5411667314