22

 C   -0.1233058352    1.4852225908    0.0251909379
 C    0.0459050649   -0.0400420276    0.0314224587
 C    0.7260814766   -0.5362316207   -1.2123198347
 C   -0.0139269177   -0.9530073980   -2.4703651225
 C   -0.0235206216   -0.4508677716   -3.9146243349
 C    0.9179175022   -1.9287350851   -1.7915347206
 C    2.4096392682   -1.5762356807   -1.9108125958
 C    2.7513648928   -0.3338267991   -2.6383588078
 N    2.2194919110   -0.2287727051   -1.2664515623
 H    0.8481744864    1.9739931550   -0.0953618102
 H   -0.7689923003    1.8077502424   -0.7984954825
 H   -0.5668888288    1.8376373833    0.9613537389
 H    0.6445116129   -0.3368434048    0.9011744652
 H   -0.9292710019   -0.5315761000    0.1308001305
 H   -1.0272311838   -1.1880129298   -2.1436057522
 H    0.7274575772   -0.9446646179   -4.5356423872
 H   -0.9984762925   -0.6629775233   -4.3644964054
 H    0.1316693773    0.6308790022   -3.9832036311
 H    0.5881422835   -2.8840498370   -1.4011137530
 H    3.1782679101   -2.2485906145   -1.5421409221
 H    3.8085748996   -0.0795609756   -2.6694339709
 H    2.1883682694    0.0305008073   -3.4827203480