20

 C    0.0188241873    1.5738597529   -0.2280654366
 C   -0.0715430021    0.0627615635   -0.1013087063
 O    0.6472364938   -0.5227237195   -1.1696867876
 C    0.6245169701   -1.9322714152   -1.1498289500
 C    1.4763687152   -2.4370587348   -2.2971628544
 N    2.9494136734   -2.4400074429   -2.0836023675
 C    3.1021878505   -3.8339844769   -2.5761103323
 C    1.5713614662   -3.9579114219   -2.5243603334
 O    0.7825343446   -4.8515037565   -2.5875179154
 H    1.0620119066    1.8999522759   -0.1884900841
 H   -0.4085190510    1.9058857775   -1.1785355320
 H   -0.5279277952    2.0578598789    0.5866340872
 H    0.3454889136   -0.2713238663    0.8635097767
 H   -1.1242646408   -0.2666419248   -0.1273353604
 H    1.0228015673   -2.3193272407   -0.1986819559
 H   -0.4037651978   -2.3143556019   -1.2694520798
 H    1.1541888161   -1.9321331901   -3.2212464797
 H    3.4487497147   -1.7452298619   -2.6247284869
 H    3.4852405033   -3.9460522792   -3.6008347530
 H    3.6703455641   -4.4980513060   -1.9155763789