21

 C   -0.2146036929    1.4947196828   -0.0954151697
 C   -0.0719786998   -0.0292508858   -0.0647991999
 C    0.8245503382   -0.5883291804   -1.2012762546
 C    1.4350261933   -1.9026394843   -0.6637730306
 C    1.4742358436   -1.6890834917    0.8351798701
 O    2.0053124189   -0.4104076104    1.2249809022
 C    0.5673752121   -0.5932021118    1.2022943670
 C   -0.0790664283   -0.4668661867    2.5577139561
 O   -0.0316637849    0.8644949387    3.0489732843
 H    0.7682200841    1.9677121040    0.0042374582
 H   -0.6514624900    1.8240113566   -1.0440807371
 H   -0.8431116617    1.8550590723    0.7219719895
 H   -1.0717199005   -0.4824936617   -0.1358846013
 H    0.2696734104   -0.7313597389   -2.1319412433
 H    1.6247587660    0.1281030219   -1.4052806032
 H    0.7918741538   -2.7660031940   -0.8759161355
 H    2.4205457633   -2.1177251443   -1.0883120417
 H    1.7062655328   -2.5084396748    1.5123605974
 H   -1.1398557432   -0.7334585085    2.4986002638
 H    0.4062883581   -1.1640651924    3.2570038495
 H    0.8968294167    1.1245558994    3.0406394989