13

 O   -0.0065409360    0.0258765687    0.0032491672
 C   -0.0141623667    1.2110366470    0.0098542416
 O   -1.1505144784    2.0047491394    0.0301139236
 C   -0.6949962754    3.3010107472    0.0307826374
 C    0.6343487635    3.3115225227    0.0122097739
 O    1.1085928571    2.0212042588   -0.0014793748
 C    1.1486410900    4.6702783461    0.0125571173
 C    0.0661233801    5.4808633411    0.0322030370
 C   -1.2408521779    4.6837878216    0.0461589328
 H    2.1873609853    4.9656107384   -0.0003874671
 H    0.0790066050    6.5612680538    0.0379436901
 H   -1.8630278800    4.9218099853   -0.8254849494
 H   -1.8382063965    4.9119681800    0.9375765605