18

 O    0.0981029465    1.4339453886   -0.1013976541
 C    0.0330564779    0.0237641305   -0.0615238030
 C   -1.3959537106   -0.4198589713    0.0597139675
 C   -2.4480743340    0.3898334372    0.0078339958
 C   -3.8326663747   -0.1733430245    0.1730946885
 C   -3.9530624014   -1.5870953624   -0.3522052659
 N   -5.0449853762   -2.0163297635   -0.8290888775
 O   -2.8429782463   -2.3765469612   -0.3063833626
 C   -1.6267555428   -1.8913785045    0.2726636710
 H    1.0110050850    1.6890030076   -0.2601241689
 H    0.4701620364   -0.4265906624   -0.9708522130
 H    0.6125533878   -0.3818626316    0.7884004091
 H   -2.3209256990    1.4563607393   -0.1327042481
 H   -4.1099322000   -0.1775253102    1.2389943143
 H   -4.5916065583    0.4275175558   -0.3305201678
 H   -4.9391643830   -2.9896780881   -1.1230699294
 H   -0.8337198368   -2.4908339145   -0.1879358801
 H   -1.6253176306   -2.1316677749    1.3475973741