19

 C    0.0403605104    1.5479367887    0.1392130585
 C    0.0645270629    0.0213103049    0.0854769850
 O   -1.2302340414   -0.5347906979    0.3113549500
 C    0.6461504998   -0.4988350069   -1.2260895534
 C    2.1759513589   -0.3890227725   -1.4145586357
 O    2.3227287010   -1.8193844314   -1.4853324301
 C    0.9155859868   -2.0354611167   -1.3386747456
 C    0.5426242158   -2.8871379363   -0.1386297243
 O    1.3037736594   -3.1680526000    0.7492555662
 H    1.0470702464    1.9674458214    0.0443061305
 H   -0.5693801704    1.9563242778   -0.6769354236
 H   -0.3857364926    1.8846060418    1.0876649500
 H    0.6719888590   -0.3605492759    0.9141963504
 H   -1.8328374399   -0.1560477157   -0.3389515882
 H    0.0659487253   -0.1079964054   -2.0680808847
 H    2.5090510462    0.1050957321   -2.3346817502
 H    2.7231110306    0.0342668863   -0.5625178862
 H    0.4738707611   -2.4968855815   -2.2354503955
 H   -0.5133884294   -3.2331551027   -0.1441614232