18

 C   -0.0951634457    1.5657059199   -0.0007604676
 C   -0.0150326422    0.0512234110    0.0101648167
 C    1.2378973684   -0.6475305948   -0.6018614317
 O    2.0488335437   -0.1381997457    0.5347321349
 C    0.7944779068   -0.6584306150    1.1387643438
 C    0.9250833392   -1.8913441279    0.2374883693
 C    0.1307580986   -3.1335257673    0.0274413602
 C    1.6115910897   -3.1939477082    0.4042800511
 H    0.8744343431    2.0009938903    0.2488582356
 H   -0.4003855886    1.9319758518   -0.9870420570
 H   -0.8359831616    1.9212678372    0.7236908222
 H   -0.9679022389   -0.4284646082   -0.2355793828
 H    1.6654452131   -0.5673183129   -1.6025197152
 H    0.6909431581   -0.5912728807    2.2228857644
 H   -0.5961196922   -3.4215128632    0.7805171821
 H   -0.1464090695   -3.4105993759   -0.9848918509
 H    2.3153512012   -3.5114714609   -0.3583430288
 H    1.8657388968   -3.5224253395    1.4068781338