21

 C   -0.3022520995    1.6090940946   -0.1253198738
 C    0.0029050261    0.1196846503   -0.0353017531
 C    1.1017151861   -0.5730696710   -0.9016895345
 C    2.3847329356    0.1848755190   -0.5170204584
 C    2.3417191897   -0.2729321984    0.9591842796
 C    3.2393193827    0.3375243578    1.9954376381
 O    2.5258870858   -1.7205251070    0.7731182440
 C    1.1957274003   -1.6838753817    0.2568133125
 C    0.7751419267   -0.5002886178    1.1437907339
 H    0.5764328797    2.2346330045    0.0542324024
 H   -0.7022447555    1.8716149300   -1.1112128385
 H   -1.0561023290    1.8881674231    0.6192346898
 H   -0.9331523149   -0.4429605739   -0.1457627882
 H    0.9300542286   -0.8219737789   -1.9480139188
 H    3.2873771931   -0.1994643441   -0.9970400050
 H    2.3224010934    1.2633858304   -0.6735185093
 H    3.0250682200    1.4055709884    2.1042513833
 H    3.1007380221   -0.1454152576    2.9668218698
 H    4.2894249439    0.2273158203    1.7043128062
 H    0.6939075246   -2.6445078420    0.1531228722
 H    0.3959702404   -0.6037858762    2.1602985579