13

 N   -0.0097638717    1.2993869869    0.1493418957
 C    0.0023965077   -0.0718847815    0.0573604761
 N   -1.1302096150   -0.7889751866    0.0374022265
 N   -0.6076331663   -2.0564980533    0.0131120259
 C   -0.9958650354   -3.3847970147   -0.0209389606
 C    0.1601822863   -4.0860076373   -0.0415966298
 O    1.2569654729   -3.2287338142   -0.0214175367
 C    0.7361476588   -1.9936599520    0.0114848097
 N    1.1931908166   -0.7641874034    0.0378674960
 H    0.8216841245    1.7362438357   -0.2185924351
 H   -0.8680948130    1.7276017005   -0.1638847056
 H   -2.0205108972   -3.7110936158   -0.0263224799
 H    0.3829957617   -5.1366768744   -0.0677517923