16

 C   -0.0599943990    1.4233563437    0.0271395047
 N   -0.0073551809   -0.0251946697    0.0114962003
 C    0.0027221268   -0.8018246365   -1.1102100773
 N   -0.0948564682   -0.2118782896   -2.3716337533
 C    0.0232051026   -2.1373152376   -0.7317936013
 C    0.0314959764   -2.1700379779    0.6768600253
 C    0.0245837229   -0.8615980720    1.1293210451
 C    0.0442197592   -0.3483477040    2.4378839376
 N    0.0566668477    0.0957929499    3.5112201613
 H    0.9211078580    1.8671761466   -0.1804371173
 H   -0.7732852849    1.7700301270   -0.7250705053
 H   -0.3845750947    1.7567530647    1.0134123679
 H    0.6161842794    0.4869822717   -2.5560695114
 H   -0.0803888434   -0.9047863342   -3.1078126784
 H    0.0371129955   -2.9810224888   -1.4039307479
 H    0.0527941825   -3.0428811932    1.3099070700