25

 C    0.8743287430    1.6732922746    0.1081500992
 C    0.1297473105    0.3430572848   -0.0002235445
 C    0.5091455181   -0.6148921731   -1.1794151200
 C    1.1788331524   -0.0616211777   -2.4318218602
 C    1.3141329790   -1.5318882122   -0.1857627071
 C    0.9985084375   -3.0243588109   -0.2745970332
 C    2.8320523810   -1.3247949392   -0.1959542092
 C    0.5980395552   -0.7733753354    0.9851300516
 O    1.3155747270   -0.4302854481    2.1475514024
 H    1.9613376941    1.5734431467    0.0196274448
 H    0.5549583316    2.3653991881   -0.6774570741
 H    0.6641982989    2.1455286621    1.0733119081
 H   -0.9427477179    0.5537652852    0.0634127219
 H   -0.3916397028   -1.1574297278   -1.4885689431
 H    2.0839211375    0.5099971694   -2.2075223366
 H    1.4610898861   -0.8710861174   -3.1143532432
 H    0.4977060887    0.6014601068   -2.9767526330
 H    1.3800526242   -3.4596763474   -1.2062035744
 H    1.4528635658   -3.5740816297    0.5581040320
 H   -0.0818000536   -3.2024376309   -0.2422685994
 H    3.1289664390   -0.2716012912   -0.1755272495
 H    3.2854913719   -1.8134521568    0.6728807370
 H    3.2779026025   -1.7631984040   -1.0950421189
 H   -0.2555678367   -1.3554042417    1.3459867168
 H    2.0715395871    0.1073148858    1.8914294526