17

 C    0.0555000203    1.5212170317    0.0025755381
 O    1.1877584272    0.6246895886   -0.0087657420
 C   -0.1143825002    0.0717068237    0.0307302731
 C   -0.5177617314   -0.9092659870    1.1043624640
 C   -1.8762138315   -1.5048188520    0.7393189578
 C   -2.7409025518   -0.7698457456   -0.2815322638
 O   -1.9296550306   -0.6557563243   -1.4586457241
 C   -0.5966583938   -0.9199002415   -1.0550584607
 C   -0.6524816376   -2.0119671654    0.0494232454
 H   -0.0627460705    2.1009596687    0.9171011479
 H   -0.1100033852    2.0699411037   -0.9233558919
 H   -0.1133490739   -0.9655299446    2.1074603700
 H   -2.3535637792   -2.1112837308    1.4998660787
 H   -3.6413308002   -1.3412025089   -0.5344610714
 H   -3.0483644636    0.2256598069    0.0649951739
 H    0.0389622277   -1.0416426415   -1.9306786812
 H   -0.2847518557   -3.0275168417    0.0268669164