15

 C   -0.0095652118    1.5024370980    0.0404697608
 C    0.0343806423   -0.0015578002    0.0190663785
 N    0.0150782086   -0.6078793244   -1.1708832634
 C    0.0545734278   -1.9350888661   -1.1678879292
 O    0.0340244966   -2.5220372257   -2.3783111903
 N    0.1117223452   -2.7369335815   -0.1033230782
 C    0.1307852404   -2.1286602800    1.0815232477
 C    0.0936047294   -0.7450439114    1.2052134875
 O    0.1165628678   -0.1970654341    2.4549041074
 H    0.8792858144    1.9249376073    0.5268774118
 H   -0.0525119906    1.8777548558   -0.9820509268
 H   -0.8899686390    1.8724678105    0.5818865604
 H    0.0674027814   -3.4733681907   -2.2138758105
 H    0.1771506132   -2.7519741239    1.9709698097
 H    0.0853848443    0.7619805662    2.3857567844