22

 C   -0.0312212754    1.4858349130    0.0404210385
 N    0.0734931640    0.0292681839    0.0332937404
 C   -1.2467268152   -0.5708185462   -0.1757286375
 C   -1.1654347267   -2.0900532358   -0.1690882362
 O   -0.6190639362   -2.5511628371    1.0505474679
 C    0.6873257210   -2.0405009777    1.2245633219
 C    0.7427821444   -0.5047156911    1.2329784119
 C    2.2160507275   -0.0600686617    1.2358495589
 O    2.8316485143   -0.3203730451   -0.0102581395
 H    0.9578898030    1.9490186212    0.0444466417
 H   -0.5475406976    1.8117309661   -0.8675063174
 H   -0.5972199150    1.8674637116    0.9095208910
 H   -1.9585684659   -0.2507055171    0.6084570230
 H   -1.6392421303   -0.2224450319   -1.1383534563
 H   -2.1643293577   -2.5261775213   -0.2583764937
 H   -0.5536161683   -2.4361288775   -1.0186844691
 H    1.0456479827   -2.4190587956    2.1858692260
 H    1.3551760193   -2.4132056576    0.4329107010
 H    0.2515070747   -0.1382268788    2.1540920282
 H    2.2928909327    1.0042472205    1.5049663686
 H    2.7613598609   -0.6203268929    2.0050471649
 H    2.1233573638   -0.2194149588   -0.6635260941