13

 C    0.3236169822    1.5053375556    0.1225204783
 O    1.1094251443    0.3818965287   -0.2617605765
 C   -0.2728121809    0.1604673070    0.0441024149
 C   -0.5786289182   -0.6331885300    1.2452486136
 C   -1.4403640039   -1.6650867797    1.4629434342
 C   -1.2567363287   -1.9608467712    2.8391835815
 N   -0.3660542329   -1.1807441865    3.3994727691
 O    0.0660675809   -0.3305114092    2.3858064387
 H    0.5532022319    1.9226943488    1.1002677724
 H    0.1076678675    2.2243100904   -0.6664552734
 H   -0.8931444408   -0.0893213321   -0.8148043982
 H   -2.0959907071   -2.1422247840    0.7541251396
 H   -1.7411158143   -2.7177727976    3.4397694458