21

 C   -0.2109431561    1.1949573107   -1.3253491187
 C    0.3067789080   -0.1223427445   -0.7870370464
 O    1.6748672073   -0.3801489485   -1.1628093755
 C    2.1152536857   -0.5246072153    0.2159060786
 C    2.5903272976   -1.9476831259    0.4821277630
 C    3.1796773692    0.5073608519    0.5523558216
 C    0.6573388142   -0.2372458623    0.7318795538
 C    0.4289105725    0.9088089384    1.5841989814
 C    0.2349257980    1.8593440323    2.2957840802
 H    0.3873146521    2.0341449644   -0.9623319020
 H   -0.1708998279    1.1835496827   -2.4190376738
 H   -1.2501704552    1.3532101528   -1.0189182512
 H   -0.3435969202   -0.9434168182   -1.1180888513
 H    3.4887152558   -2.1608462073   -0.1058388522
 H    2.8319717283   -2.0859757273    1.5415383882
 H    1.8217259670   -2.6744208905    0.2030258980
 H    2.8195497018    1.5207404541    0.3646169080
 H    3.4736513280    0.4366113765    1.6043478947
 H    4.0646630762    0.3324838206   -0.0677985892
 H    0.2120400602   -1.1248849786    1.1900125111
 H    0.0630659175    2.6965653940    2.9259989616