19

 C    0.0181165751    1.7708908374   -0.0351179509
 C    1.4980296826    1.4878366142    0.0835862609
 C    1.0492691247    0.2655510417    1.0454168708
 C   -0.0428670083    0.1998308485   -0.0987289678
 O   -1.3036748397   -0.2442461843   -0.5758833196
 C   -1.1873093617    0.3233595139   -1.9346338315
 C    0.3500107238    0.3877849613   -2.2835464547
 C    1.6784947073    0.8563547329   -1.3481153979
 C    0.9201588567   -0.3751835764   -1.1877158870
 H   -0.4616578228    2.0908996741    0.8934759498
 H   -0.3090030602    2.3873552826   -0.8686267515
 H    2.2208379586    2.2265856480    0.4284845963
 H    1.7081346927   -0.5986470055    1.1535341414
 H    0.7257280497    0.6351587096    2.0200105068
 H   -1.6518009196   -0.3948465903   -2.6181323371
 H   -1.7376799179    1.2673856147   -1.9810751700
 H    0.6218224353    0.2135120049   -3.3210576375
 H    2.6045300361    0.9267822440   -1.9108652397
 H    1.2324948977   -1.4124250011   -1.1164998808