15

 C    0.3515506897    0.9430880864    0.7134283981
 C   -0.4233301105    0.3162622540   -0.4604693059
 C    0.4973959232   -0.2230942043   -1.5148992604
 N    0.6920464668    0.3719625343   -2.6353018497
 C    1.5981073468   -0.2066234336   -3.5285865644
 O    1.8553624102    0.2573475891   -4.6150970033
 C    2.2387987772   -1.4538779740   -3.0454028565
 N    2.0170742844   -2.0187425124   -1.9183632826
 O    1.0827875928   -1.3721015501   -1.0994632553
 H    0.9955814141    0.2048825129    1.1981423959
 H    0.9740714848    1.7736533201    0.3689978467
 H   -0.3492919438    1.3281638192    1.4582483412
 H   -1.0525790447   -0.5019889961   -0.0949541801
 H   -1.0609734922    1.0583080686   -0.9441309216
 H    2.9624637313   -1.9544710440   -3.6826525522