21

 C    0.4310957913    0.2340039129    1.0029947628
 O   -0.0614619142   -0.6548165149    0.0107912646
 C    0.7301797906   -0.7986481102   -1.1328967374
 C    2.0253595942   -1.5546672805   -0.9978278423
 C    0.8136952588   -2.2126778857   -1.6299532430
 C    0.6174472672    0.3232698882   -2.1774735753
 C   -0.8581737643    0.6376627043   -2.4942254513
 C    1.3590428982    1.5329447048   -1.8101132533
 C    1.9704568127    2.5340658664   -1.5439592087
 H    1.4708818452    0.0029583018    1.2699615155
 H    0.3806861047    1.2799331023    0.6823092131
 H   -0.2031676562    0.0951821592    1.8822801335
 H    2.8589516753   -1.2720412119   -1.6316422679
 H    2.3055062067   -1.8869873353   -0.0048193491
 H    0.2906666129   -2.9570852083   -1.0414772706
 H    0.8154175902   -2.3921090005   -2.6997692465
 H    1.0849934765   -0.0658107000   -3.0920002713
 H   -0.9312937328    1.4059866722   -3.2675975856
 H   -1.3644569974   -0.2665434749   -2.8444254346
 H   -1.3746572438    0.9908939482   -1.5995930337
 H    2.5134236841    3.4132616419   -1.2995855287