15

 C   -0.0442961214    1.5572309861   -0.0360166504
 C    0.0271308577    0.0317343940    0.0126258087
 O    0.7732252465   -0.4656517603   -1.1127077586
 C    1.8296940452   -1.2302035243   -0.6945456162
 N    2.6726469474   -1.8112596670   -1.4304476641
 C    1.7974256578   -1.2487153209    0.7873854075
 C    0.7510650505   -0.5245490559    1.2035334840
 C    2.7476885807   -1.9383517154    1.5861173382
 N    3.5130692052   -2.4940569120    2.2518655995
 H    0.9569542636    1.9910231648    0.0280554482
 H   -0.5087667380    1.8764479664   -0.9720295144
 H   -0.6465974759    1.9333336606    0.7964516503
 H   -0.9887959133   -0.3844155273   -0.0516415056
 H    2.4774325341   -1.6440944189   -2.4180986157
 H    0.4500992100   -0.3429481499    2.2261091086