25

 C    0.0847165257    1.5575764835    0.1063211035
 C    0.0298251641    0.0299910516    0.0709160366
 O    0.6793368879   -0.5327240534    1.2113277707
 C   -1.4028606849   -0.4997296395   -0.0826617710
 C   -1.4689002315   -2.0263102188   -0.2000788083
 C   -2.8904924731   -2.6122387635   -0.1813532859
 C   -3.7443789565   -2.1627569152   -1.3745033187
 C   -2.8209835660   -4.1390203348   -0.1115989693
 O   -4.1372812787   -4.6476588259    0.0593553579
 H    1.1150718925    1.8981303006    0.2397913028
 H   -0.3091896939    1.9912721452   -0.8186266427
 H   -0.5154254633    1.9486910449    0.9379117575
 H    0.6283559652   -0.3271759041   -0.7772789150
 H    0.2144069364   -0.2151925965    1.9939303936
 H   -1.9916585866   -0.1685130636    0.7871494798
 H   -1.8595023865   -0.0236838181   -0.9585377505
 H   -0.9616551402   -2.3364769499   -1.1254251493
 H   -0.8859893511   -2.4525536459    0.6244903821
 H   -3.3878209038   -2.2817835713    0.7421207740
 H   -4.7132834750   -2.6664905761   -1.3574993887
 H   -3.9206957357   -1.0833691619   -1.3649273256
 H   -3.2488402549   -2.4124122192   -2.3214051855
 H   -2.3631924587   -4.5281741188   -1.0369430428
 H   -2.1721590755   -4.4393237633    0.7266307789
 H   -4.0949108258   -5.6074724358    0.0309306856