17

 O   -0.0761179085   -0.0147469752    0.1714153878
 C   -0.0744959547    1.1803312586    0.0889685966
 C   -1.1537538074    2.2616885949    0.1435008151
 C   -1.6050081015    2.7847341355   -1.2766583909
 C   -0.7200843545    4.0617954273   -1.1179698061
 C   -0.0252848499    3.3579132508    0.0306565208
 O    0.6100360804    3.9592567479    1.1429035050
 C    1.5640951656    2.8713600542    1.2171062843
 C    1.0382793489    2.2265333319   -0.1011063803
 H   -1.9342959379    2.2247991529    0.9033406114
 H   -1.3083467511    2.1334961223   -2.1011333610
 H   -2.6773155992    2.9656108512   -1.3479286546
 H   -0.1086123464    4.3871911825   -1.9634145524
 H   -1.3128709265    4.9096399745   -0.7612809452
 H    2.5911634088    3.2413115293    1.1511731235
 H    1.4457348102    2.2750276448    2.1282136222
 H    1.7603893738    2.1142735066   -0.9097844762