19

 C   -0.1253811651    1.4966313626    0.0447794115
 C    0.0313604811    0.0158095427   -0.0383256963
 C    0.0547276883   -0.7993489293   -1.1017050814
 C    0.0526522725   -2.2185192843   -0.5591946491
 C    0.9231496376   -2.0652718700    0.6949111061
 C    0.0362944453   -0.8917785289    1.1953453999
 O    0.2776195439   -0.3077039306    2.4448781079
 C   -1.3402218911   -1.6207509932    1.1756603126
 O   -1.2648438901   -2.4678277657    0.0296215313
 H    0.7019445554    1.9603231946    0.5963657248
 H   -0.1673419547    1.9500165092   -0.9489085485
 H   -1.0401041999    1.7657799683    0.5870647989
 H   -0.0594807985   -0.5257324813   -2.1433914523
 H    0.2613629749   -3.0298529460   -1.2534917756
 H    0.9013384366   -2.9410916313    1.3488382471
 H    1.9499452686   -1.7602072136    0.4830099203
 H    1.1645264329    0.0666106958    2.4393132489
 H   -1.4631302944   -2.2185958992    2.0871308434
 H   -2.1807703834   -0.9226691797    1.0885435605