14

 O    0.1354333470    1.3338360555   -0.3941596809
 C    0.0372396381    0.1122693003    0.3010461822
 C   -1.3687079459   -0.4632899398    0.1965486311
 O   -1.6681159856   -1.0285399422   -1.1001399206
 C   -1.5865120901   -1.9259192301    0.0007976861
 C   -0.4879264840   -2.8691042636    0.0079339675
 N    0.3702948872   -3.6429006320    0.0313916059
 C   -2.4278704517    0.3048088420    0.8003310612
 C   -3.2918085551    0.9475192234    1.3322742180
 H   -0.0192809189    1.1508179163   -1.3278477064
 H    0.7546445185   -0.6341396941   -0.0645364111
 H    0.2656511892    0.3264650582    1.3490175501
 H   -2.5359413324   -2.3434916712    0.3294877514
 H   -4.0567169563    1.5230657872    1.7937973055