19

 O   -0.0449895631    1.4360888999    0.2979130327
 C    0.0457818403    0.0425467546    0.0284657540
 C    0.6515802139   -0.7255090749    1.2172330413
 C   -0.0442981966   -1.8426968230    1.4349001664
 C   -0.8785289571   -2.3100620914    2.6125521162
 C   -2.0915329518   -1.8962266110    1.6893438086
 C   -2.2380194837   -0.3782125087    1.3002720748
 C   -1.3714463325   -0.5647261947   -0.0106638668
 C   -1.1779516835   -2.0301484985    0.4339042524
 H    0.8358823671    1.8151410329    0.2210110593
 H    0.5646088769   -0.1199095167   -0.9312424206
 H    1.3054675737   -0.2270797114    1.9258406049
 H   -0.9052593702   -3.3940265090    2.7711370205
 H   -0.7233094367   -1.8028051522    3.5685908250
 H   -3.0222359725   -2.4507204505    1.8285085956
 H   -3.2749644303   -0.1307986956    1.0638264505
 H   -1.8637128105    0.3558628298    2.0152033055
 H   -1.9144172740   -0.3574903466   -0.9359911305
 H   -1.1761097093   -2.8839359628   -0.2446240798