23

 O   -0.0672215277    1.3903347964    0.1828610110
 C    0.0285223845   -0.0072694147   -0.0198579460
 C    0.2071125991   -0.5319867298   -1.4756588685
 C   -0.8831447856   -1.5955811048   -1.1651872803
 C   -1.3675878404   -0.6859886659    0.0015533551
 C   -1.9019121792   -1.2375421074    1.3239089047
 C   -0.8092959787   -1.8400334936    2.2215559847
 C    0.3877519037   -0.8870065484    2.3480020185
 C    1.0154495281   -0.6522925865    0.9689060719
 H    0.8240850686    1.7558256992    0.2022741111
 H   -0.1530481730    0.2135212652   -2.1894808659
 H    1.1992357729   -0.8772479727   -1.7801730866
 H   -1.6069181880   -1.8211123051   -1.9508497842
 H   -0.4507847170   -2.5367945246   -0.8134724531
 H   -2.0792805491    0.0374741799   -0.4095614621
 H   -2.3788493979   -0.4137269979    1.8708836547
 H   -2.6915424412   -1.9744204798    1.1308397360
 H   -1.2287963690   -2.0652884683    3.2082160526
 H   -0.4613193402   -2.7973672356    1.8093387219
 H    0.0575008748    0.0715452880    2.7684514678
 H    1.1342806747   -1.2985255228    3.0361049110
 H    1.3600397748   -1.6150482113    0.5713356118
 H    1.9101074955   -0.0179887095    1.0381927839