17

 O   -0.0764721969    0.0842585697   -0.1695548178
 C   -0.0573361213    1.2525113797    0.0483139219
 O   -1.0883051067    2.0451191839    0.4838653989
 C   -0.2314369146    3.2306058102    0.5205710745
 C    0.9741797074    2.3965329197    0.0104546156
 C    2.2279405997    2.2075688247    0.9020077918
 C    3.4026507782    2.8697524345    0.1363712127
 C    2.8561297504    3.0301804131   -1.2588521095
 C    1.5520050784    2.7702334968   -1.3291635158
 H   -0.6079497635    4.0008038429   -0.1560693742
 H   -0.1498098972    3.6172071418    1.5391869319
 H    2.0864384003    2.6136858946    1.9064989383
 H    2.4126784531    1.1345160924    1.0066212798
 H    3.6792450400    3.8447675545    0.5598016825
 H    4.3097638733    2.2563102560    0.1656208254
 H    3.4687345562    3.3499353119   -2.0946306589
 H    0.9371741932    2.8408254836   -2.2193197671