20

 C   -0.0346594943    1.5600628918    0.0152372187
 C    0.0242380724    0.0341583831   -0.0125084654
 C    0.8533147566   -0.5616015651   -1.1797989601
 C    1.3669869984   -1.8823457695   -0.6222252333
 C    2.5853658896   -1.8704756215    0.2525487848
 C    3.4278357233   -0.7144697298    0.3447180282
 C    4.1515818703    0.2431415312    0.4389018704
 N    1.2163745651   -1.9115748762    0.8417838094
 C    0.6603882880   -0.5991770580    1.2481345637
 H    0.9724908858    1.9852564803    0.0887799698
 H   -0.5024573941    1.9575003202   -0.8915753852
 H   -0.6152498373    1.9205735812    0.8711281022
 H   -0.9975520663   -0.3568750794   -0.0979537683
 H    0.2500318347   -0.7138422756   -2.0782391427
 H    1.6809032754    0.1047032435   -1.4465295981
 H    1.1288447742   -2.8047155170   -1.1460603047
 H    3.1143178188   -2.8114220143    0.3898292757
 H    4.7990933298    1.0810920882    0.5188015435
 H    1.4434596659    0.0457869949    1.6632701719
 H   -0.0794904263   -0.7726346679    2.0346845497