20

 C   -0.1921196001    1.5141605697   -0.0306407502
 C   -0.0100468369    0.0019279130    0.0346361674
 C   -1.3198162832   -0.7664579272    0.1217260580
 O    0.6461279069   -0.4611227398   -1.1806642457
 C    1.9828313380   -0.3767470306   -1.2258205962
 O    2.6836046036    0.0456732804   -0.3321461818
 C    2.5163956456   -0.8826065250   -2.5241563254
 C    3.5936392600   -0.0614749946   -3.1592252917
 N    3.9148351997   -1.3381887221   -2.5328519994
 H    0.7766215755    2.0148324502   -0.0906367787
 H   -0.7934298157    1.7929634319   -0.9017805937
 H   -0.7049105380    1.8678963937    0.8691612281
 H    0.6450968474   -0.2521264275    0.8723999446
 H   -1.9619167877   -0.5381139163   -0.7346188825
 H   -1.1380738006   -1.8442904896    0.1389527020
 H   -1.8544770137   -0.4915039713    1.0356696360
 H    1.8241287082   -1.4440224534   -3.1408715722
 H    3.6624932500   -0.0415536256   -4.2428045110
 H    3.8777143248    0.8542732731   -2.6492196569
 H    4.2933353562   -1.1563820989   -1.6031332807