16

 O   -0.2038917673    0.2685595351   -0.6329510677
 C    0.2002717369    1.0478223967    0.1994248080
 C    1.2576030570    2.0000024930   -0.0175508529
 C    2.1453264501    2.8056114416   -0.1657792318
 C    3.1981029682    3.7885522607   -0.3689700218
 N    3.5589770918    4.4642699972    0.8810174948
 C    4.5636055272    5.5153382480    0.6946925509
 C    4.1674854878    6.6123060963   -0.1984229703
 C    3.7936004481    7.4898844200   -0.9311166996
 H   -0.2327413912    1.0805997433    1.2201454953
 H    4.0929917188    3.2794815160   -0.7535227265
 H    2.8778735263    4.4847142160   -1.1648259749
 H    2.7215099919    4.8698451152    1.2875941791
 H    4.8128561991    5.9182988999    1.6825063585
 H    5.4802003042    5.0466142808    0.3141981595
 H    3.4786647712    8.2734920502   -1.5754511404