16

 O    0.1267370083    1.3878648673    0.1092448470
 C    0.0635977665    0.0179500599    0.0396317248
 C    0.6573728992   -0.9777034722    1.0309065159
 N    0.0089768596   -1.9061865198   -0.0026619744
 C   -1.1883692495   -0.9156846898   -0.0215479988
 C   -1.7191485417   -0.9155136888   -1.4425092286
 O   -1.3002609589    0.2505901622   -2.1874293064
 C   -0.4718462170   -0.9340889740   -2.2083013262
 C    0.5550670275   -0.9416483891   -1.0919460032
 H   -0.3459988137    1.7134797153   -0.6686496407
 H    1.7451482912   -1.0715587849    1.0792723577
 H    0.2065149255   -1.0486451681    2.0239310142
 H   -1.8720762589   -1.0022512957    0.8225011470
 H   -2.6530511526   -1.3702303729   -1.7504262336
 H   -0.3338633304   -1.4047684228   -3.1743115939
 H    1.6149814549   -1.0541816967   -1.3184093409