16

 C    0.0167021835    1.5483510740    0.2090977054
 C   -0.0124128516    0.0574749975    0.0261273259
 C   -1.1295002355   -0.6745936104    0.0580598993
 C   -1.1455113672   -2.1556100349   -0.1257381507
 C    0.2062782843   -2.8004226324   -0.3506445916
 O    0.3643304749   -3.9744844551   -0.5099140258
 O    1.3066528956   -1.9829015043   -0.3720339556
 C    1.2815145484   -0.6031438935   -0.1995253577
 N    2.3687289466    0.0431502675   -0.2408119069
 H    0.6448919735    1.8226330903    1.0616432994
 H    0.4550896505    2.0382178529   -0.6652544636
 H   -0.9917501826    1.9376616464    0.3685885289
 H   -2.0882402038   -0.1909961486    0.2243005198
 H   -1.5966789717   -2.6594696913    0.7392683387
 H   -1.7790383360   -2.4441525803   -0.9750299875
 H    3.1546867014   -0.5877045579   -0.4061234779