19

 C   -0.0640099139    1.5396242375   -0.0068598539
 C   -0.0599606069    0.0130623668   -0.1096312936
 C    0.8318339801   -0.5150287679   -1.2422727605
 O    2.1800916349   -0.0641521833   -1.0970113347
 C    0.7542274914   -2.0215730966   -1.3718511185
 C   -0.2715022087   -2.6577750903   -2.2781495459
 C    1.1902849335   -2.6909886422   -2.6470680566
 H    0.9546602158    1.9180883366    0.1101236048
 H   -0.4840291544    1.9930696391   -0.9117419122
 H   -0.6612499092    1.8799547335    0.8444608329
 H    0.2878343962   -0.4250681258    0.8377520035
 H   -1.0786019678   -0.3638759525   -0.2630041492
 H    0.5021603535   -0.0676730108   -2.1899418814
 H    2.5501024133   -0.5037318313   -0.3233975187
 H    0.9680313182   -2.5562402092   -0.4470577739
 H   -0.7465573590   -3.5770388044   -1.9540870770
 H   -0.9231565844   -1.9998882059   -2.8445567999
 H    1.5277031081   -2.0501910873   -3.4548071464
 H    1.7174225593   -3.6362781259   -2.5812977489