21

 C    1.0265726467    0.8145125690    0.6295365997
 O    0.8656584203   -0.5071062629    0.1707198937
 C    0.1396636213   -0.5623065876   -1.0436673650
 C   -0.0058806433   -1.9444256742   -1.4788923225
 C   -0.1466224197   -3.0802626719   -1.8528707905
 C   -0.2605467612   -4.4607467348   -2.3031193083
 C    1.0952299749   -5.2073636191   -2.3671970575
 C    1.7611627297   -5.3367508454   -1.0004637457
 O    0.9176387734   -6.4708742176   -2.9939669152
 H    1.5839739824    1.4348481702   -0.0908301765
 H    0.0577619777    1.3028346527    0.8226539884
 H    1.5901819256    0.7661080947    1.5638752139
 H   -0.8564973763   -0.1029428341   -0.9147956647
 H    0.6548820240    0.0259250389   -1.8236246399
 H   -0.9390396727   -5.0181181799   -1.6409166742
 H   -0.7060887958   -4.4950139898   -3.3040553548
 H    1.7541637037   -4.6495489810   -3.0416064194
 H    2.7171338115   -5.8589351430   -1.0928043124
 H    1.9336939633   -4.3536287099   -0.5545265631
 H    1.1223593998   -5.9075920623   -0.3132230541
 H    0.4739439747   -7.0510052722   -2.3651901418