16

 C   -0.2711685915    1.5201092070    0.0746783316
 C   -0.0022899012    0.0553972312   -0.0555183310
 C    0.0658274790   -0.6230056680   -1.2113242844
 N    0.3208206867   -1.9843936869   -1.2241889955
 C    0.5232582929   -2.7523008122   -0.0946248023
 N    0.7544336294   -4.0031678248   -0.1742115453
 C    0.4511464971   -2.0088460310    1.2235171847
 O    0.6131326405   -2.5811570021    2.2838940038
 N    0.1938339465   -0.6640642698    1.1329858222
 H    0.5558885344    2.0405056527    0.5745186310
 H   -0.4043662960    1.9718525455   -0.9103677570
 H   -1.1792391283    1.7145782155    0.6597281008
 H   -0.0726924289   -0.1478249067   -2.1708942118
 H    0.3698793815   -2.4829101936   -2.0997836180
 H    0.8703580397   -4.3605557466    0.7753626678
 H    0.1484508783   -0.1802340902    2.0192630734