23

 C   -0.0994623876    1.5615881555   -0.0423438894
 C    0.0012418742    0.0254472078    0.0103037358
 C    0.8191536971   -0.5273431889   -1.1493292752
 C    0.3142976331   -0.4905176669   -2.5582824924
 C    2.0000353408   -0.9903749432   -0.7333745157
 C    2.1850665865   -0.8670993427    0.7576402648
 C    0.7703175898   -0.5111152820    1.2337118591
 C    0.5059029006   -0.0369543173    2.6357839621
 C    0.0752553700   -1.4221718340    2.2151633613
 H    0.8943338231    2.0200969336   -0.0098362348
 H   -0.5940671360    1.8950686074   -0.9605804782
 H   -0.6783548826    1.9494530044    0.8016727495
 H   -1.0210416524   -0.3782705863   -0.0081400178
 H    0.0964681941    0.5338865194   -2.8849397973
 H    1.0406379652   -0.9174853280   -3.2554860476
 H   -0.6230263394   -1.0534308367   -2.6574512966
 H    2.7664392030   -1.3956819273   -1.3865711030
 H    2.5584256713   -1.7890371891    1.2210717267
 H    2.9166721748   -0.0827316130    1.0044075821
 H    1.3512350900    0.0543705213    3.3108452407
 H   -0.2663354022    0.7083644092    2.7971566515
 H   -0.9869023812   -1.6039693981    2.0818666561
 H    0.6261400479   -2.2724810652    2.6052200082