16

 C    0.0061421384    0.7425739953   -0.6437045337
 O    0.1580195425    0.9357281823    0.7503562171
 C    0.7927568112   -0.0723861397    1.3924664228
 C    1.3226969867   -1.2734939891    0.9948085746
 C    1.8529080958   -1.8848776656    2.1883612752
 O    2.5500500922   -3.0704784040    2.3173254808
 C    1.6248798510   -1.0358539649    3.2324383776
 O    1.9289817598   -1.1106828084    4.5540662929
 N    0.9799232430    0.0798972133    2.7465745688
 H   -0.5887225260   -0.1556448001   -0.8552787340
 H   -0.5120880148    1.6231628501   -1.0258158538
 H    0.9819496043    0.6456655814   -1.1372806020
 H    1.3533050441   -1.6762424098   -0.0035917924
 H    1.9706325226   -3.7976230732    2.0653649159
 H    2.4223357203   -1.9315141958    4.6693419642
 H    0.6905364388    0.8757363481    3.2871823760