23

 C   -0.0774039182    1.5580146867    0.1143323666
 C    0.0055580102    0.0406858596    0.0778185867
 C   -1.2339354398   -0.5817735083   -0.5380227692
 O   -1.3593783659   -0.0947122263   -1.8713820680
 C    1.2706096033   -0.7263539423   -0.2562233667
 C    2.5227559111   -0.0199400191    0.2663285341
 C    1.9128235348   -0.0467081925    1.7029351743
 C    0.6719738612   -0.7858143607    1.1623920305
 C    0.0224262635   -1.8895588794    1.9557736950
 H    0.8493213666    2.0263412527    0.4488817590
 H   -0.3122406763    1.9421120889   -0.8816420814
 H   -0.8752564102    1.8825068495    0.7939120963
 H   -1.1540848337   -1.6780317940   -0.5393282843
 H   -2.1218003840   -0.3148884720    0.0588298493
 H   -2.2045740319   -0.3944009046   -2.2183002277
 H    1.2587461580   -1.4767583490   -1.0394695850
 H    3.4184867301   -0.6408908715    0.1921176750
 H    2.7489691311    0.9597346187   -0.1666244585
 H    2.4925307898   -0.6784687307    2.3813290163
 H    1.7398025041    0.9139044304    2.1982021370
 H   -0.4741224597   -1.4848838135    2.8472883072
 H   -0.7284002607   -2.4449889255    1.3882869443
 H    0.7718175265   -2.6109487072    2.3025782092