22

 C    0.0263553380    1.4762185723   -0.0288069366
 C   -0.0616740149   -0.0214091233    0.0306488157
 N   -1.1755025650   -0.6277081569    0.0197377797
 C   -1.2309338775   -2.0966269007    0.0151932352
 C   -1.6751677409   -2.5636613282    1.4134241038
 C   -2.2995570026   -2.4967715075   -1.0140008271
 C    0.1311584075   -2.7067033079   -0.3769406577
 C    1.2562988860   -1.9723500009    0.3346545204
 O    1.1886896214   -0.5643589031    0.0860949762
 H    0.6297298139    1.7847189581   -0.8887374774
 H   -0.9743602550    1.8982383893   -0.1102843069
 H    0.5208868787    1.8649186585    0.8673480272
 H   -2.5946721512   -2.0476756175    1.7025660438
 H   -1.8635461279   -3.6428235034    1.4193755563
 H   -0.9202648796   -2.3420043119    2.1739547341
 H   -2.0310116270   -2.1295855842   -2.0091664161
 H   -2.4069627292   -3.5858422165   -1.0641439139
 H   -3.2652841606   -2.0606705208   -0.7439963593
 H    0.1727579776   -3.7745274623   -0.1358415075
 H    0.2755151988   -2.6100116870   -1.4593853003
 H    1.2150764905   -2.1369499501    1.4192724061
 H    2.2412770091   -2.2899602362   -0.0166646357