16

 O    0.0154506928    1.3221368779   -0.6796409573
 C   -0.0489714250    0.0749146099    0.0252068029
 C   -1.4220353501   -0.5182573891    0.0129957323
 N   -2.0703356437   -0.8317210596    1.1366388995
 N   -3.2277999108   -1.3021529642    0.6958534647
 N   -3.4042740341   -1.3096118660   -0.6205889558
 C   -2.2596441182   -0.8139161134   -1.0908684382
 C   -1.9975466813   -0.6049316714   -2.5554181967
 O   -1.7721397854    0.7522196904   -2.8878382020
 H   -0.5803618004    1.9374917664   -0.2365981521
 H    0.6633916777   -0.5742484147   -0.4939943428
 H    0.2895299454    0.1852790102    1.0619026498
 H   -3.9410764242   -1.6298237904    1.3270384174
 H   -1.1502654581   -1.2386316112   -2.8676527854
 H   -2.8749085848   -0.9351528466   -3.1173872450
 H   -1.0287877998    1.0612099116   -2.3472919812