15

 O    0.2400047634    0.0367463678   -0.1137443649
 C    0.1082677441    1.2242141250   -0.1202669167
 C   -1.1239064971    2.1599910353    0.0359290707
 C   -0.1201854781    3.3219796149    0.1319495821
 C    1.0828900443    2.3902015586   -0.0534326454
 N    0.7296967993    3.4249591520   -1.0209327628
 C    0.2727858879    3.1157604507   -2.3780140156
 C    1.4256210913    2.9683465202   -3.2712559363
 N    2.3240832637    2.8423354753   -3.9852152999
 H   -1.8713345552    2.1940297293   -0.7606679769
 H   -1.6270186756    1.9400157520    0.9820930371
 H   -0.1899476949    4.1725935604    0.7994601418
 H    2.0787277617    2.3990802645    0.3740125145
 H   -0.3457255828    2.2125016828   -2.4715849396
 H   -0.3305558820    3.9613938212   -2.7264643380