18

 O   -0.0232941856    1.3865113646    0.4836383398
 C    0.0506230147    0.0327757961    0.0854984673
 C   -1.3157004254   -0.5683790462   -0.1207539077
 N   -2.1516288146   -1.0840527233    1.0088321544
 C   -1.6881249780   -2.0086093914   -0.0317088381
 C   -2.7777936216   -2.3280717107   -1.0504297497
 C   -3.3260015677   -0.9483907898   -1.4852862162
 C   -2.2129063573    0.0482422685   -1.1583548498
 O   -2.0301729658    1.1296290307   -1.6710320764
 H   -0.5230418167    1.8372011462   -0.2109373935
 H    0.6350173195   -0.0831034219   -0.8417962866
 H    0.5856665093   -0.5075534178    0.8757487095
 H   -1.5456187954   -1.1502025617    1.8252977753
 H   -0.9429245274   -2.7576398348    0.2187979343
 H   -2.3338497334   -2.8518404026   -1.9037242861
 H   -3.5508480753   -2.9751821866   -0.6268853246
 H   -3.5996939000   -0.8864873308   -2.5400509333
 H   -4.2053770992   -0.6643691085   -0.8978866088