17

 C   -0.1645051857    1.5915276500   -0.1767867942
 C    0.2025704747    0.1241476834   -0.1422825129
 O    1.5099449000   -0.1416104621   -0.7120925016
 C    1.9015215016   -0.9422545400    0.4202049950
 C    0.6352172830   -0.5383006297    1.1808664946
 C    0.6276468597    0.1434475026    2.5565100193
 C   -0.2519085759   -1.0412015254    2.9546594044
 O   -0.8153797621   -1.4466842992    3.9166799483
 O   -0.2132875798   -1.6071261834    1.6998039134
 H    0.5846975873    2.1986441235    0.3401649232
 H   -0.2231027278    1.9342395220   -1.2140217302
 H   -1.1418552012    1.7561502170    0.2894546500
 H   -0.5679652648   -0.4835129922   -0.6373888615
 H    1.9409034294   -2.0139627322    0.1884788768
 H    2.8595110475   -0.6214388774    0.8449791213
 H    1.5861255488    0.1899005929    3.0767306421
 H    0.1316176752    1.1134414202    2.6170552220