19

 O    0.0649824316    1.3865526612   -0.1169025839
 C    0.0073636236   -0.0066971017    0.1595646323
 C   -1.3963053877   -0.5451350526    0.0857064165
 C   -2.4396495007    0.0175082607    1.0391321397
 O   -3.5078902403   -0.9378073041    1.0605704017
 C   -2.9377880381   -2.2395330934    0.8764358764
 C   -1.7384182235   -2.0309059832   -0.0285560729
 C   -1.9648885085   -1.1091937840   -1.2008218959
 O   -3.2270653198   -0.7882575718   -1.6967525550
 H   -0.3148903947    1.5225259885   -0.9918293675
 H    0.6637042567   -0.5801504109   -0.5144492489
 H    0.4098194119   -0.1174701456    1.1738559109
 H   -2.0042454090    0.1479201839    2.0419101710
 H   -2.8694443202    0.9721316406    0.7236558596
 H   -2.6285912689   -2.6748933863    1.8384250368
 H   -3.7205390832   -2.8713750917    0.4444849727
 H   -0.9730512814   -2.7986493583   -0.0669538150
 H   -1.2629039701   -1.2101810771   -2.0240991511
 H   -3.8230563877   -0.7179472143   -0.9371492475