18

 C    0.3889053566    1.1844536690    0.0551988426
 N    0.0159674831   -0.2110821221    0.1930280568
 C    0.3187497424   -0.9416357508    1.3011399266
 O    0.8827679395   -0.4990551425    2.2811732911
 C   -0.1780301560   -2.3955702534    1.2306407563
 O    0.4260158167   -3.1867803057    2.2407839181
 C    1.7337404930   -3.4826171616    2.0298312053
 C    2.3172457354   -4.1849405595    3.2270868964
 O    2.3165064107   -3.2063918428    1.0131998942
 H    0.7603733339    1.5185539887    1.0243426386
 H    1.1801888671    1.3188264256   -0.6911038128
 H   -0.4741444268    1.7939221565   -0.2318325845
 H   -0.3557193370   -0.6891209522   -0.6115715925
 H   -1.2515030924   -2.4239122542    1.4365453076
 H    0.0159859131   -2.8209740346    0.2410422657
 H    2.4381478492   -3.4579210763    4.0362182304
 H    1.6434712232   -4.9670274263    3.5844995177
 H    3.2886800780   -4.6036377378    2.9669361525