23

 C   -0.6821829860    1.4432524838    0.1553043250
 C   -0.0912867407    0.0466359206   -0.0168155853
 C   -1.1557216561   -0.9342921319   -0.5209658689
 C    1.2293530446   -0.0317956718   -0.8549915556
 C    1.8652656929   -0.9312675153    0.2409614178
 O    3.1927651171   -0.6933138241    0.6430522974
 C    0.7147806400   -0.5279163966    1.1766957263
 C    0.9333921615    0.1101562282    2.5203023320
 C    0.2378020126   -1.2270268000    2.4110292827
 H    0.0689062205    2.1571134868    0.5077280542
 H   -1.0785025505    1.8154365667   -0.7965256107
 H   -1.5092368532    1.4427802314    0.8756733965
 H   -1.5646417027   -0.6026150960   -1.4822538700
 H   -0.7460150451   -1.9398003071   -0.6596878934
 H   -1.9882676415   -1.0113820216    0.1873149437
 H    1.1586119339   -0.4427640072   -1.8654907442
 H    1.7363033664    0.9378923265   -0.9059186647
 H    1.8337208557   -1.9929773363   -0.0229195015
 H    3.2608918606    0.2378090671    0.8816481431
 H    1.9471242494    0.1177312785    2.9099175913
 H    0.3393598896    0.9765548567    2.7916807132
 H   -0.8305329213   -1.2584308629    2.6031394660
 H    0.7762662126   -2.1119010056    2.7367857949