19

 C   -0.1942073991    1.6580942596    0.0466286036
 C    0.0212564914    0.1567180895   -0.0792631886
 C   -1.3107577876   -0.6112704909   -0.0846006209
 O   -2.0394573084   -0.4222662795    1.1070017552
 C    0.9302276397   -0.2557159440   -1.2594925090
 C    1.7853964317   -1.3890070766   -0.6858138097
 C    1.7240227506   -1.1803561855    0.8226847802
 O    2.3934928630   -1.6897305121    1.6723092464
 O    0.7370898153   -0.2862437787    1.1132796274
 H    0.7582632582    2.1688081620    0.2107273406
 H   -0.6440524743    2.0471735992   -0.8726545131
 H   -0.8666837975    1.8776326782    0.8782641681
 H   -1.9384283147   -0.2452363758   -0.9042733246
 H   -1.1117163324   -1.6799160580   -0.2707363755
 H   -1.4454816975   -0.6524780311    1.8319667252
 H    0.3430143579   -0.5524992521   -2.1324230788
 H    1.5568355234    0.5901354344   -1.5560489126
 H    1.3772058078   -2.3815244047   -0.9037565286
 H    2.8243469827   -1.3901132938   -1.0188035752