19

 C   -0.0397391662    1.5522654273   -0.1617752304
 C    1.4327526678    2.0011334901    0.0559117640
 C    2.0940157233    0.8645314244    0.8776062508
 C    1.7397371117    0.9872751591    2.3714546485
 O    0.4392692471    1.5513324093    2.6275234136
 C    0.5889866966    0.1235870189    2.6491233202
 C    0.2489634215   -0.6393905881    1.3883833775
 C   -0.0211061614    0.0342577634    0.0418195070
 C    1.3692997996   -0.4201996145    0.3896222872
 H   -0.7208146907    2.0590734769    0.5215588334
 H   -0.3684725466    1.7714603877   -1.1831210556
 H    1.9406262570    2.0828175159   -0.9109226893
 H    1.5086021076    2.9714618516    0.5535955188
 H    3.1769072753    0.8218108026    0.7422296024
 H    2.5008699009    1.2465691395    3.1037119569
 H    0.4020186169   -0.3430966833    3.6131815584
 H   -0.1887299774   -1.6231819786    1.5185683862
 H   -0.6245417299   -0.5653087716   -0.6326530942
 H    1.8975234267   -1.2200605507   -0.1162250652