15

 C   -0.0090453756    1.5091222020    0.0259020341
 C   -0.0213077738    0.0044934902   -0.0162839087
 C    0.1160278536   -0.6929861736   -1.2173063194
 C    0.0974710925   -2.0905093689   -1.1976760907
 C   -0.0583174066   -2.7450980201    0.0264785718
 C   -0.1871890962   -1.9589335030    1.1661165110
 N   -0.1708377838   -0.6262587035    1.1585203653
 C    0.2359486798   -2.8354302656   -2.4126355061
 N    0.3478968412   -3.4369839919   -3.3947743568
 H    0.1168524992    1.9429501280   -0.9685107682
 H   -0.9431845663    1.8819968018    0.4572361354
 H    0.8027558496    1.8618560497    0.6695225963
 H    0.2356383926   -0.1631840236   -2.1545429367
 H   -0.0777564485   -3.8260710051    0.0836989185
 H   -0.3103049378   -2.4305729464    2.1379527841