15

 O    0.0142843485    0.0018893071    0.0037593439
 C    0.0136384021    1.2000607213    0.0099580056
 O   -1.1253550485    1.9289363799    0.0288828516
 C   -0.8730593486    3.3796812310    0.0330497532
 C   -0.0201379988    3.6698937915    1.2588249372
 C    1.1078678170    2.9662391791    1.2505899808
 C    1.2693261917    2.1090097778   -0.0020167548
 C    1.0747506543    2.9791586528   -1.2409333319
 C   -0.0529795505    3.6827043952   -1.2118876967
 H   -1.8593565233    3.8368259546    0.0485301690
 H   -0.3536037471    4.3429455415    2.0370838443
 H    1.8457577187    2.9345700173    2.0413842483
 H    2.1652017850    1.4947634958   -0.0171089149
 H    1.7913573002    2.9557911164   -2.0513461117
 H   -0.4069200605    4.3637428389   -1.9739885940