18

 C   -0.1778572286    1.5740661181    0.1142676780
 C    0.0156752603    0.0613104784    0.0553400253
 O    1.1376632024   -0.2842011894   -0.8078908855
 C    1.8789483326   -0.9062142850    0.2698633634
 C    0.7571478328   -0.5964861695    1.2472014286
 C    0.7206093047   -0.2136538029    2.6710246401
 N    0.2222835322   -1.5280239406    2.2151056948
 C   -1.2149193198   -0.6272460431   -0.3232789479
 C   -2.2411614599   -1.1972754874   -0.5848497484
 H    0.7480094851    2.0546292790    0.4400329955
 H   -0.4416933048    1.9508378520   -0.8777167898
 H   -0.9828135496    1.8374718847    0.8069755533
 H    2.0457225481   -1.9753072013    0.0967338394
 H    2.8382846766   -0.4053319869    0.4458686507
 H    1.6246342046   -0.2512418008    3.2735094331
 H    0.0046979355    0.5461365156    2.9761062574
 H   -0.7951903639   -1.5416342914    2.1644260776
 H   -3.1406619782   -1.7016397095   -0.8403736557