18

 N    0.0077466652   -1.1348012542    0.0188233878
 C   -0.0170820373    0.0219309793    0.0350588858
 C   -0.0399739286    1.4621162045    0.0413048473
 C   -0.6729875428    2.4051963944    1.0957690088
 C   -0.0576417907    3.3409121978    0.0287130884
 C    1.2050506985    2.4206925730   -0.0447674504
 C    1.7417849398    2.4059418754   -1.4736942966
 C    0.4004763767    2.3880554195   -2.2629016572
 C   -0.5881713358    2.3967611020   -1.0998747205
 H   -1.7629248109    2.3829071200    1.1689402355
 H   -0.2073605076    2.4036670540    2.0842040367
 H   -0.0645746655    4.4306175234    0.0157793896
 H    1.9078296413    2.4180358818    0.7897276339
 H    2.3482328486    3.2911855750   -1.6874306180
 H    2.3603174996    1.5257604242   -1.6714608540
 H    0.2753338702    3.2635759017   -2.9070481219
 H    0.2904946881    1.4981901222   -2.8893644204
 H   -1.6586691086    2.3704302962   -1.3087485347