19

 C    0.1982890154    1.4712270798    0.2593607897
 C   -0.2413019401    0.0412324727   -0.0840391045
 C    0.6088016972   -0.5840209015   -1.1769444125
 O    0.4138985290    0.0558372186   -2.4255946399
 C    2.0374242657   -1.1127851571   -1.0934100977
 C    2.3562281052   -2.0647294675    0.0970201144
 O    1.2254056404   -2.1796363490    0.9735177364
 C    1.2359670319   -2.9342677913   -0.2482062807
 C    0.8634499739   -2.0377077337   -1.4666614679
 H    1.2354056145    1.4906655029    0.6107430615
 H    0.1179186404    2.1493027410   -0.5987366835
 H   -0.4310846474    1.8883004659    1.0507489799
 H   -0.2106232127   -0.5761466865    0.8095208701
 H   -1.2739020637    0.0520928724   -0.4542636253
 H    0.7230234815    0.9637029511   -2.3364663895
 H    2.7992394063   -0.7353977516   -1.7633301809
 H    3.3334477514   -2.2724967543    0.5166437424
 H    1.0973572272   -4.0060274350   -0.1724874529
 H    0.6393653439   -2.4418366071   -2.4451191191