18

 C   -0.0894059575    1.4821198691   -0.0189569598
 C    0.0886553054   -0.0194036729   -0.0475034600
 C    1.4866016746   -0.6307604880   -0.1260904125
 C    0.6893083510   -0.7184530135    1.1285699804
 O    1.0611760547   -0.0292422586    2.3233680563
 C    0.4486130770   -1.0410731158    3.1451793428
 C    0.1778417852   -1.9419760889    1.9065600788
 C   -1.1879720030   -2.3708029442    1.6641751339
 N   -2.2773372384   -2.6998074187    1.4603354934
 H    0.6693866204    1.9519776626    0.6126839351
 H   -0.0121275952    1.9065813179   -1.0250120742
 H   -1.0700649810    1.7510170594    0.3867385035
 H   -0.6930416385   -0.5719480954   -0.5640823880
 H    1.6386172590   -1.5286589912   -0.7167419769
 H    2.3302288346    0.0527912519   -0.1109757682
 H    1.1445569189   -1.4517296361    3.8819534763
 H   -0.4569688618   -0.6801450690    3.6436368424
 H    0.8505913547   -2.8012166886    1.8493722067