21

 C    0.3358842581    1.6968199782   -0.4945754127
 C    0.8068679410    0.4797564038   -1.2936199613
 C    0.3090117273   -0.8417604177   -0.7013209768
 N    0.8439260473   -1.9730018520   -1.4544676032
 C    0.0937116581   -2.9240317633   -1.7615119498
 O   -1.2552096131   -3.1369423047   -1.5030218120
 C   -1.2786331569   -4.3141126794   -2.3652897861
 C    0.2491042682   -4.2044055598   -2.5823479859
 N    0.7288712106   -4.1711772055   -3.9465595437
 H   -0.7579537967    1.7519802701   -0.4585925740
 H    0.6974107088    1.6575440254    0.5392431784
 H    0.7003958774    2.6283242146   -0.9381536961
 H    0.4594601942    0.5549563691   -2.3314911774
 H    1.9016174642    0.4513131515   -1.3372872626
 H    0.6663302461   -0.9260317340    0.3344856573
 H   -0.7892679005   -0.8491179732   -0.6615586226
 H   -1.6511358412   -5.1911495247   -1.8316033394
 H   -1.8740799808   -4.1332054415   -3.2650603681
 H    0.8019997830   -4.9721558341   -2.0337622597
 H    0.3852629656   -3.3378013164   -4.4166864994
 H    1.7415293292   -4.0973027463   -3.9505859350