16

 C    0.1386192890    0.9735039312    0.3819303416
 O   -0.1503131438   -0.0624103064   -0.5412103779
 C   -1.3630747253   -0.6884859640   -0.2982634862
 C   -1.5646708029   -2.0853432216   -0.7169836628
 C   -0.2560085012   -2.8792779775   -0.5648940299
 C   -0.3133019440   -2.5548836265    0.9477844254
 O    0.2955025382   -2.9667313014    1.8942478784
 C   -1.5520315618   -1.7192358075    0.8148489475
 H    1.1018324743    1.3980000022    0.0925854162
 H   -0.6254556409    1.7642766299    0.3499159467
 H    0.2045978841    0.5884691130    1.4083039290
 H   -2.2301306321   -0.0309815712   -0.3975192038
 H   -2.4192083085   -2.4068477652   -1.2977536143
 H   -0.3751773057   -3.9546801136   -0.7226873460
 H    0.6056539817   -2.5129068112   -1.1247643576
 H   -2.3544883610   -1.6327380005    1.5376473039