18

 O   -0.0134870246    0.1765075562    0.8383517833
 C   -0.0261511027    1.2420023735    0.2447226714
 C   -1.3369147622    1.8849037244   -0.0288613308
 C   -1.6692616106    2.8902477330   -0.8482043940
 C   -0.8050262171    3.7041257251   -1.7622929664
 C    0.5055576237    3.0600218872   -2.2370009863
 N    1.5352939058    2.7496268429   -1.2527108369
 C    1.5403967772    3.3238053382    0.0702681252
 C    1.2930347931    1.8512138561   -0.1299932886
 H   -2.1272074677    1.3921660958    0.5316206176
 H   -2.7235235512    3.1629374624   -0.8709116758
 H   -1.3900361039    3.9577872472   -2.6559341467
 H   -0.5913322889    4.6739101518   -1.2888550428
 H    0.2817928478    2.1302569641   -2.7719545530
 H    0.9639905557    3.7410609810   -2.9637490386
 H    2.5054863189    3.6499271141    0.4495840662
 H    0.6943495978    3.9216821139    0.4023874157
 H    2.1038507188    1.1570815634    0.0746333106