18

 C   -0.1908451391    1.3266252307   -0.0764272287
 O    0.1799006705   -0.0322658012    0.0846522746
 C    0.7358381756   -0.5991877733   -1.0812500979
 C    1.3464870737   -1.9765794904   -0.8788837829
 C    0.3082224824   -2.9389908914   -0.3785611051
 C    0.3160380906   -2.6010441217   -1.8407937449
 C   -0.3097130160   -1.2230753799   -2.0855421421
 O   -1.6672196438   -1.0136573052   -1.7886141668
 H    0.6812092299    1.9487952562   -0.3280138659
 H   -0.9508497390    1.4517782143   -0.8582563070
 H   -0.5999360641    1.6635341849    0.8792066745
 H    1.4173509277    0.1116233677   -1.5665119969
 H    2.4068780967   -2.1775459097   -0.7957021280
 H    0.6810591585   -3.9284995995   -0.1356582782
 H   -0.4861415532   -2.5986887585    0.2783373694
 H    0.4785796030   -3.3564856696   -2.5996653620
 H   -0.1527899809   -0.8803585633   -3.1113391928
 H   -1.7374837124   -0.9838829902   -0.8267227891