16

 C   -0.0387409323    1.4332737107   -0.0330546253
 N    0.0244354183   -0.0025407310    0.1690126159
 C   -1.1670953898   -0.7133336492    0.0478399475
 C   -2.4399190657   -0.2288188669    0.0099024769
 O   -3.3359873006   -1.2902716487   -0.0436560006
 C   -2.6060112758   -2.4208368491   -0.0541436205
 N   -3.3318662205   -3.5971659503   -0.1882163596
 C   -1.2712807848   -2.1515812552    0.0026630335
 H    0.9668546313    1.8549034356    0.0358110795
 H   -0.4802025993    1.7221061433   -1.0012955233
 H   -0.6468415884    1.8856610998    0.7584957806
 H    0.7858525262   -0.4387933891   -0.3315730753
 H   -2.8798711406    0.7506384084    0.0304707434
 H   -4.2619579877   -3.5179972280    0.2031886989
 H   -2.8513402772   -4.3999382242    0.1937294061
 H   -0.4626778831   -2.8648681661    0.0216172224