18

 C   -0.0258384333    1.5703088921    0.0670579994
 C    0.0767530921    0.0435823656    0.0507332499
 C    0.6575737633   -0.5168653910   -1.2786974164
 C    2.1268073292   -0.1055081595   -1.3983169964
 O    2.5412296031    0.7403758483   -2.1441548631
 C    0.5681352368   -1.9718841360   -1.3424793888
 C    0.5408627543   -3.1757653937   -1.3784645247
 C    0.4881494036   -4.6294803702   -1.4356423375
 H    0.9477143889    2.0454078640   -0.0871025745
 H   -0.6942592299    1.9287123721   -0.7228163606
 H   -0.4224338001    1.9186958379    1.0251584176
 H    0.7003312726   -0.3103212777    0.8809452512
 H   -0.9099387848   -0.4071166621    0.1964528725
 H    0.1279730178   -0.0578272825   -2.1220299304
 H    2.7992778535   -0.6566521007   -0.7023604922
 H    1.4638870633   -5.0512513133   -1.7005272075
 H    0.1923483817   -5.0565963636   -0.4712120103
 H   -0.2340233624   -4.9698543594   -2.1857372182