23

 C   -0.1948667355    1.4561380339    0.0449276598
 C    0.0302217344   -0.0505051037   -0.0222496574
 C    0.9018290381   -0.5228769701   -1.2270765078
 C    2.1368251104   -0.4935396458   -0.2821239554
 C    1.1588512912   -0.5879513294    0.9287993300
 C    0.8891713671   -1.9936300641    1.3916498654
 C    0.7651128995   -3.0669631793    0.6072222251
 C    0.9507062602   -3.1346566278   -0.8933616343
 C    0.5212637124   -1.9197949240   -1.7489604099
 H    0.7443437384    2.0121834311   -0.0514190428
 H   -0.8589799577    1.7891648670   -0.7608435404
 H   -0.6541112567    1.7447279526    0.9969590304
 H   -0.9254095144   -0.5742329294    0.0832077921
 H    0.9303618034    0.1780488428   -2.0681126010
 H    2.8832525384   -1.2842338623   -0.3824177393
 H    2.6511565237    0.4701983177   -0.3099994536
 H    1.3943258487    0.0543393348    1.7820767857
 H    0.7507922156   -2.1268101183    2.4623892753
 H    0.5564929670   -4.0219663888    1.0854995748
 H    2.0107967853   -3.3489256062   -1.0938243904
 H    0.4166648060   -4.0140995963   -1.2716723969
 H   -0.5675478286   -1.9442149980   -1.8865903551
 H    0.9545085631   -2.0614901665   -2.7466013943