19

 C    0.0278294578    1.5899066644    0.1637508392
 C   -0.0040192223    0.0660261670    0.0670780995
 C    0.8500176527   -0.5319406924   -1.1070232009
 C    1.7420648331   -1.1534860157   -0.0071537255
 O    2.7191271724   -1.8507877746    0.0273035042
 N    0.9641479564   -0.5877259874    0.9745164996
 C   -1.3808576086   -0.5694150580    0.1784528566
 C   -2.5028640786    0.0261785431    0.9486861691
 N   -2.5615798234   -0.0464143181   -0.5226617916
 H    1.0509655147    1.9471400299    0.0223652639
 H   -0.5968336630    2.0608975967   -0.6023242803
 H   -0.3135384563    1.9381071343    1.1432950422
 H    0.3326600235   -1.2633305580   -1.7302262435
 H    1.3545459761    0.2012544105   -1.7387149764
 H    0.9922564313   -0.6667127765    1.9812911408
 H   -1.3230412131   -1.6566364563    0.1476458766
 H   -3.2035594468   -0.6220989940    1.4671636402
 H   -2.3610079775    0.9971358143    1.4139868895
 H   -2.3638281982    0.8693670707   -0.9181028932