20

 C   -0.0480701634    1.4547620674    0.0700389535
 N   -0.1182312405    0.0047750479    0.0976706339
 C   -1.2744093200   -0.6825748700   -0.0463238322
 O   -2.3684489824   -0.1554205353   -0.2010207672
 C   -1.1749644151   -2.2185780357   -0.0164260057
 O   -2.4766025175   -2.7391642850    0.0630550112
 C   -0.4438309788   -2.7572886889   -1.2595829911
 C   -0.3511534954   -4.2851177060   -1.2553856337
 O    0.3485985300   -4.7878029863   -2.3840204998
 H    0.5904608560    1.8050327432   -0.7479452353
 H   -1.0606689486    1.8285556375   -0.0821781696
 H    0.3410909931    1.8496708285    1.0144663534
 H    0.7309559092   -0.5169751196    0.2410707998
 H   -0.6109036088   -2.5143381673    0.8841847809
 H   -3.0530693710   -1.9640642259   -0.0605175744
 H   -0.9910301796   -2.4229638682   -2.1510841688
 H    0.5692029784   -2.3417543942   -1.3248468486
 H    0.2181793647   -4.6203782281   -0.3804388128
 H   -1.3584118195   -4.7126053223   -1.1731204269
 H   -0.2025368407   -4.6410700217   -3.1591091765