13

 N    0.0161606249    1.4121049141    0.1663194137
 C    0.0269417372    0.0298714751    0.0500259987
 C   -1.0932737118   -0.8031149883    0.0215095630
 N   -0.6327161732   -2.1162869880   -0.0186918693
 C    0.7224842496   -2.1168517715   -0.0247414591
 C    1.1694024627   -0.8112911472    0.0178408946
 C   -2.4534990484   -0.4623988144    0.0200683515
 N   -3.5742546566   -0.1541296920    0.0124932161
 H    0.7985935379    1.8737815339   -0.2741129086
 H   -0.8593233445    1.8463592987   -0.0922155856
 H   -1.2276295476   -2.9252647570   -0.0462200189
 H    1.2778752274   -3.0406084748   -0.0567432441
 H    2.1997729123   -0.4918938188    0.0347335478