12

 O    0.2824456987    1.3912258047    0.0886694053
 C    0.1534938749    0.0036110751    0.1357388191
 C   -0.0228750947   -0.5077199512    1.5732857994
 O   -1.3112774126   -1.0944897249    1.2624271611
 C   -1.2736979819   -0.6124692492   -0.0896209240
 C   -2.3253868551    0.3549328952   -0.4062305698
 N   -3.1387540202    1.1232238326   -0.6948910569
 H    0.2852347685    1.6834224131   -0.8293940187
 H    0.9242635031   -0.5113059057   -0.4494418575
 H    0.6920457270   -1.2594544707    1.9205391448
 H   -0.1050506197    0.3048900323    2.3022029886
 H   -1.3186051780   -1.4360608913   -0.8127345512