17

 O   -0.0250000707   -0.0019221762   -0.0969160622
 C    0.0524318348    1.2008694502   -0.0677462384
 C    1.3367923019    1.9555254345   -0.0615735767
 C    2.7738399768    1.3716612089   -0.0711146146
 C    2.9401371848    2.9321042308   -0.0648974769
 C    1.8114546180    3.0060139193   -1.1263733799
 C    1.8229043609    2.9656353169    1.0327552043
 C    4.2225467419    3.6899853956   -0.0519916225
 O    4.5550906709    4.4710489501   -0.9080865527
 H   -0.8609910708    1.8394634158   -0.0449743663
 H    3.0883165674    0.8380174150    0.8279474102
 H    3.0888998072    0.8587501557   -0.9816418045
 H    2.0440446885    2.6133257827   -2.1178865754
 H    1.2531887051    3.9428094542   -1.1787136441
 H    1.2694790399    3.9029778395    1.1248001146
 H    2.0695283053    2.5355839533    2.0062004934
 H    4.8762831679    3.4806591137    0.8263473317