21

 C   -0.0036448106    1.1075338473    0.7490515504
 C   -0.0464046614   -0.2471039079    0.2138366947
 C   -0.0691675375   -1.3577985786   -0.2547771394
 C   -0.1317068764   -2.7218991557   -0.7851049329
 C   -1.4373717421   -3.4219336042   -0.4186415819
 C   -1.4793913043   -4.8549554373    0.0916538789
 C   -0.2466506555   -5.7208042239    0.2356521885
 C   -1.7335007593   -3.7050021475    1.0355073251
 O   -0.7429310742   -3.4236616008    1.9811953751
 H    0.8295720844    1.2357088662    1.4488039412
 H    0.1212066230    1.8449699666   -0.0515366792
 H   -0.9267834090    1.3554889794    1.2845128227
 H   -0.0229696034   -2.7000488142   -1.8765630346
 H    0.7253250761   -3.2891185041   -0.4098280116
 H   -2.2830815013   -3.1016274048   -1.0204367107
 H   -2.3706100197   -5.4016964581   -0.2058397666
 H    0.5530067825   -5.1934489607    0.7589431915
 H   -0.4816931257   -6.6130514762    0.8253994163
 H    0.1287941943   -6.0555774649   -0.7376429469
 H   -2.7517317889   -3.5492417824    1.3916515069
 H   -0.5314172109   -2.4844076882    1.9041876126