14

 N    0.1003336370   -1.1445799070    0.0732973356
 C    0.0195957530    0.0110964266    0.0284488195
 C   -0.0392329227    1.4208242628   -0.0616371425
 C   -1.1318395615    2.2112398906    0.0423467937
 C   -0.7308009262    3.6223211247   -0.0112076108
 C    0.5416068660    4.0077877208    0.8676430824
 O    1.2292588782    2.8760401775    1.3234845109
 C    1.1775838595    2.3242528264   -0.0570850108
 C    0.6748734657    3.7037280717   -0.5750072618
 H   -2.1410742497    1.8667501524    0.2265563607
 H   -1.4362015870    4.4225488668   -0.1932438702
 H    0.5636233497    4.9063931244    1.4704942926
 H    2.1392244676    1.9126424490   -0.3526367762
 H    0.9915804905    4.2730003234   -1.4386079531