15

 C   -0.3491809553   -1.2152240911   -0.4658001105
 C   -0.1882819588   -0.0497542312   -0.2214498860
 C   -0.0334457589    1.3636975738    0.0434285487
 C   -0.2307966709    1.9467551404    1.4803083306
 C    1.1567004783    2.5572713723    1.3135581618
 C    2.1881270337    1.5140854387    1.0921093482
 C    2.1278340231    0.2186837694    1.7228757008
 N    2.1344060814   -0.7950682164    2.2794392776
 N    1.3655703230    1.9623679912   -0.0626406543
 H   -0.4692616026   -2.2529413423   -0.6587388258
 H   -0.6342035356    1.9316664903   -0.6722564020
 H   -1.0376452532    2.6775725201    1.5314654777
 H   -0.3379330343    1.2259122553    2.2928441776
 H    1.4375036802    3.5795386621    1.5432383486
 H    3.2071993198    1.8726405773    0.9756562770