16

 O    0.1207809503    1.3532105394    0.6629862352
 C    0.0617461351    0.0624546697    0.1417960785
 C   -0.4628484300   -0.9865708527    1.0787525242
 C   -1.2927027571   -0.5747033355   -0.1122906729
 N   -2.5005767300    0.1777045239    0.0345885920
 C   -2.8766708794    1.0996738516    0.9554993709
 C   -4.1350045168    1.4808331533    0.5539736148
 N   -4.4651974404    0.7904333773   -0.5698407287
 N   -3.4790606353    0.0023458118   -0.8872229127
 H   -0.0617542218    1.9772225544   -0.0490120123
 H    0.8679569987   -0.2046516183   -0.5401953171
 H   -0.0208805098   -1.9761172698    1.0750211549
 H   -0.7814918186   -0.6311569602    2.0523217701
 H   -1.3933476540   -1.2606807926   -0.9434668269
 H   -2.2358444747    1.4049035137    1.7625453788
 H   -4.8063613863    2.1958514241    1.0010308513