19

 N   -0.0091721729   -1.1830915013   -0.0569073064
 C   -0.0300374343   -0.0271863084   -0.0221883915
 C   -0.0411424121    1.4244290197    0.0385249408
 C   -0.1637607960    2.1346387507    1.4233581896
 N    0.7450834991    3.2161580789    0.9102802062
 C    1.3043616913    2.1987775192   -0.0378846660
 C   -0.0438209472    4.1914692190    0.1304743969
 C   -1.2431334913    3.5598694293   -0.6327575962
 C   -1.0219832570    2.0649474788   -0.9728321018
 H   -1.1544742962    2.4524867819    1.7553184788
 H    0.3294022068    1.5773351710    2.2233657750
 H    2.1371396683    1.6620630500    0.4244181514
 H    1.6058964437    2.5807143058   -1.0174270227
 H   -0.4091126261    4.9657601630    0.8132419082
 H    0.6511406504    4.6819979368   -0.5590971763
 H   -2.1385169781    3.6436426928   -0.0097912267
 H   -1.4588655581    4.1286328879   -1.5415692513
 H   -0.6059956792    1.9370624113   -1.9780336643
 H   -1.9781547111    1.5335849435   -0.9572660038