11

 N    0.0128421114    1.3254049749    0.1390586429
 C   -0.0042862431   -0.0294807056    0.0421506063
 N   -1.1137618926   -0.7487442104   -0.0058103116
 O   -0.6300240317   -2.0720157393   -0.0303663878
 C    0.6831399121   -1.9622713885   -0.0052699000
 N    1.1625370849   -0.7672467883    0.0377481704
 N    1.4601719453   -3.2064867592   -0.0312296686
 O    0.8160066309   -4.2417790276   -0.0513189352
 O    2.6705436416   -3.0834692782   -0.0304314574
 H    0.8676537777    1.7732600711   -0.1495106779
 H   -0.8395022564    1.8061275811   -0.1015319312