18

 N    0.1893071654    1.2927874173    0.3398539094
 C   -0.0364053341   -0.0579029995    0.0969531987
 C   -1.1448684180   -0.7999743007   -0.1716351698
 C   -0.6971153843   -2.1681275934   -0.1999136864
 C    0.6377485877   -2.1596563460    0.0418992707
 O    1.0539926175   -0.8552564066    0.2321839500
 C    1.6611799923   -3.2050325996    0.1296567053
 C    3.0792900196   -2.9666323388   -0.3530324779
 C    2.8068836281   -3.1090171521    1.1191857299
 H    1.0808002414    1.6075099442   -0.0243960596
 H   -0.5575114629    1.8730149211   -0.0174567139
 H   -2.1450502942   -0.4304318866   -0.3309695179
 H   -1.3000823393   -3.0432554871   -0.3872153928
 H    1.2549542448   -4.1961940935   -0.0416154472
 H    3.5809440047   -3.7764735130   -0.8711644151
 H    3.3103096676   -1.9762545045   -0.7280100859
 H    2.8543473611   -2.2138621960    1.7284399928
 H    3.1200995827   -4.0177938652    1.6211271395