14

 C   -0.0571275498    1.4450701175    0.0102472399
 C   -0.0014313303   -0.0073534463    0.0024201650
 C    0.0614380454   -1.2120259786   -0.0041864449
 C    0.1149773075   -2.6239449148   -0.0117945239
 N    1.1976236404   -3.3876437911   -0.0229892418
 C    0.7394891503   -4.6771173273   -0.0265312694
 C   -0.6332662784   -4.7096842754   -0.0174754186
 N   -1.0220545644   -3.3949520734   -0.0081135922
 H    0.9517790580    1.8713173008    0.0047313251
 H   -0.5857543382    1.8304498161   -0.8689365348
 H   -0.5722699080    1.8214369227    0.9012613181
 H    1.4211273722   -5.5140648385   -0.0354078775
 H   -1.3460738975   -5.5173215739   -0.0168330505
 H   -1.9649275172   -3.0438055678    0.0000256355