18

 C   -0.0255025294    1.4937671918   -0.0527981630
 C    0.0115211812   -0.0216554836   -0.0230428483
 C    1.3429262079   -0.7263306467   -0.2311483771
 C    0.7185504817   -0.7147155436    1.1312750417
 C   -1.1781368614   -0.7109514734   -0.5623025090
 N   -1.3685278884   -2.0214550724   -0.6383915724
 C   -2.6017909605   -2.1247720710   -1.2025899674
 N   -3.1958343959   -0.9787040044   -1.4846491549
 N   -2.2643135252   -0.0822266152   -1.0653929040
 H    0.8961687790    1.9056789701    0.3661021266
 H   -0.1182292318    1.8766909742   -1.0762890901
 H   -0.8588003636    1.8901036650    0.5399486478
 H    1.3176050682   -1.6560382354   -0.7864707800
 H    2.2080942832   -0.0975536587   -0.4129389513
 H    1.1497760660   -0.0778090976    1.8963240571
 H    0.2753192004   -1.6365868935    1.4877304180
 H   -3.0755623265   -3.0726352355   -1.4109889533
 H   -2.4447984547    0.9031434999   -1.1567464202