14

 O    0.2885129896    0.4737751217    1.2398384231
 C   -0.0148023250    1.3123843316    0.4218990058
 C    0.9360949553    1.7159647646   -0.6343030915
 N    1.7099377012    1.9998039788   -1.4446563988
 C   -1.3242366045    1.9771039691    0.3715142904
 C   -2.3173006304    1.9952137766    1.5012502506
 C   -2.7157225916    1.3356820481    0.2166474693
 C   -2.8978082733    2.3829170671   -0.8795859848
 O   -1.6011605247    2.9829446443   -0.5914819021
 H   -2.0873396020    1.3156694373    2.3142049351
 H   -2.7283711008    2.9611367533    1.7800339351
 H   -2.9508222167    0.2830893690    0.1414450168
 H   -2.9059624489    1.9649199190   -1.8904186120
 H   -3.7178451583    3.0980676495   -0.7579769970