21

 C    0.0291739979    1.5273245723   -0.1782170939
 C    0.0087582607    0.0153199714    0.0580718467
 N   -1.3301581581   -0.5510151419    0.0253935119
 C   -2.0787993411   -0.9413968391    1.0954948185
 N   -3.2698026912   -1.3688588801    0.7453245404
 C   -3.3137615577   -1.2522140966   -0.6293085138
 C   -4.5239248855   -1.6642720935   -1.4096175586
 C   -4.8254764552   -3.1668353221   -1.2937145923
 C   -2.1228281867   -0.7471533621   -1.0884280727
 H    1.0567169857    1.9015027581   -0.1372778358
 H   -0.3861731769    1.7775441631   -1.1584463209
 H   -0.5597985084    2.0466721589    0.5830353273
 H    0.6227862225   -0.4961315007   -0.6913787871
 H    0.4366627398   -0.2219433232    1.0366472773
 H   -1.6924533043   -0.8910241670    2.1038330368
 H   -5.3916317524   -1.0982570593   -1.0479682235
 H   -4.3859449968   -1.3881012161   -2.4612913369
 H   -4.0067465472   -3.7638665390   -1.7085717436
 H   -4.9462508601   -3.4477372456   -0.2441329943
 H   -5.7435941468   -3.4267662677   -1.8303210390
 H   -1.7688544782   -0.5183513798   -2.0807606266