16

 C    0.0433059108    1.5012198982   -0.0910771922
 N    0.0045559419    0.0427944498    0.0528509875
 C   -1.1491534027   -0.5898623064    0.8174236684
 C   -0.2157865219   -1.8113822735    1.0122440107
 C    0.7052203741   -0.5809942140    1.2687765799
 C    2.1122229262   -0.5173562158    1.4851250539
 C    3.2935557355   -0.4442754665    1.6985942540
 C   -0.5031136858    0.0225606694    2.0819476277
 O   -0.7291006462    0.7528149659    2.9904729606
 H    1.0529982094    1.7829245014   -0.4021062148
 H   -0.6504802211    1.7824221949   -0.8885436787
 H   -0.2141223129    2.0656216393    0.8171525263
 H   -2.1705831669   -0.5579799328    0.4465521717
 H   -0.4092449952   -2.4743222743    1.8556483328
 H    0.0191102865   -2.3305807963    0.0827857928
 H    4.3371907182   -0.3830135093    1.8864502895