13

 C   -0.0378881078    1.3929585452   -0.1687885655
 C    1.3235615688    0.8069580753    0.0874354192
 C    0.0931567433   -0.1052141336    0.0948546579
 C    0.6710916043   -0.6974787732   -1.1732965418
 N    0.4467280392   -1.1180444036   -2.3985247566
 C    1.5162935938   -0.5391945616   -3.0564407333
 N    2.3064679567    0.2602034413   -2.3436325983
 N    1.7908393563    0.0563866673   -1.0968405729
 H   -0.4583426532    1.9814894985    0.6427030057
 H   -0.2937861092    1.7418078129   -1.1636442973
 H    1.9965621096    1.0797081149    0.8878632817
 H   -0.3635822669   -0.6099219612    0.9330365029
 H    1.7169930250   -0.7342930422   -4.1005866517