13

 N    0.0185119083    1.4038193376    0.1705693925
 C    0.0124342249    0.0195232784    0.0260855280
 N   -1.0261450581   -0.7774931392   -0.0013963189
 N   -0.6030112595   -2.1120172790   -0.0384625012
 C    0.6989356662   -2.0346237663   -0.0531194418
 N    1.8233792715   -2.8095758867   -0.0887419020
 N    2.9556404546   -2.0393238999   -0.0541865284
 C    2.5503807616   -0.8031354479    0.0008580862
 N    1.1695590569   -0.7377339688   -0.0023776648
 H    0.4245332203    1.8851098161   -0.6263508669
 H   -0.9353924297    1.7243612573    0.2951774403
 H    1.8978152473   -3.8085268675   -0.1467400802
 H    3.2051570858    0.0498939662    0.0488935474