19

 C    0.0033417513    1.5506651301   -0.1152676713
 C    1.3097934106    0.7998059753   -0.0348951382
 C    2.1281355601    0.7701922936    1.2490371241
 C    1.4372994270    0.0103633733    2.3779197833
 C   -0.0931252731    0.1450649465    2.6223454965
 O   -0.0716208771   -1.1529482368    3.3247876920
 C    0.7346442713   -1.3521455071    2.1033990648
 C   -0.3639986586   -0.6059052376    1.2877275768
 C    0.0038282479    0.0414318978   -0.0213121148
 H   -0.3264561176    2.1122175423    0.7535991627
 H   -0.2587249437    2.0086695352   -1.0626335623
 H    1.8884075666    0.7689910389   -0.9522963233
 H    3.0914483725    0.2830332075    1.0523667356
 H    2.3690105441    1.7870930674    1.5858735965
 H    2.0120219328    0.0062000642    3.3068845328
 H   -0.6572046119    0.9547087269    3.0884987904
 H    1.1716630582   -2.3391391170    1.9432320170
 H   -1.3255347249   -1.1234605449    1.2805440049
 H   -0.2757148254   -0.5143293556   -0.9111486075