18

 C   -0.0238276629    1.4046443263    0.0901274627
 N    0.0005498909   -0.0365436118   -0.0426403604
 C   -1.1844989968   -0.8517373916    0.0545017575
 C   -0.6987018396   -2.2627835596   -0.3903364128
 C    0.8056666069   -2.2356923717   -0.0852642814
 C    1.1748245539   -0.7512226009   -0.0874882689
 O    2.2883146834   -0.2748532586   -0.1114304491
 C   -1.7802582034   -0.9048739929    1.4588536801
 O   -1.2842075049   -0.4100066725    2.4355198974
 H    1.0027637005    1.7560511925   -0.0253656820
 H   -0.6511272253    1.8563400025   -0.6877634277
 H   -0.4001393914    1.7048247107    1.0730821159
 H   -1.9811373986   -0.4884151215   -0.6124484371
 H   -1.2370351220   -3.0639760422    0.1224578780
 H   -0.8746865192   -2.3800432204   -1.4621995295
 H    1.0350581547   -2.6374481581    0.9077103591
 H    1.4143938193   -2.7810723038   -0.8079041258
 H   -2.7413976156   -1.4690979465    1.5130031842