17

 O   -0.1136644265    1.2643567434    0.3137659656
 C    0.0357112278   -0.1145908921    0.0685551619
 C    0.3423840254   -1.0307298217    1.3044635698
 N   -0.9681298685   -1.7283319676    1.1808060283
 C   -2.0620801826   -1.0786611093    1.9798266707
 C   -2.5055679534   -0.2179742251    0.7646601093
 C   -1.3340383858   -0.8594742447   -0.0039251884
 C    0.9150128945   -0.3452049871   -1.0845169445
 N    1.6299255786   -0.5122757340   -1.9776709691
 H    0.7607658625    1.6651286376    0.3799535612
 H    1.1903940947   -1.7079786737    1.1726158238
 H    0.4723788931   -0.4567935654    2.2282557525
 H   -2.7974630790   -1.8107945990    2.3242113719
 H   -1.6983285696   -0.5193061462    2.8485112020
 H   -3.4835710031   -0.4760511341    0.3554479557
 H   -2.4419968910    0.8627851177    0.8884142420
 H   -1.5472137870   -1.3517431489   -0.9548177127