20

 C   -0.0370795534    1.5962493798   -0.0332689495
 C   -0.0554604748    0.0570954367   -0.0097971554
 C   -1.4991451837   -0.4768920186    0.0139370886
 C    0.7014954366   -0.5033833562   -1.1788126181
 C    1.8111007804   -1.2878373813   -1.2147695788
 C    2.7084205471   -1.8988187177   -0.2022238980
 O    2.1081357736   -1.5271378460   -2.5385955199
 C    1.1508208970   -0.8664326516   -3.2251901178
 N    0.2928373408   -0.2441268967   -2.4915607693
 H    0.9864691245    1.9812723556    0.0078070896
 H   -0.4991748233    1.9666143000   -0.9530579452
 H   -0.5908872049    2.0028037637    0.8192499936
 H    0.4493971669   -0.2781088421    0.9051093036
 H   -2.0228574944   -0.1938459129   -0.9038533307
 H   -1.5169914445   -1.5685360215    0.0886079001
 H   -2.0497450527   -0.0657893279    0.8663560757
 H    2.7216683734   -2.9916054341   -0.2838692376
 H    3.7405871267   -1.5485185869   -0.3160417289
 H    2.3702201173   -1.6376339034    0.8027164674
 H    1.1981996676   -0.9239560089   -4.3016428195