15

 O    0.1318006932   -0.0425369073   -0.1411179492
 C    0.0357782285    1.1106111116    0.1561459181
 O   -1.0962341702    1.5797846217    0.7442419039
 C   -1.3039779693    2.9931722463    0.8935243428
 C   -0.0959420430    3.7183564017    1.4374726458
 C    0.8350138220    3.0200439878    2.3644603507
 C    1.2539245542    3.2504833185    0.9107971429
 C    1.1994839689    2.1206217660   -0.0424218202
 O    1.9858518335    1.9481789958   -0.9392630832
 H   -1.6025258586    3.4163334877   -0.0739807879
 H   -2.1550715379    3.0769526698    1.5746179835
 H   -0.2314137029    4.7894876110    1.5492766061
 H    1.3664764912    3.6096862910    3.1014897170
 H    0.6026983606    2.0079836972    2.6759925109
 H    2.0375982099    3.9718641211    0.7129818988