17

 O   -0.1102840992    1.3858857877    0.0824290640
 C    0.0552604404   -0.0036538302    0.1085082120
 C    0.6771569273   -0.4884093249   -1.1848431330
 O    0.9532258552    0.2872404241   -2.0704481549
 C    0.9233197318   -0.4103963151    1.3193361030
 C    0.2308760831   -0.0999274250    2.6571301336
 O   -0.4488604194   -1.3166555852    2.9408227346
 C    0.4373283700   -2.3136472295    2.5158185969
 O    1.0726111526   -1.8305338549    1.3376777876
 H    0.2245962379    1.6700874144   -0.7842047526
 H   -0.9143670524   -0.5198631472    0.2224430820
 H    0.8672630046   -1.5731472214   -1.2665211302
 H    1.9038296078    0.0720040189    1.2404323762
 H    0.9695580265    0.1299656364    3.4387111024
 H   -0.4966508376    0.7090675841    2.5906048307
 H    1.2034501850   -2.5219215026    3.2831290850
 H   -0.1275777037   -3.2219665096    2.2868132428