17

 C   -0.1241025921    1.5249355823    0.0017917661
 N    0.1228999176    0.0922139772    0.0568801728
 C    1.3943386319   -0.5284559220   -0.2066151360
 C    0.7483367794   -0.5924916336    1.1543923693
 C    1.9065636381    0.2406740689    1.7802414663
 C    2.6947203988   -0.4416399931    2.7854847455
 N    3.3415398059   -0.9689257859    3.5863424560
 C    2.5991019989    0.2533928611    0.3496530662
 O    3.7347293703   -0.5554552463    0.2365193185
 H    0.6832137506    2.1605486203    0.3930119067
 H   -0.2958633898    1.8056724096   -1.0410847689
 H   -1.0343937549    1.7443664528    0.5671114069
 H    1.4844798339   -1.2808334934   -0.9820385255
 H    0.2281510628   -1.3977407177    1.6599700648
 H    1.6044600092    1.2178573237    2.1707356731
 H    2.7698002368    1.2604799918   -0.0552605077
 H    4.4262461126   -0.2225652357    0.8195927260