21

 C   -0.0882950378    1.5914531978    0.0770366031
 C   -0.0592594730    0.0592808610    0.0167734386
 C   -1.4811302499   -0.5140320702   -0.0361337176
 C    0.7693187819   -0.4655269746   -1.1839375227
 C    2.2297799824   -0.1722186220   -1.1310620381
 C    3.3129017367   -0.9005100519   -0.7405908942
 C    4.4614715726   -0.0590933339   -0.9079033899
 C    3.9927767136    1.1192604306   -1.3899294495
 O    2.6398953617    1.0697752299   -1.5321555321
 H    0.9174048630    2.0148467926    0.1287499862
 H   -0.5766267909    2.0057115646   -0.8135731738
 H   -0.6490949941    1.9346521256    0.9527545718
 H    0.4265328888   -0.3111602755    0.9296319564
 H   -2.0003401875   -0.1914089330   -0.9467851095
 H   -1.4746113340   -1.6093416079   -0.0272960911
 H   -2.0740737970   -0.1748384788    0.8194357649
 H    0.6540962354   -1.5535662804   -1.2401020714
 H    0.3500160727   -0.0558620763   -2.1124384168
 H    3.2960966520   -1.9181546795   -0.3819927891
 H    5.4915062547   -0.3051086171   -0.7025324318
 H    4.4589888688    2.0473427490   -1.6765479636