21

 C    0.1115836644    1.5760734726    0.0209318644
 C    0.0157754939    0.0495445212    0.0056105900
 C   -1.4262369645   -0.4827239159    0.0697288036
 C   -1.4588696702   -2.0107659430   -0.0554985289
 N   -2.0305442822   -0.1020409358    1.3391227515
 C   -3.0959508917    0.5645266940    1.3094496090
 O   -3.7139177874    0.9305565294    2.4512900408
 C   -4.8936200540    1.7068626839    2.2879184694
 H    1.1530940238    1.9065592835   -0.0402417515
 H   -0.4258698841    2.0161487285   -0.8276445120
 H   -0.3183375931    1.9860289324    0.9393255479
 H    0.4846596663   -0.3428946771   -0.9053411929
 H    0.5712182338   -0.3669660817    0.8544759708
 H   -1.9879744459   -0.0513028232   -0.7810738595
 H   -2.4881119194   -2.3811519432   -0.0332673368
 H   -0.9962668787   -2.3328570598   -0.9941328453
 H   -0.9178424072   -2.4714237495    0.7767886984
 H   -3.6062982233    0.8945962871    0.3899287098
 H   -4.6797583558    2.6676026692    1.8035021123
 H   -5.6523169759    1.1703667195    1.7047159944
 H   -5.2811804287    1.8922332179    3.2903745145