15

 N   -0.1460525164    1.4740124527    0.0032085148
 C   -0.0627575131    0.0472132985   -0.0027315116
 C   -0.4815597680   -0.6879343607    1.2560605617
 C   -0.9508153367    0.0425033149    2.3937318584
 N   -1.3413554748    0.6237630174    3.3148394877
 C   -1.3923317366   -0.6993139310   -0.0194611734
 N   -2.5860102839    0.0677347495   -0.1076225954
 C   -1.4195353300   -1.9706460038   -0.7080923082
 N   -1.4180178398   -2.9973394110   -1.2399718651
 H    0.4722124270    1.8856606267    0.6933074615
 H    0.0777926555    1.8605941811   -0.9063108194
 H    0.7465937113   -0.4351963252   -0.5488711073
 H    0.0550249875   -1.6018197912    1.4854519044
 H   -3.2883681434   -0.2377853815    0.5569999469
 H   -2.3633025087    1.0448463836    0.0624708350