17

 N    0.1385332016    1.3210087796   -0.5708535770
 C   -0.0570550957    0.0131426910   -0.1620510910
 C   -1.2228437754   -0.6407858687   -0.3389193791
 C   -1.5519596358   -2.0368511966   -0.0108451542
 O   -2.7351179113   -2.3691377291    0.0394988967
 C   -0.5158236874   -3.0719410699    0.1487247604
 C    0.8216121566   -2.9859608498   -0.0155408918
 N    1.5780209755   -1.8484949210   -0.1312388271
 C    1.1498736862   -0.6169553221    0.5068771921
 H    0.7808587342    1.8775977265   -0.0267094418
 H   -0.6940876205    1.8294458732   -0.8321964660
 H   -2.0764413877   -0.0913528779   -0.7285995108
 H   -0.9352635367   -4.0638149035    0.2735806428
 H    1.4029150600   -3.9029308979   -0.0780266912
 H    2.5738221678   -1.9918127331   -0.1452723712
 H    1.9904678656    0.0809359448    0.4688229556
 H    0.9080821732   -0.8001583556    1.5665449135