17

 C   -1.1109181767    0.7860076820   -0.1089507854
 C    0.3537037798    0.4271131829   -0.0149531006
 O    1.0877594738    0.8179345065    0.8625569992
 C    0.9045152602   -0.4650562874   -1.1284122810
 C    1.9615061818   -1.5030786833   -0.7160412672
 C    0.8894513975   -2.5446323554   -1.1423070430
 O   -0.0224958743   -1.4982444648   -1.5460354997
 C    1.2928755797   -3.4235467290   -2.3077107330
 O    1.6804535398   -4.5557640323   -2.1908149988
 H   -1.3099374839    1.3077975733   -1.0526073244
 H   -1.7138700356   -0.1265154134   -0.1278865632
 H   -1.3936320253    1.4195670629    0.7319818875
 H    1.1818316650    0.1826974622   -1.9731291826
 H    2.8737053704   -1.5056760897   -1.3140376673
 H    2.2189416439   -1.4939303962    0.3420638991
 H    0.4872366082   -3.1649345518   -0.3343962000
 H    1.2218699257   -2.9124030666   -3.2953646997