22

 C    0.1193891056    1.5596845155    0.2786996579
 C    0.0751448736    0.0323531479    0.1009268666
 C    0.6530698691   -0.6422229044    1.3606196152
 C   -1.3871627145   -0.4105333270   -0.0935989670
 O   -2.1455321189   -0.0522098283    1.0545446475
 C    0.8560638556   -0.4639541076   -1.1188598837
 C    0.8500387538    0.2188399254   -2.4652337342
 C    2.1118856383    0.1898069191   -1.6371073236
 H    1.1300097473    1.9067264945    0.5127262308
 H   -0.2252630692    2.0877940049   -0.6164243026
 H   -0.5367622910    1.8496509512    1.1022364912
 H    0.0775184945   -0.3666049076    2.2473513432
 H    0.6261370196   -1.7341108678    1.2686636473
 H    1.6956633289   -0.3453704678    1.5123437548
 H   -1.7911217323    0.0688257914   -0.9988718437
 H   -1.4156326965   -1.5004101445   -0.2558103612
 H   -3.0575869737   -0.3166246088    0.9070869318
 H    0.8678592247   -1.5511757186   -1.1743942835
 H    0.7965428510   -0.4016961618   -3.3532540594
 H    0.3405523712    1.1707909800   -2.5647127791
 H    2.4333247893    1.1225188578   -1.1878770532
 H    2.9279597337   -0.4495695234   -1.9555511748