20

 C   -0.0711108792    1.4321621386   -0.3492620172
 C    0.0364161933    0.0412093870    0.2698151492
 N   -1.2379588976   -0.6638780061    0.1365208387
 C   -1.6449252821   -1.3737764103   -1.0556743271
 C   -1.3907302570   -2.0917232737    0.2518340986
 C   -0.2226769138   -2.8790949848   -0.3646797163
 O   -0.5883859920   -4.2464899987   -0.4505616010
 C   -0.4753668505   -2.1274190084   -1.7355960064
 O   -0.8546001123   -2.9963454788   -2.7683737971
 H    0.8566245053    1.9934752355   -0.2028199664
 H   -0.2609526084    1.3673241800   -1.4257021099
 H   -0.8944247008    1.9908484929    0.1045072797
 H    0.8905337919   -0.4928545686   -0.1732710072
 H    0.2405786101    0.1225329316    1.3436148163
 H   -2.5790648509   -1.1121676529   -1.5425848652
 H   -2.0791670476   -2.5028358090    0.9832424606
 H    0.7615314763   -2.7676728931    0.1071260442
 H    0.1551018658   -4.7279427567   -0.8295469977
 H    0.3377948562   -1.5046467009   -2.1204279946
 H   -1.2884577968   -3.7456101833   -2.3341188312