14

 O    0.1188613667    1.3363549330    0.0509561723
 C    0.0795021637   -0.0069449699    0.0282979059
 N    0.0933797841   -0.5976991583   -1.1572155120
 C    0.0546054721   -1.9344561841   -1.1964595714
 C    0.0007573053   -2.7283491561   -0.0590634844
 C   -0.0133349147   -2.0965804903    1.1805283655
 C    0.0260975346   -0.7022786513    1.2592526778
 C    0.0134870594   -0.0157117177    2.5018510750
 C    0.0022315642    0.5469740841    3.5662487827
 H    0.1517644972    1.6154224437   -0.8752164404
 H    0.0676412168   -2.3804401073   -2.1873306423
 H   -0.0292818255   -3.8079917211   -0.1390431203
 H   -0.0548271953   -2.6705438905    2.0993203856
 H   -0.0065358186    1.0553142458    4.4983065962