14

 C   -0.0161214775    1.5178159666    0.0554920753
 C   -0.0142827610    0.0263652334    0.0142809373
 C    0.0064768036   -0.8489750948   -1.0454089965
 N    0.0319143556   -0.5690703963   -2.3941435822
 C    0.0528086716   -1.4650860599   -3.4552608367
 O    0.0520098280   -2.6616536441   -3.3650001886
 O   -0.0009314339   -2.0939863227   -0.6098113569
 N   -0.0288192429   -1.9876370962    0.8533199175
 N   -0.0349636700   -0.7664120894    1.1313904530
 H    0.8784506070    1.9469020582   -0.4113018973
 H   -0.8933798599    1.9456438836   -0.4441622810
 H   -0.0356647443    1.8454744150    1.0965928892
 H    0.0356771793    0.4121022561   -2.6309700660
 H    0.0706442544   -0.9131287093   -4.4143626771