16

 O    0.0776523510    1.3642522121   -0.3721074945
 C    0.0890358672    0.0403013649    0.1324784634
 C   -1.3016542340   -0.4953634585    0.2811674450
 C   -2.3895929078   -0.1618466312    1.3147616391
 C   -2.9720731386   -1.6043287935    1.1184061552
 C   -1.8641297909   -1.8588036007    0.0820103411
 O   -1.9872586286   -0.8522748348   -0.9311762633
 C   -1.2315341262   -3.0942703000   -0.2630658847
 N   -0.7309434430   -4.1084581277   -0.5053044589
 H   -0.2994680693    1.3300018663   -1.2584311452
 H    0.6690034588   -0.6429564662   -0.5042090691
 H    0.5758301930    0.0886815909    1.1115021127
 H   -1.9905915528   -0.0038664629    2.3185769083
 H   -3.0354804227    0.6728471630    1.0393142416
 H   -2.8712135904   -2.2274939564    2.0083209270
 H   -3.9839895458   -1.6856679153    0.7186504923