17

 O   -0.0653447555    1.4068285359   -0.1927663532
 C   -0.0131031045    0.0297356969    0.0378033546
 C   -0.2577079917   -0.9215745402   -1.1079747974
 C   -1.2867708895   -0.7688646625    0.0019540208
 C   -1.2556722185   -1.7744653221    1.1423683756
 C    0.2369423684   -1.8559762928    1.5511000725
 C    0.8268101316   -0.4696262268    1.2068566236
 H    0.7507572727    1.6646290227   -0.6348750002
 H   -0.5163772174   -0.4577149703   -2.0535297088
 H    0.3184450080   -1.8378330488   -1.1952731322
 H   -2.2198421756   -0.2797463164   -0.2534472006
 H   -1.8601741458   -1.3927022397    1.9739866884
 H   -1.6626703597   -2.7547165956    0.8713974178
 H    0.3679256559   -2.1156072168    2.6047137307
 H    0.7434641400   -2.6346869393    0.9719957902
 H    1.9001252946   -0.5137449700    0.9873544589
 H    0.6896182772    0.2343670659    2.0362011391