18

 C   -0.0412933668    1.3439117393    0.3870311407
 O   -0.0541239753   -0.0243809581   -0.0338751748
 C   -1.3234997603   -0.6066588423   -0.0216214619
 C   -2.3378347540    0.0574164578   -0.8024761245
 N   -3.1647722686    0.5911067910   -1.4119465583
 C   -1.3381345253   -2.1332303288    0.0736522443
 C   -0.0574542392   -2.9287826867   -0.0402645980
 C   -1.6880973773   -1.3172149021    1.2905999000
 O   -0.8070586517   -1.1758627333    2.3526212491
 H    1.0041596608    1.6564426513    0.3718133394
 H   -0.6185857790    1.9711452024   -0.3016743555
 H   -0.4472053549    1.4509390862    1.3998815729
 H   -2.1943507917   -2.5798154632   -0.4242255745
 H    0.7819248463   -2.4353199036    0.4513982594
 H   -0.1897814576   -3.9123777388    0.4206334034
 H    0.2143318329   -3.0764211484   -1.0893115969
 H   -2.7182000083   -1.2953306182    1.6281294560
 H    0.0453242501   -0.9081720845    1.9858362592