17

 C    0.0993627637    1.4011621001    0.2718602343
 C   -0.1629776070   -0.0154056766   -0.2490875377
 C    0.7855072624   -0.4109721704   -1.3809099005
 O    2.1940455826   -0.3483015318   -1.0383475695
 C    2.4208270335   -1.7624633380   -1.2051398358
 C    0.9500849053   -1.9468661434   -1.5832554946
 O    0.2309366987   -2.8484416585   -1.8701762867
 C    0.5157610907    0.3409367149   -2.6772029971
 O   -0.5835089005    0.6349596394   -3.0650850596
 H    1.1324657342    1.5016756655    0.6153710475
 H   -0.0793894067    2.1495365971   -0.5059459929
 H   -0.5643292870    1.6258646975    1.1113039553
 H   -0.0661399861   -0.7404135624    0.5662721589
 H   -1.1784503234   -0.1037748445   -0.6481777316
 H    3.1336999690   -1.9908546012   -2.0077969749
 H    2.7390113948   -2.2616243451   -0.2818981106
 H    1.4413217659    0.5813757174   -3.2443950046