19

 C    0.1380820859    1.6265612904   -0.2176921030
 C   -0.0011991403    0.1274915845    0.0687745510
 C    0.6053519991   -0.7337279589   -1.0555957193
 C    0.5940038532   -0.2616495442    1.3905387713
 N    1.2768696932    0.5577611697    2.1451544092
 O    1.6303065694   -0.2313119294    3.2520381644
 C    1.1124881045   -1.4473552671    3.0332110623
 C    1.3347054769   -2.4977059019    4.0610786331
 N    0.4651481318   -1.5363732694    1.9118152423
 H    1.1908342243    1.9159337588   -0.2865096787
 H   -0.3469129059    1.8711740746   -1.1673219579
 H   -0.3189801553    2.2296350967    0.5708436664
 H   -1.0684291258   -0.1242640678    0.1346523335
 H    1.6702895065   -0.5111260652   -1.1816927660
 H    0.5013782360   -1.7983489617   -0.8330044787
 H    0.1008179559   -0.5250858679   -2.0038315096
 H    2.4043178040   -2.6857854497    4.1949398667
 H    0.9311307609   -2.1826717466    5.0279919998
 H    0.8433154257   -3.4179421749    3.7462823333