18

 C    0.1137255496    1.5466308522   -0.0779206593
 C    0.0616325856    0.0933799295   -0.0194237478
 C    0.0285437196   -1.1100952841    0.0444111517
 C    0.0019315514   -2.5432640753    0.0424215563
 C   -0.4547236206   -3.3624695361    1.2246172807
 C   -1.2190535220   -2.6605782229    2.2896009481
 C   -2.3593959361   -2.1851985133    1.7901616706
 C   -2.4876582714   -2.5472842670    0.3278257428
 N   -1.2672298036   -3.3189777621   -0.0088981364
 H    1.1085356917    1.9183714089    0.1920941201
 H   -0.1157003510    1.9161661363   -1.0836906136
 H   -0.6062140888    1.9975277323    0.6139647151
 H    0.7608494517   -2.9998410252   -0.5906228858
 H    0.0739881780   -4.2866494073    1.4471596474
 H   -0.8626389549   -2.5560248577    3.3062348222
 H   -3.0939042737   -1.5918223354    2.3218057959
 H   -3.3649736876   -3.1759132542    0.1284236266
 H   -2.5684237979   -1.6619776186   -0.3155519848