20

 C   -0.0046474442    1.4047353515   -0.0704209693
 O   -0.0330740283    0.0081731370    0.1173598754
 C   -1.3192148335   -0.5842440175    0.0131344092
 C   -1.7589166467   -0.7250782388   -1.4468720921
 C   -1.2363960927   -1.9495522705    0.7288996725
 C   -0.7350446931   -1.8056423900    2.1772392055
 C   -2.6009954873   -2.6087528969    0.7568669260
 O   -2.8655040818   -3.6920127258    0.3038346612
 H    1.0182950673    1.7329773285    0.1297108559
 H   -0.2693083996    1.7007332123   -1.0955099153
 H   -0.6850799205    1.9212490333    0.6245215622
 H   -2.0483354497    0.0471646236    0.5528756806
 H   -1.0455038111   -1.3462328567   -1.9968295972
 H   -2.7455105353   -1.1939005365   -1.5166028117
 H   -1.8209072393    0.2487970709   -1.9398596590
 H   -0.5646812250   -2.6032626728    0.1627111577
 H    0.2196366762   -1.2782519133    2.1834345238
 H   -1.4443345343   -1.2322025534    2.7858611562
 H   -0.6045403622   -2.7858927693    2.6441991560
 H   -3.3822811889   -2.0019059755    1.2775988723