19

 C    0.1627547309    1.5064487197   -0.0092042604
 C    0.0544925065    0.0225587278   -0.0161820039
 C   -0.1145330068   -0.8782001799   -0.9886769772
 C   -0.1343065488   -2.1949386796   -0.1970726965
 C    1.0907176420   -2.0186254027    0.7476600942
 C    0.1147978212   -0.9026427183    1.2335202830
 C    0.0380272098   -0.3300857800    2.6235433609
 O   -1.1766887227    0.3810662372    2.8009170492
 O   -0.9890478147   -1.8416725290    0.9477242645
 H    1.1455299629    1.8333056506    0.3560442322
 H    0.0235921724    1.9217099275   -1.0110131732
 H   -0.5815231014    1.9415891555    0.6662067116
 H   -0.2138909977   -0.7513465092   -2.0569789003
 H   -0.3980599598   -3.1319784659   -0.6847834985
 H    1.1938954810   -2.8312394817    1.4717960730
 H    2.0486199746   -1.7266991476    0.3131071929
 H    0.1414750097   -1.1412155117    3.3598735819
 H    0.8539269676    0.3816567960    2.7903407889
 H   -1.8786603267   -0.2009117887    2.4849120878