19

 C    0.0304134259    1.6351407872    0.0728578266
 C    0.0040381089    0.1120485118   -0.0119513429
 C    1.1788152106   -0.4813187344   -0.8579214190
 O    1.8729493764   -0.8837214146    0.3376692653
 C    0.7327429354   -0.5820395816    1.1628537219
 N   -1.3456113021   -0.3921952784   -0.2167471622
 C   -1.9697605404    0.0043415735   -1.4782221172
 C   -3.2508485764   -0.6825461580   -1.6576664437
 N   -4.2501269199   -1.2410450556   -1.8101933773
 H    1.0308239904    1.9735439468    0.3558924252
 H   -0.2107707973    2.1050723641   -0.8863182305
 H   -0.6850768019    1.9883752986    0.8214237646
 H    0.8914134016   -1.3436963620   -1.4781339521
 H    1.7717730566    0.2149512851   -1.4623515763
 H    0.9920157777    0.0446303503    2.0232608504
 H    0.2274174279   -1.4904826569    1.5213021348
 H   -1.3418440544   -1.4056006915   -0.1565178225
 H   -2.1622343758    1.0825161122   -1.4691036866
 H   -1.3527941733   -0.1987602065   -2.3723588884