20

 C   -0.0267763160    1.3615804136   -0.0590018883
 O    0.0066047339   -0.0446074460    0.0278169618
 C   -1.2727312773   -0.6309805492   -0.0091984883
 C   -1.1160889501   -2.1475544283    0.1126674256
 C   -0.3818888167   -2.5161494376    1.4135637886
 O   -0.4226267592   -3.8981583482    1.7161358540
 C   -2.5050718788   -2.8279734645    0.0353050419
 C   -2.4285575829   -4.2294236705   -0.3701998260
 N   -2.3621221268   -5.3228589826   -0.7388200357
 H    1.0064417791    1.7144171225   -0.0290749359
 H   -0.4924181106    1.6994958267   -0.9978472438
 H   -0.5813417798    1.8084659228    0.7807833454
 H   -1.8997800884   -0.2470034110    0.8167048508
 H   -1.7879914810   -0.3755853825   -0.9513839567
 H   -0.5183145198   -2.4853591516   -0.7431542151
 H    0.6439237166   -2.1307810863    1.3697378140
 H   -0.8796360965   -2.0205357709    2.2566887959
 H    0.0262166941   -4.3858470129    1.0173237738
 H   -3.0138643078   -2.7665716816    1.0038453245
 H   -3.1383319220   -2.3088729220   -0.6941483862