17

 C    0.0147905681    1.5208634449   -0.1230435287
 C   -0.0629172329    0.0258507619    0.1007961950
 C   -1.2099792372   -0.6634650225   -0.6085622549
 O    1.1915943291   -0.6819515282    0.0273042769
 C    0.5243983786   -0.6318888590    1.2841548198
 C    1.2260242475    0.1056713526    2.4156317028
 C    2.2167561053   -0.7376127843    3.0856641173
 N    2.9875831327   -1.4138735229    3.6175833258
 H    0.8921422135    1.9669250044    0.3475146732
 H    0.0729584556    1.7302826272   -1.1963511611
 H   -0.8818385563    2.0171932795    0.2633885701
 H   -1.1451557441   -0.4924754680   -1.6883569892
 H   -1.1869495546   -1.7412077367   -0.4318063118
 H   -2.1729570941   -0.2714206720   -0.2643628029
 H    0.0870754610   -1.5814999767    1.5978831757
 H    1.7260403583    1.0016593766    2.0404724216
 H    0.4868183894    0.4267512632    3.1598324204