10

 O   -0.0705159445    1.3336040707    0.0098739867
 C    1.2598973222    1.6978303979   -0.0009207347
 N    2.1349045978    0.7278918722   -0.0145890300
 C    1.3129895878   -0.3619711424   -0.0122171911
 C    0.0089570639   -0.0212727609    0.0021698662
 N   -0.8129582022   -1.1111357367    0.0045052724
 C    0.0620515413   -2.0810754422   -0.0089191475
 O    1.3924621738   -1.7168475988   -0.0199823744
 H    1.4546379650    2.7577359619    0.0027067769
 H   -0.1326887251   -3.1409812217   -0.0125057647