18

 C    1.0954266212    1.3021558134   -0.1068818014
 C    0.0949772121    0.1593704853   -0.1080741922
 O    0.3311732712   -0.6167414141   -1.3025641238
 C    0.1680174780   -1.9786035229   -1.1475767708
 O    1.1382627786   -2.5227675368   -0.2322575453
 C    1.2638631274   -1.8189615108    0.9141453174
 N    2.1728100812   -1.9980129625    1.7757313591
 C    0.2115681481   -0.7530408979    1.1511638835
 O    0.4836531380   -0.0204253539    2.3088481455
 H    2.1163363366    0.9211996894   -0.0095409496
 H    1.0190007335    1.8559635225   -1.0462304456
 H    0.8957716009    1.9754832276    0.7277335414
 H   -0.9278661752    0.5567117932   -0.1569987542
 H   -0.8393917413   -2.2513776966   -0.7969473220
 H    0.3727519309   -2.4555768442   -2.1066347075
 H    2.8222424983   -2.7368980539    1.5096572624
 H   -0.7489520273   -1.2824108460    1.2708071401
 H    1.2801320677   -0.4337126319    2.6861746931