20

 C    1.0457617097   -0.1009841090    1.2167043941
 C    0.7304735310   -1.4701713582    0.6343401011
 O    1.2583772955   -2.4869517136    1.0484110901
 N   -0.1948441366   -1.4727038446   -0.3723248328
 C   -0.6200019254   -2.6838752232   -1.0486005046
 C   -0.2505395332   -2.6656473616   -2.5220203891
 C    1.2236048494   -2.6768358301   -2.8526049919
 C   -1.2370858080   -3.1423252298   -3.5006001199
 O   -1.0451923715   -1.7403401131   -3.2913346478
 H    2.1286342903    0.0441632120    1.2046841854
 H    0.5658708819    0.7256115044    0.6863604846
 H    0.7263581271   -0.0826157744    2.2625444165
 H   -0.5760570363   -0.6004789836   -0.7005745005
 H   -0.1304414358   -3.5135574472   -0.5324500956
 H   -1.7052223123   -2.8028733439   -0.9516151960
 H    1.6909737191   -3.6029625648   -2.5028946348
 H    1.3745045147   -2.5886202923   -3.9309222389
 H    1.7328026110   -1.8415479749   -2.3628489130
 H   -0.8954933880   -3.5215464031   -4.4627510204
 H   -2.1937717425   -3.5397243189   -3.1627552464