19

 O    0.0630460246    1.3211370751   -0.4966796812
 C    0.0526758173    0.0578669881    0.1485157834
 C   -1.3474318134   -0.5090494766    0.2135928059
 C   -2.3522305355    0.2719282201    1.0447558267
 O   -3.6175785428   -0.3469436082    1.1144648390
 C   -3.5329939960   -1.6843290727    1.5694957559
 C   -2.8528979722   -2.5935641171    0.5380864763
 C   -1.6110636819   -1.9364762977   -0.0390064634
 O   -1.8423168434   -0.9529319364   -1.0602114917
 H   -0.3072440684    1.1825544410   -1.3763874767
 H    0.7099526391   -0.6621663940   -0.3611411640
 H    0.4506155875    0.2247506756    1.1554244355
 H   -1.9302363960    0.4113883701    2.0561666796
 H   -2.5053592715    1.2611687303    0.6056626915
 H   -2.9782784519   -1.7216903491    2.5229027830
 H   -4.5576787896   -2.0111324518    1.7658374081
 H   -2.5863659244   -3.5470186032    1.0076340794
 H   -3.5388906075   -2.8147940845   -0.2864487557
 H   -0.7660357439   -2.5919214493   -0.2521255517