16

 N    0.1082524989    1.2540630493    0.1053930519
 C    0.0128227277    0.0029898667    0.2204382370
 O   -0.8429294980   -0.6830793762   -0.5670064284
 C   -0.9899051693   -2.0838639237   -0.3253869870
 C   -2.2690422920   -2.4383927848    0.4530657630
 C   -2.9417577662   -3.5457240486   -0.3754771598
 O   -3.8816455659   -4.2199773412   -0.0335000804
 C   -2.2057017257   -3.6190356178   -1.6647098297
 C   -1.1507647487   -2.8002578453   -1.6462137310
 H    0.8050903813    1.6133717936    0.7542268950
 H    0.5775007821   -0.6380393082    0.9128365755
 H   -0.0912501283   -2.4500223269    0.1918215640
 H   -2.1009883771   -2.7654983374    1.4813827702
 H   -2.9284649628   -1.5655264833    0.4797601406
 H   -2.5178632764   -4.2662786878   -2.4741329757
 H   -0.4449374696   -2.6359511683   -2.4523070453