14

 O    0.0208546708    1.4326150621    0.0096192112
 C    0.0014051311    0.0109570827    0.0025905105
 C   -1.3785894951   -0.4562875092    0.0125809238
 C   -2.5094549736   -0.8715042706    0.0206198412
 C   -3.8393611187   -1.3482458543    0.0301316186
 C   -5.0173912674   -0.6273775984    0.0409583875
 N   -5.9781011142   -1.5752535230    0.0465473254
 N   -5.4516819327   -2.8167913549    0.0398495134
 N   -4.1619524492   -2.6876222617    0.0299836447
 H    0.9438227437    1.7060412861    0.0027194131
 H    0.5088559198   -0.3932469554   -0.8888572298
 H    0.5246528301   -0.4022354698    0.8806803518
 H   -5.2236352210    0.4287139839    0.0447893498
 H   -6.9795050937   -1.4635157177    0.0546867288