18

 O    0.0827732158   -0.0111739282   -0.3144990575
 C    0.0515754332    1.1613250091   -0.0583785055
 N   -0.9709581765    2.0074280730    0.3171787135
 C   -0.1764363310    3.2457674227    0.2488511519
 C    0.0590306531    4.0270573216    1.5556651197
 C    1.3291130484    3.4563601753    2.1838557450
 C    1.3567791925    1.9986096352    2.5557471049
 C    1.9461593760    2.4385258791    1.2356528994
 C    1.0720361315    2.3333097353   -0.0060392539
 H   -1.9705499847    1.8610541608    0.3128794433
 H   -0.4760424366    3.8908332276   -0.5827758990
 H    0.2115676253    5.0856020843    1.3188340159
 H   -0.8106205175    3.9684448284    2.2198242646
 H    1.9590144806    4.1355385573    2.7485103537
 H    2.0561275767    1.6948004399    3.3272907607
 H    0.4283266316    1.4377938006    2.5545666516
 H    3.0196171798    2.3709735144    1.1071732419
 H    1.6232945918    2.4900066636   -0.9336758701