23

 C    0.3098139540    1.5918412112    0.1255183036
 C    0.0166869887    0.0991863216    0.0149680982
 C    0.4565692044   -0.4636439401   -1.3504531368
 C    0.4398067904   -1.9923017079   -1.4844857119
 C   -0.7446761683   -2.6821709088   -0.7475011609
 C    0.1967396873   -2.8893000603    0.4731784677
 C    1.3990085003   -2.7253794927   -0.4984758855
 C    0.1453788615   -1.7716599932    1.5223831851
 O    0.6864546330   -0.5318210325    1.1033560373
 H    1.3892079863    1.7671140044    0.0762500182
 H   -0.1675226522    2.1445449244   -0.6894653648
 H   -0.0570718689    1.9850009398    1.0772173534
 H   -1.0685503115   -0.0549811739    0.1336163481
 H   -0.2025890870   -0.0272242790   -2.1127993743
 H    1.4701606018   -0.1011651400   -1.5690240915
 H    0.5630403075   -2.2561683423   -2.5389261413
 H   -1.6671984691   -2.1126325879   -0.5971612145
 H   -1.0036114662   -3.6371033860   -1.2133500054
 H    0.0990962774   -3.8496385039    0.9895404643
 H    1.7312328978   -3.6864258665   -0.9000223693
 H    2.2622647837   -2.1661734828   -0.1311379985
 H   -0.8940583865   -1.6360986332    1.8691547801
 H    0.7492856856   -2.0592751903    2.3898971685