17

 C    0.0030404730   -1.2142080564   -0.1791537378
 C   -0.0271962362   -0.0129162827   -0.1479197234
 C   -0.0234837419    1.4430080903   -0.1003062660
 C    1.3877962030    2.0254774698    0.1761196702
 C    1.3989591939    3.5129875316    0.2166860248
 C    1.6568817455    4.4260914143    1.1926189374
 C    1.4883499143    5.7211783014    0.5998009449
 C    1.1376221866    5.4974336068   -0.6914505521
 O    1.0779005707    4.1611140036   -0.9433350527
 H    0.0136866799   -2.2753132974   -0.2115803028
 H   -0.3947370960    1.8489706605   -1.0481961279
 H   -0.7140869485    1.7930972035    0.6764790708
 H    1.7566759597    1.6477705850    1.1334084650
 H    2.0728615644    1.6596979392   -0.5975912959
 H    1.9369311745    4.2045606837    2.2107809804
 H    1.6140988932    6.6815684813    1.0744197818
 H    0.9077895239    6.1405029356   -1.5247870967