19

 C    0.0159268507    1.4400087675   -0.0166773408
 C    1.3377431394    0.7160274275   -0.0181046677
 C    1.9678770446    0.5040573601    1.3438495019
 O    0.9113106918    0.0412392592    2.1904383669
 C   -0.0194725316   -0.7067959922    1.4010614210
 C    0.0367945270   -0.0755328781    0.0245533231
 C   -0.0360468831   -0.7805382929   -1.2863307623
 C    1.0233161749   -0.4939559164   -2.0512597890
 C    2.0197090085    0.4191081418   -1.3510241949
 H   -0.2599683751    1.9633058708    0.8939369703
 H   -0.3154810187    1.9058687984   -0.9382764606
 H    2.7765974503   -0.2421294566    1.2676020787
 H    2.3743815743    1.4041087561    1.8174376137
 H    0.2682325538   -1.7690004921    1.3401074904
 H   -0.9867457767   -0.6379641114    1.9095825415
 H   -0.8662123749   -1.4124910275   -1.5820939696
 H    1.1697549179   -0.8394506311   -3.0695557495
 H    2.2285024495    1.3236286251   -1.9357257343
 H    2.9871717073   -0.0820635282   -1.2069643189