19

 C   -0.0967069945    1.5733179544    0.0091613567
 C    0.0629134961    0.0508462230    0.0050988939
 C    0.7449128214   -0.4913070559   -1.2713988859
 C    2.2127667068   -0.1110057430   -1.2487234854
 O    2.7043446860    0.7903735796   -1.8764299110
 C    0.5854304650   -2.0329537049   -1.3681298423
 O   -0.7805921091   -2.4286507563   -1.3404982272
 C    1.2784850468   -2.5609334371   -2.5459003646
 C    1.8245429254   -2.9571245539   -3.5409511314
 H    0.8652651624    2.0834074330   -0.0984165181
 H   -0.7361403136    1.9028164734   -0.8166005673
 H   -0.5562727816    1.9105119549    0.9429471673
 H    0.6430250758   -0.2690361652    0.8821671068
 H   -0.9126487088   -0.4371016025    0.0876662285
 H    0.2966703796   -0.0311901159   -2.1595304703
 H    2.8285451137   -0.7184287799   -0.5423078537
 H    1.0221667514   -2.4804222398   -0.4656256415
 H   -1.1541890231   -2.2432178947   -2.2095785169
 H    2.3173395904   -3.3182754991   -4.4101779375