17

 C   -0.0719472803    1.4823863852   -0.0216311294
 C   -0.0700028533   -0.0352086048    0.0010989182
 O   -0.0903262766   -0.6607661084    1.0429548866
 C   -0.0473744695   -0.7272495566   -1.3035032117
 C   -0.0293468113   -2.0473870133   -1.5494985603
 C   -0.0106098817   -2.0806594217   -3.0826287021
 C    1.0921451847   -1.0224739470   -3.4019433241
 C   -0.0348921852   -0.1691288600   -2.7459957418
 O   -1.0034033813   -1.0495918607   -3.4064640423
 H    0.7980948756    1.8635709197   -0.5688778148
 H   -0.9634046723    1.8548082736   -0.5397029665
 H   -0.0583623642    1.8623920923    1.0001605758
 H   -0.0217263152   -2.8748964712   -0.8558337459
 H   -0.1340049170   -3.0208199320   -3.6168126717
 H    2.0589462723   -1.0973187895   -2.9000537461
 H    1.1925934268   -0.8383311899   -4.4736593085
 H   -0.1847503014    0.8929880242   -2.9316958154