20

 C    0.1279830724    1.6265023878    0.1153485288
 C    0.1340491004    0.0961583159    0.0513095711
 C    0.7419210959   -0.4626714864   -1.2475799107
 C    2.2969289679   -0.3883978018   -1.2938430634
 O    2.4113153139   -1.7856359695   -0.9851036704
 C    1.0137696437   -2.0120327870   -1.2680895823
 C    0.3433649445   -2.9411781253   -0.2816623681
 C    0.0431882371    0.0422525849   -2.4226998890
 N   -0.5157700206    0.4322395095   -3.3570572057
 H    1.1401086591    2.0370904621    0.0344980421
 H   -0.4729757161    2.0549014954   -0.6919856133
 H   -0.2910533933    1.9664097080    1.0664532254
 H    0.7132071136   -0.3089887361    0.8875409057
 H   -0.8882394807   -0.2832879616    0.1583523360
 H    2.7041799389   -0.1434897217   -2.2822937118
 H    2.7664095792    0.2444476281   -0.5338437557
 H    0.8915444450   -2.4017836728   -2.2886414067
 H    0.4332814417   -2.5838629727    0.7463339746
 H   -0.7167512896   -3.0601626843   -0.5278181946
 H    0.8162704371   -3.9263562328   -0.3415139219