15

 O   -0.0642267936    1.4238482954   -0.1542297670
 C    0.0025612259    0.0265070217   -0.0092779347
 C    0.3471937667   -0.4824954269    1.4270466140
 N   -1.0959822786   -0.6513325267    1.6911589610
 C   -1.4330559860   -0.5499663220    0.2589756223
 C   -2.5839602445    0.3996893676   -0.0535426346
 O   -3.2608716116    0.3118472155   -1.0422483367
 C    0.7617389746   -0.5896614114   -1.0999176142
 N    1.3955120595   -1.0599125735   -1.9445576549
 H    0.8275126995    1.7737751063   -0.2629493276
 H    0.9358545638   -1.4073339798    1.4146990428
 H    0.8417026845    0.2605359189    2.0612814808
 H   -1.3611116580   -1.5192992633    2.1400256770
 H   -1.5943056051   -1.4938888255   -0.2738578984
 H   -2.7456420069    1.1723815338    0.7255970802