15

 C   -0.2596185769    1.4174673312    0.0756739075
 O    0.1828782222    0.0725046473   -0.1158536193
 C    0.7275712098   -0.5037787694    0.9924769591
 C    2.0096772117   -0.9602139617    1.1292141122
 N    3.1025683949   -0.8746693940    0.3025023439
 O    2.1745201988   -1.5521926189    2.3185702883
 N    0.9516578033   -1.4888614059    3.0401931759
 C    0.1269549290   -0.8739031153    2.2275845040
 O   -1.1499824198   -0.6266437987    2.5640800994
 H    0.5725725668    2.0672262198    0.3746678136
 H   -0.6590438507    1.7518789838   -0.8839960866
 H   -1.0468945915    1.4679094808    0.8358841819
 H    2.8520192526   -0.7070543775   -0.6620953487
 H    3.7614474233   -1.6342007343    0.4076573346
 H   -1.2903861837   -0.9819824971    3.4523435041