23

 C   -0.0842992372    1.5369938207    0.1709991993
 C    0.1019447918    0.0302804450   -0.0330609132
 C    0.7372543875   -0.6442076964    1.1770782376
 O   -0.0718958170   -0.4723675203    2.3700404180
 C   -0.2380502721   -1.8300451828    2.8397723791
 C   -1.0388115789   -1.8500113976    4.1108538272
 C    1.1893399914   -2.4222971024    2.6703656894
 C    0.8485896168   -2.1789910513    1.1674898288
 C   -0.6090434887   -2.5940654481    1.5396522014
 H    0.8774257231    2.0354389504    0.3368968019
 H   -0.5544549202    2.0001313598   -0.7016545288
 H   -0.7139082873    1.7273205753    1.0442208463
 H   -0.8649256211   -0.4356945768   -0.2525644920
 H    0.7475275145   -0.1543987976   -0.9021457173
 H    1.7225860582   -0.1874716252    1.3561436049
 H   -2.0274630559   -1.4096876619    3.9473091651
 H   -1.1696196409   -2.8753364714    4.4681542415
 H   -0.5347416205   -1.2706220296    4.8906717335
 H    2.0172473069   -1.8603196008    3.1112344450
 H    1.2525202150   -3.4808608798    2.9298476003
 H    1.4066347629   -2.6395629999    0.3529181779
 H   -0.7084388552   -3.6709207255    1.6889138528
 H   -1.4429160033   -2.2069782238    0.9505746812