20

 C   -0.0374080200    1.5468783298   -0.0030697567
 C    1.4659389571    1.9688917834    0.0106526377
 C    2.2037190151    0.6224391226   -0.0275457477
 C    1.2933134477   -0.3203385696   -0.8503391129
 C    1.7414196004   -1.7187845020   -0.4163753068
 C    1.7263865754   -1.4381479460    1.0777347830
 C    0.6500422589   -0.4460651667    1.3415739449
 C    0.0433343951    0.0072931621    0.0132632852
 N    2.0797083761   -0.0150079260    1.3188725547
 H   -0.5942737578    1.9370801009    0.8537557164
 H   -0.5438265130    1.9018011850   -0.9063449568
 H    1.7215471071    2.5785857554   -0.8609492159
 H    1.7403771067    2.5348544011    0.9042318232
 H    3.2519465357    0.6761715177   -0.3291154851
 H    1.2091672272   -0.1209358818   -1.9182321971
 H    1.0375676742   -2.5078650058   -0.7012091846
 H    2.7345642914   -1.9862928830   -0.7923487385
 H    2.0664504521   -2.1529850662    1.8172632573
 H    0.1212018944   -0.3595641148    2.2840188069
 H   -0.8790301338   -0.5092902159   -0.2617775373