16

 C   -0.1440622398    1.5602580649    0.0311403127
 C    0.0735114386    0.0484762997   -0.0214837017
 N    0.7551748204   -0.4607534961    1.1647006846
 C    2.0970213004   -0.7737490505    1.2342077614
 O    2.9141377932   -0.6880108089    0.3528972897
 C    2.2975109970   -1.2532156808    2.6666202481
 O    1.0081577217   -1.1579482027    3.2779421210
 C    0.1029469502   -0.6898212605    2.3769321836
 O   -1.0564352954   -0.5146001655    2.6103369078
 H    0.8102911540    2.0904913730    0.0966206451
 H   -0.6580021318    1.8918370889   -0.8756550524
 H   -0.7599480209    1.8300400613    0.8927051804
 H   -0.8823779023   -0.4757992987   -0.0988217375
 H    0.6998047595   -0.2309701677   -0.8719844389
 H    2.6475169668   -2.2891028787    2.6919440176
 H    3.0120261585   -0.6200128579    3.2003170085