20

 C   -0.2488174269    1.4005824923    0.0522884716
 N   -0.0369247635   -0.0364942160   -0.0112993934
 C   -0.0161265568   -0.7168077112    1.2681388658
 C    0.1010799522   -0.6335513516   -1.2384990860
 O    0.0972353165    0.0091627424   -2.2760890083
 C    0.2884132142   -2.1560474406   -1.2677929953
 C    0.1610804460   -2.6998690571   -2.6711791409
 C   -0.0908045943   -4.1252951662   -2.9088958976
 O   -1.1363237842   -3.1633615714   -3.0532015753
 H    0.5530929834    1.8845614441    0.6240953285
 H   -0.2589853434    1.7911507568   -0.9633847570
 H   -1.2035093593    1.6278239239    0.5436216196
 H   -0.9998283223   -0.6788391045    1.7565875847
 H    0.2742001600   -1.7598601900    1.1625391508
 H    0.7063018921   -0.2338188668    1.9385433908
 H    1.2826979518   -2.3952863272   -0.8662187240
 H   -0.4457360757   -2.6618361186   -0.6339100348
 H    0.6685496142   -2.1182636667   -3.4365848907
 H    0.2533333548   -4.5896631886   -3.8321201082
 H   -0.1943875389   -4.8052713031   -2.0631100803