17

 C    0.0379181257    1.2013779409   -0.6788187722
 O   -0.1835361894   -0.1904562538   -0.4880240821
 C   -1.3992897503   -0.5662679464    0.1402049690
 C   -1.5185565688   -0.0757351358    1.5902683011
 C   -2.5499896667   -0.0813158715   -0.6600464739
 N   -3.4211614957    0.3269184157   -1.3003333724
 C   -1.4700896156   -2.1319775655    0.1294531798
 N   -0.6085785250   -2.7151214362   -0.7294972629
 O   -2.2643325460   -2.7151136761    0.8349903002
 H    0.9662293996    1.2844281906   -1.2466403786
 H   -0.7771373441    1.6628320055   -1.2494114310
 H    0.1563133839    1.7280082746    0.2752198172
 H   -1.6657580210    1.0047867475    1.6370228811
 H   -2.3663882303   -0.5754688294    2.0594112273
 H   -0.6052245360   -0.3425120449    2.1288240690
 H    0.0639854059   -2.1567082331   -1.2262309897
 H   -0.5878387662   -3.7197792021   -0.7831038617