23

 C   -1.3327378374    0.1705273808    0.6219654747
 C   -0.7892488100   -1.2376767456    0.7019191292
 C    0.4891754780   -1.5894092271   -0.0401830927
 C    0.4875502205   -1.5444063382    1.4552668949
 O    1.2235261037   -0.5038568271    2.0389748942
 C    1.2116914363   -0.4770976255    3.4476424476
 C    2.1889111198   -1.4433716138    4.0816656936
 C    1.0304566696    0.8895708087    4.0363209704
 C   -0.0816089755   -0.1366756997    4.1443316436
 H   -0.5241991431    0.9007199645    0.7095062661
 H   -1.8469085216    0.3425218592   -0.3298889642
 H   -2.0516515321    0.3694278586    1.4252808810
 H   -1.5455931923   -2.0183598286    0.7367398200
 H    0.5780121319   -2.5478257801   -0.5397234173
 H    1.0010971272   -0.7711199894   -0.5364717422
 H    0.5412164214   -2.4882526995    1.9931085969
 H    3.2015917799   -1.2539663976    3.7114368516
 H    2.1923409769   -1.3340089957    5.1699664578
 H    1.9345805272   -2.4844601678    3.8543310759
 H    1.5924807938    1.1468308182    4.9276498833
 H    0.8877612862    1.7041054774    3.3359958455
 H   -0.9597903817    0.0144520217    3.5290128750
 H   -0.2790850084   -0.5886118934    5.1107645953