19

 O    0.1226171056    1.3976517742   -0.0013215960
 C    0.0287841583    0.0055103825   -0.0145329605
 C   -1.3506884382   -0.6596805673   -0.0157305024
 C   -2.6017083370    0.2115191497    0.0061149791
 C   -3.0776676953    0.5248684157   -1.4108110177
 O   -4.1038192197    1.5009576507   -1.3090779463
 C   -1.9076611175    1.0504234509   -2.2470377773
 O   -0.8720454201    0.0858350916   -2.4011159284
 C   -0.4978148956   -0.6362419928   -1.2676614496
 H   -0.0588287788    1.7043616254    0.8943544495
 H    0.8309165510   -0.5130932700    0.5113932595
 H   -1.4269429126   -1.6096076900    0.5037133274
 H   -3.4005764295   -0.2845569386    0.5630168924
 H   -2.4105909573    1.1692819684    0.5049002708
 H   -3.4549942214   -0.3991236903   -1.8780898401
 H   -4.4490148177    1.6677398205   -2.1922407859
 H   -2.2403073556    1.2786180560   -3.2663305991
 H   -1.5258896767    1.9702757997   -1.7888290155
 H   -0.0212754318   -1.5604878862   -1.5790169399