19

 C   -0.1226736980    1.4745679276   -0.8527871847
 N   -0.0002835451    0.0800253265   -0.4748948070
 C   -0.8964979991   -0.4427607017    0.2657267704
 O   -1.9834742145    0.3087048178    0.6523532962
 C   -2.7288538471   -0.0387113054    1.8074470816
 C   -3.5962586971   -1.2815386536    1.6164054653
 N   -2.8366864651   -2.4946627269    1.8310103161
 C   -1.6040274956   -2.7025454423    1.2705504298
 C   -0.7679096277   -1.8452643162    0.6452625306
 H    0.8608372751    1.8488033619   -1.1525619238
 H   -0.7929653655    1.5903028788   -1.7165588019
 H   -0.5193715202    2.1127533630   -0.0524748969
 H   -2.0727012807   -0.1685723312    2.6770385992
 H   -3.3758790474    0.8236262297    1.9894039998
 H   -4.4148882934   -1.2630700031    2.3437008841
 H   -4.0390538682   -1.2328669840    0.6086817660
 H   -3.3714265015   -3.3233645433    2.0309942760
 H   -1.2549170669   -3.7225403693    1.4053066748
 H    0.1770692279   -2.2575828883    0.3161141744