23

 C   -0.0570412505    1.5629549066    0.1688287776
 C   -0.0780271634    0.0675695463   -0.1753563795
 C   -1.4779087336   -0.5183702112   -0.1618496298
 C   -1.6320122299   -2.0554746504   -0.2129575029
 C   -2.3730934304   -1.8828375624    1.1272547734
 O   -2.0893848511   -0.4695471522    1.1548816736
 C    1.3404289349    2.1438094362    0.2069510123
 C    2.0098036021    2.6129054581   -1.0616487677
 C    1.5700976417    3.6150636440   -0.0208402011
 H   -0.6570007028    2.1145676218   -0.5682001937
 H   -0.5502536102    1.7056885659    1.1378002105
 H    0.3617673769   -0.0960435318   -1.1687465060
 H    0.5409042450   -0.4865264113    0.5426456363
 H   -2.1123782884    0.0078948588   -0.8913952463
 H   -2.2170703996   -2.4563351926   -1.0418526020
 H   -0.6860634351   -2.5973874352   -0.1444811815
 H   -3.4522004767   -2.0816621799    1.0895129865
 H   -1.9500364851   -2.4040357299    1.9941484193
 H    1.9969994752    1.6739216385    0.9360962466
 H    3.0716748624    2.4338550913   -1.1903058065
 H    1.4382768497    2.5610333093   -1.9832698898
 H    0.7064174362    4.2324206006   -0.2465519512
 H    2.3317027225    4.1185255196    0.5645289920