19

 C    0.0253758038    1.6610960766    0.0326134249
 C    0.0327556360    0.1415586404    0.0150890418
 C    1.0436650945   -0.5913740027   -0.9083361571
 C    1.2980670258   -1.6416670956    0.2297886441
 C    2.7455146626   -2.0631368549    0.4955277100
 C    0.6445612641   -0.6178693567    1.2237343718
 C    0.4505367774   -2.8205409269    0.0564583091
 N   -0.2180690911   -3.7545755132   -0.0801198132
 H    1.0288536924    2.0578649746    0.2253529864
 H   -0.3157118550    2.0673608232   -0.9258600060
 H   -0.6410162334    2.0457195848    0.8123897131
 H   -0.9768590615   -0.2352744720   -0.1786031536
 H    0.6883044184   -0.9706185531   -1.8678727206
 H    1.9491852340    0.0017622166   -1.0713650288
 H    3.3708284093   -1.1747796467    0.6236665585
 H    2.8188460469   -2.6707014817    1.4025511601
 H    3.1446975535   -2.6490372941   -0.3378851979
 H    1.4271728377   -0.0329121807    1.7173883541
 H   -0.0320570454   -1.0184290979    1.9804123034