21

 C    0.0806598227    1.5615755804    0.2206813143
 C    0.0512698934    0.0326436733    0.0514057872
 C    0.6350489165   -0.6217280616    1.3192424839
 C   -1.4103422468   -0.4217269605   -0.1320251362
 C    0.8589899515   -0.4573914123   -1.1545154942
 C    0.9377172271    0.2643654027   -2.4758249517
 C    2.1663606596    0.1440715843   -1.6039727879
 H    1.0963755282    1.9374149592    0.3779574217
 H   -0.3453406194    2.0783620350   -0.6448377330
 H   -0.5116808899    1.8500995570    1.0953997854
 H    0.0654632183   -0.3334998855    2.2098118189
 H    0.6097699248   -1.7146933596    1.2466959149
 H    1.6769428552   -0.3215902839    1.4720003886
 H   -1.8501677724    0.0232418463   -1.0306451660
 H   -1.4754417320   -1.5108055542   -0.2327484082
 H   -2.0250418875   -0.1290267860    0.7265130651
 H    0.8165838243   -1.5416474439   -1.2443556893
 H    0.8875295296   -0.3240330515   -3.3856230587
 H    0.4828304860    1.2447727382   -2.5627739319
 H    2.5211531820    1.0452046186   -1.1163618009
 H    2.9596971087   -0.5269108758   -1.9152022222