18

 N   -0.5403332482    1.1413281174    0.2227508423
 C   -0.5642743510   -0.0849610289   -0.0722166351
 O   -0.7407159423   -1.0029603632    0.9019778440
 C   -0.6461830304   -2.3628490901    0.5228159685
 C   -1.3140217103   -3.2925176254    1.5690723006
 C   -2.3412200989   -3.7624991973    0.5082991790
 C   -3.5365727964   -2.8066442709    0.3058761499
 O   -2.8168540397   -2.0341594416   -0.6915788477
 C   -1.6621863520   -2.8657947126   -0.5639189445
 H   -0.4149705241    1.6966024358   -0.6210948781
 H   -0.4544845315   -0.5179309244   -1.0742260421
 H    0.3941785603   -2.6239874804    0.2920893047
 H   -0.6506730154   -4.0844527215    1.9225812128
 H   -1.7263366681   -2.7636326900    2.4312027134
 H   -2.5240578449   -4.8291733630    0.3933406279
 H   -4.4331582681   -3.2632334042   -0.1286055610
 H   -3.8203901661   -2.1998504416    1.1736122824
 H   -1.2624661829   -3.1942210284   -1.5270840868