20

 O   -0.0124835666    1.4187523355   -0.0705567885
 C   -0.0079438168   -0.0023984342   -0.0294095813
 C   -1.4342848600   -0.4859428924   -0.0341127720
 C   -2.5153034123    0.0368150918    0.9839109508
 C   -3.4912541461   -0.5554306980   -0.0920621539
 C   -2.4509743221   -0.0711148115   -1.1373961080
 C   -3.1587945877   -2.0547651136    0.0587767360
 N   -2.3648667969   -2.6455167226   -1.0485617376
 C   -1.6811240103   -2.0059511509    0.1032066273
 H    0.8992242724    1.7206836594   -0.1138552510
 H    0.5226353779   -0.4247619984   -0.8984772259
 H    0.5051428290   -0.3691557685    0.8764101785
 H   -2.5275890314   -0.4110521340    1.9832341769
 H   -2.5413463803    1.1261507337    1.0483289376
 H   -4.5408299583   -0.2671640287   -0.1447410727
 H   -2.4693200260    1.0122848398   -1.2560452535
 H   -2.4049805789   -0.5790426529   -2.0986544563
 H   -3.7542266107   -2.6975177434    0.6972591646
 H   -2.3357394998   -3.6548086365   -0.9134952090
 H   -1.0781455751   -2.6044716644    0.7780227579