19

 C   -0.0808629986    1.5384735716   -0.0220344710
 C   -0.0054043123    0.0226643049    0.0004027942
 C   -1.2630791258   -0.7898906885    0.4052795087
 N   -0.3798845511   -1.7183715054    1.1464470752
 C    0.7091795972   -0.7063932143    1.1682534452
 C    2.0197445447   -1.2043538620    0.6204571567
 N    2.9950070257   -1.6281287364    1.3014181441
 O    1.9954665851   -1.1069054681   -0.7412838588
 C    0.7421131136   -0.5813100440   -1.2149483735
 H    0.9164663712    1.9796193359   -0.1283876090
 H   -0.6896179112    1.8895764163   -0.8634180474
 H   -0.5255128203    1.9294176925    0.8982275727
 H   -1.9369653619   -0.1965442338    1.0393764767
 H   -1.8512365393   -1.2561664573   -0.3938825149
 H   -0.7053135858   -2.0268775574    2.0546377224
 H    0.8320934318   -0.1553672893    2.1050473823
 H    3.7604907206   -1.9194042002    0.6897795253
 H    0.1780128195   -1.3970925789   -1.6789380614
 H    0.9722561970    0.1672920646   -1.9787520073