19

 C    0.0264623509    1.3527631328   -1.0920644177
 N   -0.0771462156    0.1160595517   -0.3305242295
 C    0.5631727891    0.1930691842    0.9766591375
 C   -1.3192165135   -0.5106369403   -0.3812925871
 N   -2.3713981294    0.0438760549   -0.9910919075
 N   -3.3125941965   -0.8936987367   -0.8816426461
 N   -2.9671272595   -2.0049332332   -0.2527489601
 C   -1.6929777319   -1.8028525743    0.0855523803
 C   -0.8983807565   -2.8553349132    0.7864251387
 H    1.0792928358    1.6461113629   -1.1422601058
 H   -0.3493150781    1.1943643979   -2.1042038234
 H   -0.5476460949    2.1803381844   -0.6454236907
 H    0.0847412258    0.9323021934    1.6415102232
 H    0.5428994015   -0.7769378325    1.4744626845
 H    1.6104675769    0.4815625551    0.8447905623
 H   -4.2225763507   -0.7776847422   -1.2935417754
 H   -1.4236600756   -3.8108863671    0.7263266815
 H    0.0896880992   -2.9714137025    0.3289126240
 H   -0.7444680069   -2.6267349454    1.8478571911