18

 C    0.0436830043    1.5165925599   -0.0138292541
 C   -0.0796152719    0.0326590448    0.1212084435
 O    1.0592132654   -0.7744125320   -0.2394488788
 C    0.5074238743   -0.9358410061    1.0826131003
 C    1.4258622355   -0.7637334319    2.2498068778
 C   -0.7211974551   -1.8232934402    0.9758564996
 C   -1.9502326502   -1.0292858068    1.3413431286
 C   -1.3271705236   -0.8235465309   -0.0165996065
 H    0.9925623299    1.8679679908    0.4001756132
 H    0.0076956059    1.8133885715   -1.0682524682
 H   -0.7774875856    2.0215386384    0.5049452876
 H    2.0479320055    0.1270135944    2.1280131965
 H    0.8559695882   -0.6730049465    3.1800813064
 H    2.0931098572   -1.6276731077    2.3476908517
 H   -0.7237729273   -2.9037318242    0.8989735667
 H   -2.8842184415   -1.5835209712    1.3532956025
 H   -1.8929695369   -0.2471286245    2.0942797735
 H   -1.8462834343   -1.0517821678   -0.9394733904