19

 C    0.7097074039    1.3031222104   -0.2983563572
 C   -0.0337177817    0.0381585361    0.1161138240
 O    0.0297744555   -1.0031014038   -0.8844059710
 C    1.1400600108   -1.8730614323   -0.6599319014
 C    2.2274616000   -1.7517739523   -1.7250832248
 C    1.6228010910   -1.5178284749    0.7386859504
 O    2.6794447891   -1.7756127581    1.2590048400
 C    0.5545239148   -0.6355103156    1.3703545240
 O    1.0765149969    0.2141743790    2.3489095380
 H    1.7878038727    1.1320109701   -0.3832245434
 H    0.3361245462    1.6516092059   -1.2646323006
 H    0.5586693750    2.0871417810    0.4481411129
 H   -1.0974105767    0.2594132558    0.2378936438
 H    0.7636472110   -2.9071239391   -0.6486139348
 H    2.6282425858   -0.7358214126   -1.7668105274
 H    3.0464830614   -2.4386422924   -1.4929842889
 H    1.8179762862   -2.0035490999   -2.7062231198
 H   -0.2137310503   -1.3095190307    1.7898397665
 H    1.9401112583   -0.1553356967    2.5889316296