18

 C   -0.2388184144    1.5581355741    0.1151359005
 C   -0.0637245680    0.0577875875    0.0377838310
 C   -0.8306220346   -0.8585028755    0.9257586689
 N    0.5936019393   -0.5856893782    1.1772239196
 C    1.5425686028   -1.6424148460    0.8308360897
 C    1.2169521755   -2.4902076761   -0.3977970469
 O    1.5110924226   -3.6470628354   -0.5094891083
 O    0.5266287248   -1.8697361611   -1.3902707834
 C    0.3554455355   -0.4498226001   -1.3286335461
 H    0.6698759959    2.0785526458   -0.2081147056
 H   -1.0654522820    1.8915108409   -0.5218930365
 H   -0.4497975074    1.8582251832    1.1437585967
 H   -1.5098143074   -0.4454184798    1.6658200685
 H   -1.1175808530   -1.8333898916    0.5394785691
 H    2.5243940460   -1.1779510179    0.6704942360
 H    1.6516787769   -2.3317904985    1.6712572404
 H   -0.3967496819   -0.2144292306   -2.0864720876
 H    1.2926567194    0.0407566694   -1.6290431759