14

 O    0.0478219794   -0.0216574748    0.2106487511
 C    0.0037610159    1.1716165513    0.0429001800
 C   -1.3133179377    1.9471140409   -0.0389161387
 N   -1.2871584978    2.9679422736   -1.0773154421
 C   -0.1878268378    3.6184531075   -1.5552630762
 O   -0.2246706291    4.4227566073   -2.4652867240
 C    1.1147798511    3.2656797026   -0.8751956583
 O    1.1163907776    3.3026287393    0.5476972087
 C    1.2318133968    2.0199135139   -0.0751361228
 H   -2.1058630262    1.2262682405   -0.2488723740
 H   -1.5024166770    2.3834938350    0.9532334865
 H   -2.1601945929    3.2456169047   -1.5005364416
 H    1.9942968097    3.6787801946   -1.3613387899
 H    2.1891108580    1.5146676633    0.0231504213