17

 C    0.3290502234    1.4224779308    0.3751920602
 N    0.0253844699    0.0491697558    0.0054729045
 C    1.1365803148   -0.8201387347   -0.3397920816
 C   -1.2701956212   -0.3885557427    0.1372263142
 O   -2.2024969824    0.3360286464    0.4438430509
 N   -1.4594696123   -1.7476047697   -0.1154291666
 C   -2.7035709110   -2.3465126024   -0.0538093034
 N   -2.8203878275   -3.5956376488   -0.2628342774
 H    0.8387401134    1.9381953107   -0.4468830181
 H   -0.6092798570    1.9291488292    0.5931151197
 H    0.9741278942    1.4621611843    1.2625608121
 H    1.4154158983   -1.5033762342    0.4751292111
 H    0.9254987944   -1.4094786340   -1.2389842950
 H    2.0065946858   -0.1998025605   -0.5630412947
 H   -0.6907795567   -2.3682637715   -0.3127931799
 H   -3.4918428984   -1.6301299838    0.1823746557
 H   -3.7961804176   -3.8738471950   -0.1815024220