17

 O   -0.0609891670    1.3770385537    0.0509196128
 C    0.0367850395   -0.0437697332   -0.0313655678
 C    0.7488592497   -0.5905416632    1.2320059926
 O    0.6009070251   -1.9937060308    1.3329080857
 C   -0.7544356840   -2.3586622925    1.3518693443
 O   -1.4325513072   -1.9784435562    0.1837057303
 C   -1.4133235330   -0.5756576530    0.0052979224
 C    0.7308444124   -0.4599908198   -1.2488999417
 C    1.3315218399   -0.7427464022   -2.2509526362
 H    0.7083565129    1.7526465194   -0.3891133552
 H    1.8197275921   -0.3765160305    1.2037159477
 H    0.3038750632   -0.0799060365    2.1009266244
 H   -0.7925339286   -3.4477213233    1.4041714357
 H   -1.2492702130   -1.9084124265    2.2343497575
 H   -1.9308334451   -0.0615537669    0.8311204759
 H   -1.9301582827   -0.3540106367   -0.9295998307
 H    1.8517974058   -1.0118101418   -3.1372148476