16

 C   -0.0003899831    1.5478779960    0.0147182528
 C    0.1968027726    0.0280631002    0.0210971672
 C    0.7056275163   -0.4894185619   -1.3234488956
 C    0.7243901778   -2.0240419496   -1.5703571664
 O   -0.2005952099   -1.8667390150   -2.6905478374
 C   -0.2900393151   -0.5021319010   -2.4875583580
 O   -0.9752235015    0.2680680693   -3.0726824550
 C    1.9909206975   -2.6225945414   -1.9724615487
 N    3.0096169222   -3.0837951557   -2.2619789463
 H    0.9463220394    2.0673660104   -0.1669920614
 H   -0.7034902496    1.8479476321   -0.7669298088
 H   -0.3901687625    1.8890971756    0.9775315322
 H    0.9143985145   -0.2585533582    0.7988812353
 H   -0.7487535891   -0.4713037335    0.2662670610
 H    1.6459084839   -0.0062349346   -1.6034876138
 H    0.2602843865   -2.6175016527   -0.7781582471