22

 C   -0.0596670824    1.5220474162    0.0896123133
 C   -0.0273166198    0.0289460726    0.0109810585
 C    0.0580521128   -0.7395575272   -1.0797584769
 C    0.0552388146   -2.2348167546   -0.7870469983
 C   -1.2425147225   -2.8847633251   -1.3032003484
 C    1.2839365689   -2.9421182365   -1.3839979897
 C    0.0645059424   -2.2428839047    0.7496521094
 N    1.2461884448   -1.6073911171    1.3688775575
 C   -0.0296470140   -0.8417565128    1.2303797769
 H    0.8059875228    1.9063961794    0.6437515041
 H   -0.0579464749    1.9771362459   -0.9045088055
 H   -0.9532204582    1.8740234559    0.6211593275
 H    0.1469003926   -0.3643701346   -2.0953774483
 H   -1.3216183343   -2.7878071962   -2.3911424267
 H   -1.2682542559   -3.9540219185   -1.0605404390
 H   -2.1235228566   -2.4107407458   -0.8591187922
 H    2.2016993430   -2.5288268054   -0.9602857186
 H    1.2568054643   -4.0170513655   -1.1718569032
 H    1.3146526183   -2.8203224242   -2.4723708727
 H   -0.4158490805   -3.0647613909    1.2724853105
 H    1.3189120313   -1.9459546385    2.3275478207
 H   -0.5615695266   -0.5525401827    2.1316793612