21

 C   -0.7462948742    0.7674264390    0.1078789085
 N    0.6149348461    0.2167902292    0.1427320507
 C    1.0415405702   -0.4263449278   -1.0346994187
 C    1.8410639942   -0.0319998954   -2.0814274064
 C    1.9676230301   -1.1402875185   -2.9801268814
 C    2.7509720474   -1.1378067913   -4.2589302773
 C    1.2252704949   -2.1785747993   -2.4556415572
 C    0.9663802073   -3.5659112418   -2.9436575171
 N    0.6673755351   -1.7274467400   -1.2736497588
 H   -0.9007974990    1.5121570702   -0.6882419323
 H   -1.4635970545   -0.0431628727   -0.0495799175
 H   -0.9709391558    1.2297481299    1.0736758873
 H    1.2757271922    0.9434739741    0.3876929789
 H    2.2819755112    0.9467586845   -2.2042940403
 H    3.8078616227   -0.9020671609   -4.0843488138
 H    2.7138429689   -2.1083065890   -4.7618978026
 H    2.3726551533   -0.3905149119   -4.9674874283
 H    1.2804134029   -4.3272471060   -2.2172665184
 H   -0.0967261277   -3.7406719726   -3.1559247175
 H    1.5171110362   -3.7543383867   -3.8675928938
 H    0.1658953584   -2.2928276831   -0.6102839442