19

 C   -0.0036157067   -1.1582306235    0.0368663178
 C   -0.0113295914    0.0436392240    0.0131459554
 C    0.0033167992    1.4815684439   -0.0340276734
 C    0.4913312629    2.1514251997   -1.3037171739
 C    1.3537133639    2.1910775207   -0.0594466941
 C    1.5157891083    3.4888429950    0.7296366805
 C    0.3675536821    3.6925546569    1.7305848967
 C   -0.9743700548    3.3786150789    1.0788968936
 O   -1.0750483983    2.0133274663    0.6924015316
 H   -0.0037233127   -2.2196073841    0.0623446060
 H    0.7854450922    1.5146053639   -2.1294267756
 H   -0.0054837852    3.0716226886   -1.5950637602
 H    2.2130426975    1.5298510081   -0.0607825388
 H    2.4721357952    3.4752032718    1.2605616970
 H    1.5582016067    4.3407527219    0.0398756193
 H    0.4953494197    3.0271219699    2.5922124414
 H    0.3632956852    4.7211015680    2.1067047149
 H   -1.8023740088    3.5330313220    1.7758875464
 H   -1.1448115651    4.0413596679    0.2142992654