20

 C   -0.0455022597    1.5762889483   -0.0013910439
 C   -0.0249220950    0.0428713050   -0.0015335703
 C    0.6488652619   -0.5035062457   -1.2644020072
 N    0.8437479503   -1.9408228936   -1.1502952974
 C    1.3678030804   -2.5233801170   -0.0223125414
 O    1.8013663847   -3.6644452569   -0.0229984434
 C    1.3246622798   -1.6851395931    1.2174366234
 C    1.9971100692   -2.2758789826    2.4226327549
 C    0.6653051580   -0.5203223227    1.2165633723
 H    0.9711663804    1.9839067685   -0.0075674011
 H   -0.5710239089    1.9632007402   -0.8804139573
 H   -0.5545676094    1.9591916681    0.8883264025
 H   -1.0674992484   -0.3130935556    0.0081973961
 H    0.0295093276   -0.3031139981   -2.1440111528
 H    1.6084543123    0.0198457109   -1.4127517771
 H    1.0052998956   -2.4739711523   -1.9924874194
 H    1.5855042445   -3.2648431186    2.6460174024
 H    3.0663150315   -2.4268049953    2.2394527344
 H    1.8776568879   -1.6308584237    3.2967792806
 H    0.5851331772    0.0528696343    2.1391909347