21

 C   -0.1711932438    1.5258191233    0.6202144878
 C    0.1389321433    0.1929937006   -0.0647587250
 N   -1.0932868860   -0.5946967419   -0.1932003431
 C   -1.6128335051   -1.3515341339   -1.2944913401
 C   -0.6090663735   -2.3763161993   -1.9367404490
 N    0.7198138510   -2.2124683061   -1.2985176823
 C   -0.3511327648   -2.9800148057   -0.6175960837
 C   -1.3687438911   -1.9755622241    0.0605180858
 C   -2.3004595347   -2.4097948324    1.1529348836
 H    0.7386514055    2.1276820795    0.7240610019
 H   -0.9000566646    2.1016709757    0.0411717593
 H   -0.5917287439    1.3642596574    1.6179050193
 H    0.5758011837    0.3628599008   -1.0521200211
 H    0.8820535197   -0.3679824802    0.5085909479
 H   -2.5408866569   -1.0532092059   -1.7736312927
 H   -0.7237335488   -2.8475637269   -2.9040567293
 H    1.3433008864   -2.8947292094   -1.7307287387
 H   -0.2216249065   -4.0193104932   -0.3434851880
 H   -1.7652058809   -2.5257510277    2.1037416646
 H   -3.0873526001   -1.6648179976    1.2952213554
 H   -2.7663155787   -3.3733818731    0.9167505677