18

 C   -0.2827349542    1.4925529259    0.7570546346
 N    0.0086295586    0.0275251899    0.6248088555
 H   -0.8373231834   -0.5119399731    0.8043451874
 C    1.2575802543   -0.6626296832    1.2548107398
 C    0.9403596059   -1.8582748980    0.3212672423
 C    0.8242505631   -0.5854043803   -0.5550981322
 C    2.1116771970   -0.0365540991    0.1185674117
 C    2.4049146208    1.5038315456    0.1141434203
 O    2.7389403445    1.9451472864    1.2273693876
 O    2.2080928998    2.0398610199   -0.9901884075
 H   -0.0421295679    1.9856270148   -0.1843368067
 H   -1.3370660111    1.5981869003    1.0135695410
 H    0.3663768163    1.9125883990    1.5248088493
 H    1.3858843125   -0.6190139486    2.3338895482
 H    1.7818870723   -2.5077794635    0.0920761379
 H    0.0258756178   -2.4310306826    0.5157735634
 H    0.4516521275   -0.4525260252   -1.5681577022
 H    3.0010414062   -0.6223841983   -0.1193662905