18

 C   -0.0363626183    1.5762950204   -0.0034044946
 C    0.0257729484    0.0463464511   -0.0216219051
 N    0.7129824847   -0.4879220887   -1.1871417851
 C    0.1232762979   -0.8565204933   -2.3647214524
 N    0.9955408039   -1.2514525523   -3.2611162610
 C    2.2158305411   -1.1303225734   -2.6391155284
 C    2.0782504935   -0.6600127488   -1.3568009417
 C    3.0857851296   -0.3846939113   -0.2925276056
 H    0.9659773308    2.0130319869    0.0162758784
 H   -0.5522309232    1.9522292791   -0.8914507468
 H   -0.5770773116    1.9217019404    0.8832067572
 H    0.5265951239   -0.3261425687    0.8773026738
 H   -0.9853701033   -0.3722400668   -0.0170078639
 H   -0.9491955423   -0.8184380360   -2.4940071281
 H    3.1345774268   -1.3956953239   -3.1417547503
 H    3.1102038676    0.6699450958    0.0085983907
 H    2.9097179357   -0.9775158202    0.6139646178
 H    4.0808086148   -0.6425358604   -0.6628995648