18

 O   -0.0392266413   -0.0992951436    0.3044149866
 C   -0.0066360119    1.0787682236    0.0411686156
 N   -1.1415257234    1.8558427043    0.1213061829
 C   -1.4199520269    3.2509351795   -0.2122208634
 C   -0.8716293631    3.6579066658   -1.5641858402
 C   -0.0368717162    4.9072359728   -1.6892703597
 C    0.6245585740    3.5515992832   -1.7300201299
 C    1.3873097673    3.0309755918   -0.5420082376
 O    1.1792504946    1.6250819192   -0.3411493333
 H   -1.9136067734    1.2992924946    0.4497785632
 H   -2.5084217531    3.3580123969   -0.2019574413
 H   -1.0462618534    3.9266020097    0.5680626500
 H   -1.4788527558    3.3700375950   -2.4161487437
 H   -0.0902991008    5.4718490664   -2.6126664835
 H    0.0988186936    5.5191738928   -0.8026292725
 H    0.9906220033    3.2051144247   -2.6910936871
 H    2.4662189515    3.1178349349   -0.6926440047
 H    1.1420046350    3.5833171784    0.3714699584