14

 O   -0.0004059451   -0.0049017220    0.1678565268
 C    0.0558951060    1.1997678255    0.0554620831
 C    1.3008175673    1.9510669660   -0.0726528098
 C    1.5051632394    3.2943455901   -0.0202100829
 C    3.0075873800    3.4219521452   -0.0465174653
 N    3.4643135161    2.3505549963   -0.9845397496
 C    2.7124265331    1.3894929002   -0.1214977404
 C    3.3085185660    2.2820415980    1.0514590344
 O    3.7578174061    2.1817014133    2.1341224759
 H   -0.8640614023    1.8242628067    0.0350731836
 H    0.7839889283    4.0841318882    0.1422775436
 H    3.4954589723    4.3925892754   -0.0741099209
 H    3.0212400092    2.4471752114   -1.9019441331
 H    2.8741896637    0.3219131755   -0.2356692454