25

 C   -0.1114631457    1.5769787087    0.0355542471
 C    0.0091698895    0.0506953861    0.0318176693
 C    0.7050701693   -0.4936461120   -1.2202535462
 C    0.8225704372   -2.0202628935   -1.2270936366
 C    1.5039499859   -2.5813700000   -2.4753958573
 C    1.6063973483   -4.1128660809   -2.4524182697
 O    0.3241230231   -4.7087157630   -2.4811944038
 O    0.7145337781   -2.1963083719   -3.6077198382
 C    1.4317146904   -2.0792895504   -4.8187998009
 H    0.8750973069    2.0522486723   -0.0068319188
 H   -0.6836390774    1.9297156580   -0.8297952231
 H   -0.6155914777    1.9376047442    0.9377092441
 H    0.5580707098   -0.2762135970    0.9252007039
 H   -0.9903533731   -0.3967944025    0.1118262926
 H    0.1581436920   -0.1755196141   -2.1149219183
 H    1.7077107194   -0.0485377399   -1.2987580700
 H    1.3945468383   -2.3552801558   -0.3519729184
 H   -0.1686930648   -2.4796044128   -1.1421754581
 H    2.5142649025   -2.1506998476   -2.5706148194
 H    2.2232190763   -4.4570151622   -3.2990271321
 H    2.1031537763   -4.4442382441   -1.5340650952
 H   -0.1699663000   -4.2154776987   -3.1488637665
 H    0.7191356139   -1.7630294340   -5.5848239633
 H    2.2275760428   -1.3239612520   -4.7410148350
 H    1.8872286386   -3.0281290267   -5.1366677760