23

 C   -0.2775896532    1.5517505079   -0.0712799035
 C    0.0285946341    0.0683085557    0.0475145404
 C    1.3270874187   -0.6002486872   -0.3571630275
 C    2.6408053567    0.1932894486   -0.3702983615
 C    3.0247588529    0.4620924971    1.0931600191
 C    2.2244153266    1.4274490589    1.9315463596
 C    1.8986265606   -0.0474807177    1.9694391578
 C    0.8430138906   -0.6962760934    1.0840287033
 C    0.2426602015   -1.9687770558    1.6454120623
 H    0.6049913204    2.1605027608   -0.2784120684
 H   -0.9680555807    1.7093706018   -0.9068954466
 H   -0.7589197734    1.9505118810    0.8281451521
 H   -0.8349047014   -0.5242557580   -0.2522377127
 H    1.2645320623   -1.4544032039   -1.0258665047
 H    3.4187173651   -0.4167585968   -0.8402822291
 H    2.5761105518    1.1147768628   -0.9626065039
 H    4.0623853553    0.3083403482    1.3708693161
 H    2.7255891490    1.8275918133    2.8080337630
 H    1.5479933812    2.1299248205    1.4697318420
 H    2.1109549073   -0.5758221979    2.8930458625
 H   -0.3874589112   -1.7627689930    2.5192360745
 H   -0.3799822793   -2.4760124888    0.9018852440
 H    1.0237746951   -2.6714906741    1.9598751011