23

 C    0.0927820938    1.6727215718   -0.3131850746
 C    0.2525593487    0.1699970690   -0.1598882097
 C    1.5004361879   -0.6378635749   -0.4141032826
 C    2.7562502978   -0.0091430624    0.1725911067
 O    3.1412811937    1.2184716981   -0.4220918735
 C    2.0926084777   -0.0043221401    1.6015708436
 C    2.0308633642    1.2732012856    2.4326521908
 C    0.8265516934   -0.6268739950    0.9834224739
 C    0.0479287806   -1.7173837900    1.6679592800
 H    1.0249311901    2.2068375904   -0.1412293575
 H   -0.2266149042    1.9035686683   -1.3358827646
 H   -0.6765709553    2.0584617909    0.3658919105
 H   -0.6114100833   -0.3626598988   -0.5599372826
 H    1.5172624218   -1.4323800889   -1.1523185013
 H    3.5965257781   -0.7155468659    0.1451219433
 H    3.9550586661    1.5112655502    0.0006424116
 H    2.5916642243   -0.7759065815    2.2011064848
 H    1.5782136738    2.1067785265    1.8950023833
 H    1.4479799981    1.1081623085    3.3456400530
 H    3.0363583203    1.5822149535    2.7434144991
 H   -0.5496012524   -1.3201951740    2.4981726064
 H   -0.6432461470   -2.2096470799    0.9757923338
 H    0.7132053918   -2.4850881516    2.0813475657