18

 C   -0.5012801656    1.4578513232    0.0688638542
 C    0.0310230065    0.0360140623    0.0072835748
 O   -0.9876836339   -0.8834853005   -0.3628090448
 C    1.3619873460   -0.2338202739   -0.7739073791
 C    1.8227070997   -1.1935676916    0.3644050987
 C    0.7421746550   -0.5602098838    1.2387596460
 C    0.8719858685    0.0215664783    2.5760722523
 O    0.0966474792   -1.1614179417    2.3360770135
 H    0.2693706789    2.1611919992    0.3984754190
 H   -0.8465270696    1.7828850677   -0.9207019447
 H   -1.3504194357    1.5154469947    0.7569810665
 H   -1.3034482978   -0.6306503811   -1.2374898432
 H    1.2340769471   -0.6735842046   -1.7651160210
 H    1.9881494493    0.6588047041   -0.8512587956
 H    1.5888825260   -2.2370291133    0.1411606985
 H    2.8573918374   -1.1186440383    0.7050172583
 H    1.7937001623   -0.1277702178    3.1378917934
 H    0.2981862768    0.9055586272    2.8511528832