20

 C   -0.2627688957    1.3776264934   -0.2905164729
 C   -0.0049746741   -0.1162868962   -0.3089842570
 C    1.1558686747   -0.7085993371   -1.1163659065
 C    2.1497387120   -0.2640420104   -0.0015998427
 C    2.7603604880   -1.6512594202    0.1790403155
 C    1.2650100595   -1.8814844231   -0.0786040606
 C    0.5326098789   -3.1974438817   -0.0281728162
 O   -0.8038423906   -3.1562566567   -0.5077406355
 N    0.8875211948   -0.6569801772    0.8168855466
 H    0.6614883681    1.9621539142   -0.2603125478
 H   -0.8211471640    1.6799706950   -1.1833555400
 H   -0.8617029489    1.6471196054    0.5856302079
 H   -0.9443748369   -0.6726193459   -0.3572964355
 H    1.3355996801   -0.7465864557   -2.1986816515
 H    2.6169547328    0.7114114532    0.1308930467
 H    3.4536669263   -1.9950684950   -0.5934068641
 H    3.1181256357   -1.8924923937    1.1840563046
 H    1.1283005547   -3.9487033186   -0.5721433980
 H    0.4694489683   -3.5261082292    1.0148161076
 H   -0.7707873438   -2.9578195906   -1.4491523906