22

 O   -0.0199804203    1.4253235625   -0.3594515188
 C    0.0612544974    0.0359741169   -0.0763713788
 C   -1.3528555422   -0.5275295877   -0.0727143755
 C   -1.3955716390   -2.0282847975    0.2476223794
 C   -2.7941793650   -2.5749186045    0.2382871191
 C   -3.8845372629   -2.3086301779    1.2966644398
 C   -4.4373463855   -3.7523124393    1.0498391960
 C   -3.3392691842   -3.9576943473   -0.0021190174
 N   -3.4050450021   -2.9316970282   -1.0408962072
 H    0.8737207364    1.7788005274   -0.3878839085
 H    0.6680994297   -0.4901409218   -0.8316316591
 H    0.5362816645   -0.1431462300    0.9029143595
 H   -1.9463637084    0.0342386728    0.6590866934
 H   -1.8071069311   -0.3486286582   -1.0536733187
 H   -0.8022647274   -2.5822195185   -0.4892201696
 H   -0.9413591178   -2.2118746699    1.2309903943
 H   -3.4848163970   -2.1877667293    2.3070277208
 H   -4.5563785186   -1.4692891147    1.0868656937
 H   -4.3256583135   -4.3937592801    1.9273862176
 H   -5.4659480891   -3.8403346769    0.6830734125
 H   -2.8292518346   -4.8856207947   -0.2379730573
 H   -4.3445328695   -2.5543070630   -1.1574641051