15

 O    0.2828392905    0.7012782852    0.9976193559
 C   -0.1098506278    0.2065543166   -0.2781292449
 C   -1.4431087942   -0.3717368054   -0.1957255879
 C   -2.5489983098   -0.8500408534   -0.1628521297
 C   -3.8332275504   -1.4451879378   -0.0943411846
 N   -4.8964478742   -0.8966895520   -0.7028638777
 N   -5.9056170993   -1.7302994590   -0.4156046600
 C   -5.5380679467   -2.7876392515    0.3515289120
 C   -4.1913706952   -2.6415389328    0.5837164225
 H    1.1626386195    1.0794081399    0.8981132221
 H   -0.1184671908    1.0098106670   -1.0328354803
 H    0.5938838725   -0.5616917978   -0.6393230992
 H   -6.8216257772   -1.5185037664   -0.7737632831
 H   -6.2470734504   -3.5386482326    0.6614899159
 H   -3.5458632465   -3.2868105500    1.1551959689