19

 C    0.1783103426    1.6594975518   -0.1724420280
 C    0.0540430439    0.1508455330   -0.1294892728
 C    0.5669040233   -0.7921456640   -1.1608221319
 C    1.6210307402   -0.3296061022   -2.1593762697
 C    2.7924878735    0.2147333438   -1.3085449555
 C    2.5251624846   -0.3639850546    0.1166148280
 C    2.8863367609    0.5611901364    1.1949968992
 N    3.1871278914    1.2961004801    2.0346040814
 N    1.1237870828   -0.8186211145    0.2116783665
 H    0.9438287057    2.0271999035   -0.8566367829
 H   -0.7788140506    2.0775254421   -0.5018109331
 H    0.3912523688    2.0636722050    0.8214412734
 H   -0.8675087904   -0.1609116889    0.3597169603
 H   -0.0355855864   -1.6516999005   -1.4432515674
 H    1.9415048316   -1.1853140016   -2.7609758274
 H    1.2399646084    0.4249042196   -2.8545932609
 H    3.7652314167   -0.1120518281   -1.6826825439
 H    2.8096292779    1.3045426929   -1.2863464438
 H    3.1343325551   -1.2648667037    0.2566254383