17

 O    0.0489128195    1.4715446925   -0.0443301064
 C    0.0650389877    0.0548526759    0.0258981939
 C   -0.0288875394   -0.6620947769    1.4097097339
 C   -1.5169639505   -0.1626309275    1.5145897657
 O   -1.8252446149    1.1500757163    1.8406659472
 C   -1.3406244059   -0.6336613171    0.0356918018
 O   -2.3223063754   -0.5970636713   -0.9259863265
 C   -0.6251920586   -1.8753683660    0.6325106280
 O    0.1666669994   -2.5930892948   -0.2839400747
 H    0.9439150761    1.7931781945    0.1035811246
 H    0.7947114423   -0.3594065832   -0.6730691475
 H    0.7206869599   -0.6884605696    2.1977955070
 H   -2.1697303276   -0.8033717112    2.1153650623
 H   -1.2872625364    1.7149483216    1.2671884434
 H   -1.9901614197   -1.0386655008   -1.7164016376
 H   -1.2645977428   -2.5387478021    1.2264926986
 H    0.6990655263   -3.2266347604    0.2064100564