18

 C   -0.0157103938    1.5467905819    0.1286300208
 C   -0.0013171286    0.0239580516    0.0571875191
 C    0.8447842746   -0.5778178320   -1.1189288478
 C    1.7771243538   -1.1439806127   -0.0227651940
 O    2.7957787733   -1.7782966232    0.0096941434
 N    0.9707022644   -0.6225545382    0.9625023976
 C   -1.3742163903   -0.6137374581    0.1793459940
 C   -2.5198223767   -0.0046278375    0.8692441532
 O   -2.4407438966   -0.0197229391   -0.5587672542
 H    0.9748938291    1.9465999271   -0.1024811236
 H   -0.7384595699    1.9504710826   -0.5851991084
 H   -0.2903269189    1.8961202824    1.1292900637
 H    0.3410922098   -1.3368456258   -1.7202713609
 H    1.3131798095    0.1580361375   -1.7742588360
 H    1.0782950812   -0.5898627856    1.9665067967
 H   -1.3443199473   -1.7039407460    0.1255998597
 H   -3.2840840980   -0.6491271767    1.3008237493
 H   -2.4289267458    0.9770953916    1.3284749873