13

 C    0.0103668631    1.4351859609    0.1408759096
 C   -0.0174658747   -0.0378964991   -0.0448884259
 N   -0.1254273628   -0.7099521206   -1.1524512346
 C   -0.0985473794   -2.0341235782   -0.7622750146
 C    0.0272280679   -2.1104352384    0.5929257029
 O    0.0801476141   -0.8131022528    1.0614816467
 C    0.1050467960   -3.1692484407    1.5088092063
 C    0.1704220998   -4.0915365677    2.2807561183
 H    0.9437075319    1.7525736782    0.6170400418
 H   -0.0766631476    1.9159442457   -0.8334401759
 H   -0.8147118056    1.7652554855    0.7803209201
 H   -0.1702400309   -2.8447214766   -1.4693429950
 H    0.2280558283   -4.9046008662    2.9614362902