21

 C    1.8469806272    0.8920877398   -0.6202381141
 C    1.3434915767   -0.5539808707   -0.6004363504
 C   -0.0433293734   -0.7342920494    0.0523397308
 C   -1.1724327052   -0.0429033959   -0.7255052808
 C   -0.3367569194   -2.2135374425    0.1729199861
 O    0.3885084967   -2.9606450694    1.1345526579
 C   -1.0168133772   -2.8523796303    1.3383042739
 C   -1.4995076489   -2.0513023702    2.5050459101
 O   -0.8417347579   -1.2506513706    3.1197926236
 H    2.8606314830    0.9423287186   -1.0295671920
 H    1.2148564265    1.5409187172   -1.2342232490
 H    1.8756104205    1.3128919628    0.3907762509
 H    1.3155513335   -0.9493868728   -1.6256617454
 H    2.0578311485   -1.1751615797   -0.0483566036
 H    0.0036939303   -0.3229909236    1.0658353622
 H   -1.2502035685   -0.4360084202   -1.7464743572
 H   -2.1408852295   -0.1907732021   -0.2362431539
 H   -1.0018685188    1.0340111540   -0.7969922818
 H   -0.4712318067   -2.7346594590   -0.7798232798
 H   -1.5852812684   -3.7659715854    1.1548443526
 H   -2.5638631291   -2.2515095205    2.7651995698