21

 C    0.0487728233    1.5715855415   -0.0036766696
 C    0.0134634829    0.0373927881    0.0002256442
 C    0.5203884973   -0.5285918707   -1.3473652605
 C    0.8859172220   -1.9886463725   -1.3000495222
 C    1.2148964634   -2.6231515836   -0.1678813364
 C    1.2897761116   -1.9426526211    1.1423217732
 C    2.2267079841   -0.7379223549    1.2713241152
 O    3.0717591862   -0.3712261115    0.2241070642
 C    0.7400843507   -0.5239730174    1.2154123263
 H    1.0811675380    1.9285684914   -0.0752848793
 H   -0.5136174929    1.9785531635   -0.8512375912
 H   -0.3869005358    1.9809372374    0.9139244268
 H   -1.0333030224   -0.2815472396    0.1036444560
 H   -0.2460976694   -0.3643784461   -2.1144892373
 H    1.3917302188    0.0564223640   -1.6708269152
 H    0.8781045839   -2.5356809291   -2.2394088664
 H    1.4722380487   -3.6787607912   -0.1937920427
 H    1.2016536760   -2.5803604786    2.0157874334
 H    2.7088913836   -0.6042793892    2.2368880492
 H    3.0349570580   -1.0723921519   -0.4404194419
 H    0.2794990622   -0.2468466086    2.1610766443