20

 C   -0.0834715841    1.5330002396    0.0652244201
 N    0.0862244196    0.0870822460    0.0301304496
 C    0.7694274829   -0.5212273429   -1.1030949509
 C    2.3270424163   -0.5746928873   -0.8192290776
 C    3.3363691427   -0.7254540081   -1.9164690340
 C    2.4930988524    0.0700665544    0.5560163500
 C    1.1061279650   -0.5503394629    0.9096792727
 C    1.3720737885   -1.6006164585   -0.2650165592
 O    1.4068904098   -2.9656612199   -0.3403229287
 H    0.8272525724    2.1130812802   -0.1512102291
 H   -0.8420074166    1.8170096425   -0.6723457332
 H   -0.4531978400    1.8268375750    1.0534863853
 H    0.3718495419   -0.5423684095   -2.1113824628
 H    3.6202564284    0.2476018724   -2.3336013158
 H    4.2495690985   -1.2141490435   -1.5575464916
 H    2.9398822750   -1.3359135992   -2.7349569763
 H    3.2863149450   -0.4259454203    1.1230950169
 H    2.6124002905    1.1557255093    0.6375335190
 H    0.8149225538   -0.7423990567    1.9418996232
 H    0.5006447280   -3.2954599006   -0.3216852777