18

 O   -0.1046249004    1.3680526587    0.0634037739
 C    0.0123737800   -0.0480230155    0.0059338329
 C    0.6642913868   -0.6731737425    1.2859706068
 C   -0.0332531726   -2.0149940084    1.4565434432
 N   -1.3431653370   -1.9027629462    2.1322793876
 C   -1.2907046107   -2.0041119557    0.6584504822
 C   -1.4197489871   -0.6579897792   -0.0380562685
 C    0.7795158903   -0.4483125876   -1.1824055747
 C    1.4357707715   -0.7509586120   -2.1439672237
 H    0.7594281635    1.7460503543   -0.1320152798
 H    1.7468925934   -0.7706685923    1.1784223559
 H    0.4484146123   -0.0146613166    2.1318518144
 H    0.5500797766   -2.9194153789    1.5916769827
 H   -1.5973887905   -2.8090444331    2.5202367598
 H   -1.6732460457   -2.9002404902    0.1819900649
 H   -2.0861753038    0.0067820496    0.5181005855
 H   -1.7835395818   -0.7412769031   -1.0634627266
 H    2.0043788251   -1.0196618912   -2.9999300167