12

 O    0.0809795573    1.3828511454    0.0751978978
 C    0.0285827981   -0.0042061653    0.0499247247
 C   -0.3873663672   -0.7663611209    1.2706339343
 C   -1.3234740499   -0.7121191131    0.0599965823
 C   -2.4889665637    0.1162209391    0.0989421282
 C   -3.4205503056    0.8803272433    0.1029688119
 H   -0.8108122190    1.7205658312   -0.0836226923
 H    0.7948099072   -0.4393954813   -0.5866657288
 H    0.0838915691   -1.7184061212    1.4882776210
 H   -0.6778421085   -0.1799295612    2.1342147624
 H   -1.4093707066   -1.6156096557   -0.5352806908
 H   -4.2701716112    1.5169827997    0.1274276894