18

 C    0.3975763284    0.6475148930    0.5301387076
 O   -0.2557348320    0.2695241850   -0.6718140903
 C    0.4930516860   -0.5340104310   -1.5375779507
 C    0.5332802227   -2.0312031489   -1.1726918589
 O    1.4105491454   -2.1756210061   -0.0415722933
 C    1.7743373595   -3.4359140274    0.2868488464
 N    2.5324627969   -3.6257383857    1.2759151449
 C   -0.7932139334   -2.5845550839   -0.9081860758
 C   -1.8774194460   -3.0578708415   -0.7006417970
 H    0.5488644555   -0.2006230933    1.2051273966
 H    1.3754834934    1.1064660098    0.3221819866
 H   -0.2462016157    1.3876084804    1.0112476679
 H    0.0218208354   -0.4535583840   -2.5230044346
 H    1.5356749506   -0.1886560306   -1.6168597084
 H    0.9796294029   -2.5559811607   -2.0316580388
 H    1.3532973916   -4.2018654056   -0.3765391869
 H    2.7221196509   -4.6200991616    1.3829394126
 H   -2.8403229221   -3.4651374579   -0.5119986580