16

 N    0.1644672182    1.4159068969   -0.1004207093
 C   -0.0079103819    0.0175175795   -0.0274495064
 C   -1.0978612733   -0.8075408793   -0.0822381473
 C   -0.6213346010   -2.1668676799   -0.0366644046
 C   -1.3657811152   -3.3635794166   -0.0793256099
 C   -1.9815679897   -4.4014563870   -0.1164877482
 C    0.7621522202   -2.1041463881    0.0688514049
 N    1.7086702806   -3.1193050797    0.2371330216
 N    1.1198703919   -0.7859583987    0.0682583844
 H   -0.5979733434    1.8444119197   -0.6112146631
 H    0.1962759887    1.8500721876    0.8182902424
 H   -2.1298581567   -0.5012964461   -0.1501072635
 H   -2.5350804405   -5.3062502048   -0.1444860049
 H    1.2383975651   -4.0160225220    0.2934170552
 H    2.3856348074   -3.1611838623   -0.5189137598
 H    2.0598489595   -0.4332545592    0.1296263087