16

 C   -0.0406091787    1.5785553390   -0.0139466986
 C    0.0050246910    0.0705012762    0.0223245465
 C   -1.2042089013   -0.6841821433    0.6678816166
 O   -1.0354863203   -2.0812810095    0.4561182559
 C   -0.3131088077   -1.4833884603    1.5309720513
 C    0.9355828677   -0.7832553949    0.9213453523
 O    1.4953835377   -1.4403926125   -0.2480743844
 C    0.6809657568   -0.7038829828   -1.1016707209
 N    0.6145088573   -0.6844474989   -2.3508372986
 H    0.9462456811    1.9988214091   -0.2272795844
 H   -0.7247746451    1.9150667854   -0.7994310429
 H   -0.3897574646    1.9868793255    0.9404388748
 H   -2.2097252084   -0.3093310762    0.8214525840
 H   -0.4456739507   -1.9028568985    2.5212099260
 H    1.6909193773   -0.3786076858    1.5935995630
 H    1.2584379579   -1.3546198624   -2.7745323805