17

 C   -0.0199297101    1.4955411923    0.0663653874
 C   -0.0072167421    0.0037899175    0.0110166999
 C   -0.0257797174   -0.8071989655   -1.0642180082
 C   -0.0017434112   -2.2686084300   -0.6534671766
 N    0.0325764019   -2.1545485154    0.7935441783
 C    0.0676031311   -2.9276756335    1.9263465921
 C    0.0840100802   -2.0210692585    2.9655405285
 N    0.0607040338   -0.7207378712    2.5064015877
 C    0.0299345448   -0.8482027879    1.1969391158
 H    0.8686950390    1.8701460009    0.5859529332
 H   -0.0513314834    1.9325779344   -0.9343979517
 H   -0.8858239640    1.8533876681    0.6338764617
 H   -0.0541108673   -0.5020500575   -2.1012079252
 H   -0.8908874668   -2.8141445799   -0.9930542780
 H    0.8800141011   -2.7971734391   -1.0363927681
 H    0.0773866658   -4.0045604828    1.9044710040
 H    0.1117117447   -2.2410446721    4.0224083991