19

 C    0.0483758566    1.5124191292   -0.0686173926
 C   -0.0385309315   -0.0138274738    0.1048258715
 C   -1.4374759813   -0.5446376527    0.0003070639
 N   -2.1260699173   -0.8539997142    1.0989173365
 N   -3.3251341612   -1.2664053090    0.6449880409
 C   -3.4231076779   -1.2337793144   -0.7054695741
 C   -2.2127661160   -0.7661846895   -1.1702917927
 C   -1.8313046450   -0.5520916492   -2.5996134584
 O   -2.7778634477   -1.2209649867   -3.4227648281
 H    1.0841058936    1.8570463186    0.0142949283
 H   -0.3319319817    1.8267555811   -1.0463202195
 H   -0.5442398821    2.0210601347    0.6974972589
 H    0.5957935379   -0.5006732726   -0.6471158209
 H    0.3584473516   -0.2944887652    1.0850765630
 H   -4.0148209117   -1.5800105289    1.3056341021
 H   -4.3088631789   -1.5475943383   -1.2321333591
 H   -1.8071357035    0.5254583525   -2.8353126275
 H   -0.8108359551   -0.9322610096   -2.7762749315
 H   -2.5896298087   -0.9928664922   -4.3375358408