12

 C    0.1326212311    1.4520750679    0.0797504072
 C   -0.0541044414   -0.0151004254   -0.0222338685
 C   -1.1135992877   -0.8358864303   -0.2680857532
 N   -0.7010225607   -2.1521447618   -0.2452268977
 C    0.5702212761   -2.0795888612    0.0091401399
 O    1.0394498764   -0.8114316331    0.1583082521
 C    1.4962257043   -3.1447887786    0.1447009873
 N    2.2563906259   -4.0097642021    0.2564138387
 H    0.8507367091    1.8131305656   -0.6640002084
 H   -0.8211546988    1.9566345350   -0.0866321758
 H    0.5079031284    1.7364444115    1.0684496983
 H   -2.1402895628   -0.5670168776   -0.4589054800