16

 O    0.1881795756    1.2471234984   -0.0429896838
 C   -0.0160240971   -0.1218728187   -0.0367233265
 C   -0.5902841968   -0.8607820651   -1.2134203844
 C   -1.3905907330   -0.7192918276    0.0672229430
 C   -1.2801840636   -1.8602551560    1.0569448490
 O    0.1209849387   -2.1602604877    1.1453178399
 C    0.8427808215   -0.9607110963    0.9201274717
 C    2.1719567150   -1.2871817081    0.3869697468
 N    3.2218739359   -1.4801944360   -0.0542211656
 H    0.9096086778    1.4443815308   -0.6515535894
 H   -0.9092013677   -0.2449468885   -2.0465298258
 H   -0.1833049890   -1.8318851482   -1.4775611541
 H   -2.2630132128   -0.0779937686    0.0808201739
 H   -1.6756236551   -1.5581244714    2.0379423845
 H   -1.7771985137   -2.7840188954    0.7473066751
 H    0.9770855144   -0.3778654714    1.8457383157