18

 O    0.0613915034   -0.0174245162   -0.1669452289
 C    0.0753238244    1.1942262263   -0.0970600383
 N    1.1749023483    1.9387942949    0.1773272614
 C    2.5745682973    1.5432476539    0.1481992393
 C    3.2169341155    1.9774722228   -1.1385263970
 C    2.9761973945    3.0013368671   -0.0515965617
 C    1.5013138320    3.3573823844    0.0209908884
 C    0.7191450471    4.3945285426   -0.7224273294
 C    0.8743880352    4.4777139773    0.7888903437
 H   -0.8337447691    1.8204956541   -0.2064498391
 H    2.9565967869    0.7812816746    0.8134988513
 H    4.2530392205    1.6767774076   -1.2595185247
 H    2.6347831899    1.9966372264   -2.0549914375
 H    3.7674097558    3.5574614105    0.4313683732
 H    1.2689017558    5.0968150369   -1.3403959215
 H   -0.2562152702    4.1252142955   -1.1131267296
 H    0.0083825135    4.2465912550    1.3997483629
 H    1.5263525393    5.2415453963    1.2001525274