15

 N   -0.7162174563   -1.0108281011   -0.7179370168
 C   -0.4139645142    0.0596585858   -0.4038788737
 C   -0.0658118166    1.4049090754    0.0193277154
 C   -0.0599516450    1.6932186346    1.5648158650
 C    1.3648236076    2.2791079213    1.4485268130
 O    2.3811451290    1.4930289545    2.1038137004
 C    2.8444913247    0.6512541235    1.1430429264
 N    2.4102421994    0.7366826774   -0.0466363038
 C    1.4428378367    1.8342128334   -0.0437617618
 H   -0.6957621320    2.1168272073   -0.5208355422
 H   -0.8350008610    2.3839899419    1.8995664011
 H   -0.0919363513    0.7934390176    2.1802719299
 H    1.5034735551    3.3231296941    1.7267624261
 H    3.5905804085   -0.0549681767    1.4887889266
 H    1.6778812056    2.5601341609   -0.8244331157