21

 C    0.0670973729    1.5104273976    0.1955809538
 C   -0.0749043134    0.0027478310   -0.0573251550
 C    0.6658784400   -0.4586561312   -1.2786037413
 C    1.1479007410   -1.8258765863   -1.7526581530
 C    0.5552893725   -1.6017385871   -3.1451206757
 C    0.4099017157   -0.0909164266   -2.7692596275
 O    1.5163962463    0.6801432042   -3.2128425551
 C    2.6763066206    0.1321868664   -2.5724529603
 C    2.1377597344   -0.7130584494   -1.4242829874
 H    1.1139431065    1.7839092942    0.3618563338
 H   -0.2925231013    2.0896183900   -0.6609499983
 H   -0.5077915298    1.8182210236    1.0744440876
 H    0.2909236043   -0.5545018554    0.8146186307
 H   -1.1389629334   -0.2527158607   -0.1528031982
 H    1.1607635458   -2.7601829049   -1.2019865382
 H    1.1658177809   -1.8235866619   -4.0268989222
 H   -0.4188579833   -2.0880335590   -3.2498118006
 H   -0.5071081264    0.4235445721   -3.0561041980
 H    3.2653117847   -0.4543008079   -3.2915287178
 H    3.3020038340    0.9589174550   -2.2159169386
 H    2.7402161881   -0.8448548735   -0.5324624988