17

 C   -0.1411198830    1.6113350962    0.0689411149
 C    0.0733767989    0.0980254694    0.0852181798
 N    1.2303626285   -0.4167444078   -0.7489339576
 C    1.6825973541   -1.2594271399    0.3877749426
 C    2.1939704691   -0.3060125249    1.4068364954
 O    2.8185215527    0.8818225478    1.0486382306
 C    0.6946660950   -0.5656833925    1.3343050566
 C   -1.1633834287   -0.6006256870   -0.2884202022
 N   -2.1327714976   -1.1471208092   -0.6032552692
 H    0.7699488052    2.1121985317    0.3958629742
 H   -0.4081184325    1.9515069061   -0.9357671073
 H   -0.9548177470    1.8816910463    0.7483381676
 H    0.9118221337   -0.9576109762   -1.5452136174
 H    1.9677104595   -2.2961543011    0.2574134984
 H    2.6453151106   -0.7544717694    2.2874823144
 H    2.7407050132    0.9322975775    0.0831999446
 H    0.1193299184   -0.9440991471    2.1687153448