19

 C   -0.0910137729    1.5216022177   -0.0745087962
 C   -0.0880817748    0.0250179594    0.1010419587
 O    1.1677884996   -0.6537170687   -0.0866725987
 C    0.5832315317   -0.6516690860    1.2158558670
 C    1.3149504002    0.0483591861    2.3596447690
 O    1.4477308083   -0.9269944978    3.3897412470
 C    0.3158785437   -1.7765077210    3.2928197976
 C    0.1094691449   -1.9911633878    1.7824332118
 O   -1.2271582583   -2.2656420316    1.4053555160
 H    0.7762054107    1.9844515872    0.4033420077
 H   -0.0705934221    1.7791552359   -1.1384391523
 H   -1.0005324044    1.9541467496    0.3563871296
 H   -0.9327144234   -0.5013153872   -0.3416657384
 H    2.3119729903    0.3833360914    2.0644207288
 H    0.7416149970    0.9155666028    2.7247718954
 H    0.5317571495   -2.6904692622    3.8519807128
 H   -0.5906843321   -1.3068461137    3.7100314519
 H    0.7917072564   -2.7689360223    1.4130065110
 H   -1.3898178446   -3.2048218518    1.5321722713