13

 C   -0.0860291798   -3.8192877718   -0.0176248244
 C   -0.0494162588   -2.6127051426   -0.0114870183
 C   -0.0094724742   -1.2524199244   -0.0045529046
 C    0.0262011028   -0.0444567239    0.0016025133
 C    0.0565472292    1.4167224306    0.0091696041
 C    1.4092124150    1.9701078835   -0.0007991388
 C    2.5237606099    2.4372283811   -0.0089434131
 C    3.7792619156    2.9622541876   -0.0181004872
 C    4.8923584494    3.4293441636   -0.0262102357
 H   -0.1168138773   -4.8806145660   -0.0230355312
 H   -0.5003323690    1.7979755150   -0.8592483968
 H   -0.4835750759    1.7885587850    0.8921341295
 H    5.8719491531    3.8389086924   -0.0333570970