16

 C    0.1626933003    1.5758143646   -0.0680405734
 C    0.0601954828    0.0616644901   -0.0043600257
 O    0.7474716098   -0.4973815546   -1.1218839201
 C    1.2849835713   -1.7690032504   -0.7897611685
 C    1.5181887247   -1.7274940068    0.7050263359
 O    2.1673841171   -0.5323240244    1.1423184176
 C    0.7371057260   -0.5852956308    1.2060152713
 C    0.1232736588   -0.5229455664    2.5069352897
 N   -0.4052742778   -0.4464386403    3.5319768990
 H    1.2091806616    1.8819724958    0.0007357038
 H   -0.2480003903    1.9351382919   -1.0145576403
 H   -0.4011652209    2.0321482990    0.7508071825
 H   -0.9961860878   -0.2546446739    0.0007778841
 H    0.5883260232   -2.5898786010   -1.0240346922
 H    2.2021414205   -1.9092363105   -1.3698011260
 H    1.7062777809   -2.6242747722    1.2877230721