20

 C   -0.0068165806    1.5885019957    0.1945614551
 C   -0.0324313947    0.0802517505   -0.0712762760
 N   -1.3704870485   -0.4838666107   -0.0325975808
 C   -2.0862340889   -0.7734184371    1.1266388209
 C   -3.3100243687   -1.2193936446    0.6938656198
 N   -4.4349373469   -1.5950577214    1.4369726778
 N   -3.3665188631   -1.2072423755   -0.6761666667
 C   -2.1923058495   -0.7555660774   -1.0844633884
 C   -1.8087008131   -0.5773772938   -2.5165315019
 H    1.0221059461    1.9609652640    0.1712417134
 H   -0.5865682899    2.1275435500   -0.5603604116
 H   -0.4340621630    1.8172548471    1.1748103263
 H    0.3983644249   -0.1388916451   -1.0518588602
 H    0.5809275152   -0.4445337155    0.6695045831
 H   -1.6580444552   -0.6386166478    2.1055861463
 H   -4.2070689670   -2.0951838707    2.2858934515
 H   -5.0625806542   -2.1474028564    0.8663756177
 H   -1.5743237219    0.4651870689   -2.7619828697
 H   -0.9379516621   -1.1837217820   -2.7938373465
 H   -2.6519747388   -0.8909062980   -3.1331157402