23

 C   -0.5761242174    1.1456683481    0.3330326563
 C   -0.2112727809   -0.3056825006    0.0143226661
 C    0.6097345892   -0.4697107427   -1.2690490706
 C    0.9819339695   -1.9324882997   -1.5331845112
 C    1.8316384143   -2.1365776573   -2.7891532105
 O   -0.1572588544    0.0222251203   -2.3776995908
 C    0.4252208683    1.1099657380   -3.0710766801
 C   -0.4464179439    1.5143355193   -4.1681309787
 C   -1.1457156780    1.8674101216   -5.0783427250
 H    0.3192199032    1.7620208793    0.4754789069
 H   -1.1651563122    1.5824019685   -0.4783024978
 H   -1.1695075753    1.2098608915    1.2500851519
 H    0.3563515315   -0.7427604221    0.8453360975
 H   -1.1263148791   -0.9019522880   -0.0889456389
 H    1.5343246059    0.1232282523   -1.1794719823
 H    1.5115719323   -2.3181693804   -0.6530995253
 H    0.0528601189   -2.5095861198   -1.6185255035
 H    1.3010646301   -1.7790629989   -3.6760755065
 H    2.7841415558   -1.5982003203   -2.7205169974
 H    2.0619580170   -3.1954644971   -2.9405477087
 H    0.5836231788    1.9674248752   -2.3971315160
 H    1.4139696799    0.8364772885   -3.4737169178
 H   -1.7686134336    2.1747353344   -5.8815618877