25

 C    0.6577491920   -0.6491033872    1.5785042921
 C   -0.7745053364   -0.1206793965    1.7296572410
 C   -0.7589372944    1.4143952036    1.5944454751
 C   -1.8543217705   -0.7286804615    0.8134849696
 C   -3.2572644058   -0.4997360104    1.3686230262
 C   -1.7321276955   -0.6610441752   -0.6933861691
 C   -1.7468253158   -2.0063436377   -0.0083767912
 C   -0.5938646817   -2.9738387859   -0.1280723210
 O   -0.9047179817   -3.8308832831   -1.2242805242
 H    1.3152173227   -0.1246884909    2.2800734550
 H    0.7304877602   -1.7164760040    1.7984394856
 H    1.0578360795   -0.4737381074    0.5739233892
 H   -1.0852172694   -0.3556768325    2.7580877871
 H   -0.4174186327    1.7091078219    0.5959021301
 H   -1.7453410690    1.8581668321    1.7517317587
 H   -0.0762494424    1.8589819491    2.3261373036
 H   -3.4578232787    0.5616765024    1.5465145590
 H   -4.0217765054   -0.8635124222    0.6759360414
 H   -3.3923659740   -1.0267473663    2.3208285893
 H   -2.5899450829   -0.3461681749   -1.2791595133
 H   -0.7791799264   -0.3453658108   -1.1094273590
 H   -2.6860437198   -2.5515223705   -0.0711368895
 H    0.3539208976   -2.4510177784   -0.3030992105
 H   -0.4844987246   -3.5590649236    0.8003266672
 H   -0.1896634349   -4.4681458700   -1.3122327625