18

 C    0.1424495645    1.3158674710   -0.2197095185
 O    0.0374344300   -0.0853409054   -0.0941043151
 C   -1.2833025982   -0.5676782005    0.0713303283
 C   -2.0434285473   -0.6305716187   -1.2630314792
 C   -1.1500654459   -1.9175670271    0.7130885675
 C   -0.0560009226   -2.6345515282    1.1372520412
 N   -0.4778557481   -3.8201449267    1.6626777871
 N   -1.7736349561   -3.8834929987    1.5928265402
 N   -2.1901231738   -2.7339882219    1.0160618551
 H    1.2084339045    1.5502181073   -0.2590288393
 H   -0.3312320509    1.6954338267   -1.1360531269
 H   -0.3039150042    1.8336233208    0.6430688878
 H   -1.8312652498    0.1022474090    0.7580477333
 H   -1.5163013775   -1.2852791785   -1.9616409011
 H   -3.0581324743   -1.0167120933   -1.1206202893
 H   -2.1319021095    0.3642848226   -1.7074449158
 H    0.9838942824   -2.3620244080    1.0897322210
 H   -3.1768836933   -2.5896986205    0.8741416138