12

 O   -0.0035489033   -0.0400398692   -0.0024493534
 C    0.0084008059    1.1625657372    0.0083600470
 C    1.2473405217    1.9817940884    0.0016241623
 C    1.2557382706    3.3258898442    0.0130624954
 C    2.5314861241    4.0594343538    0.0048946075
 O    2.6076512430    5.2650088580    0.0153240574
 N    3.6918700173    3.2376018431   -0.0144659687
 C    3.5549862861    1.9753847157   -0.0237501899
 O    2.3997514022    1.2622698123   -0.0172482340
 H   -0.9156286347    1.7764173931    0.0233594028
 H    0.3273845656    3.8844045598    0.0282330029
 H    4.4058787614    1.3001093837   -0.0387156893