16

 C   -0.0358562246    1.5137798076    0.0108578351
 N   -0.0660350010    0.0626311474    0.0029163797
 C   -1.2120026428   -0.6414545157    0.0102275668
 N   -2.3619353837   -0.0562769143    0.0246044420
 C   -3.4636910807   -0.8639276806    0.0316841685
 N   -3.5764744822   -2.1663949137    0.0293098769
 C   -4.9429801978   -2.3945417944    0.0402518222
 C   -5.5965839814   -1.2099955727    0.0486421502
 O   -4.6576798716   -0.2146258527    0.0433795770
 H    1.0036122109    1.8456513656    0.0031625617
 H   -0.5520478765    1.9173825472   -0.8659442290
 H   -0.5357690856    1.9072816861    0.9015641775
 H    0.8001790301   -0.4452317029   -0.0084798628
 H   -1.0931009760   -1.7282906028    0.0031716106
 H   -5.3536928395   -3.3921989070    0.0412619505
 H   -6.6277258876   -0.9033213771    0.0580893931