15

 O   -0.7172553937    1.1193390550    0.8725236211
 C    0.1205070992    0.9046358911    0.0340523511
 C    1.3617256823    1.7303831302   -0.1147985228
 C    1.8538078403    2.6551823559    1.0142374053
 C    2.0528155413    3.8109991231   -0.0117505588
 C    1.5127070380    2.8942894935   -1.1556219125
 C    2.5832251109    1.9873520635   -1.7484590803
 O    3.3392127491    1.9938051559   -2.6621884199
 O    2.4379925099    1.0043380120   -0.7850917562
 H    0.0223089060    0.0885946029   -0.7133620356
 H    1.0591271870    2.8452395920    1.7374084965
 H    2.7425678782    2.2909441652    1.5309405580
 H    1.4051595647    4.6689405692    0.1711969186
 H    3.0732258706    4.1681863159   -0.1585586887
 H    0.7296116663    3.2610224145   -1.8157494659