23

 C   -0.0985533742    1.5181747051   -0.0285954812
 C    0.0189334867    0.0107654847    0.0135686829
 C    1.3361290517   -0.6704636140   -0.2568215830
 C    0.7431507905   -0.6959490375    1.1427640820
 C    1.3810386855    0.0539478177    2.3255318584
 C    1.4843823452   -0.9989991891    3.4616540329
 C    0.6113978280   -2.1459438348    2.9912021915
 C    0.3014913462   -3.3095757537    3.8778960682
 C    0.2306752658   -1.9634092258    1.7240675611
 H    0.8140902216    2.0021214927    0.3330153672
 H   -0.2734597599    1.8692146726   -1.0518441488
 H   -0.9297247100    1.8747016961    0.5907631387
 H   -0.8603184331   -0.5109576427   -0.3591802736
 H    1.3441609251   -1.5909813701   -0.8319044454
 H    2.2056687292   -0.0385442945   -0.4163443451
 H    2.3514197373    0.4905674204    2.0749074922
 H    0.7316559872    0.8778833110    2.6406511754
 H    2.5177355753   -1.3435449788    3.6116003221
 H    1.1589926123   -0.5986178378    4.4299813024
 H    1.2198382623   -3.8075967400    4.2165011139
 H   -0.2275023129   -2.9896732305    4.7853305860
 H   -0.3182172398   -4.0532732715    3.3691037251
 H   -0.3729481499   -2.6596808294    1.1493752473