16

 C    0.1190710016    1.5344713404    0.0521032510
 C    0.0739286465    0.0797465089    0.0698601977
 C    0.0319552095   -1.1243391160    0.0825967645
 C    0.0205510302   -2.5605245772    0.0890011770
 C   -0.5585875476   -3.3270650023    1.2444408562
 C   -1.2868803777   -3.3584210812   -0.0852291097
 C   -2.5750931112   -2.6365618684   -0.2062830783
 O   -3.5009105033   -3.0133289779   -0.8816644121
 H    0.9737579103    1.8942883845   -0.5311632125
 H   -0.7876314296    1.9553847837   -0.3963094352
 H    0.2119819792    1.9448882013    1.0636825499
 H    0.8686551938   -3.0240192040   -0.4072136851
 H   -0.0646490588   -4.2377443043    1.5618796986
 H   -1.0096803427   -2.7476598208    2.0425279649
 H   -1.2240025798   -4.2630417513   -0.6793330763
 H   -2.6346155803   -1.6999298851    0.3910048894