14

 C   -0.0488945133    1.5499889412    0.0059614955
 C    0.0488610906    0.0238427881    0.0022347324
 N    0.8249477274   -0.4802348930   -1.1492399348
 C    1.7654214071   -1.1852570820   -0.6572228576
 N    1.7901044506   -1.2878662755    0.7292299990
 C    0.7422134245   -0.5286658813    1.2522752080
 N    0.4007835558   -0.3068611702    2.4548438109
 H    0.9485392447    1.9990512596    0.0214132768
 H   -0.5688677400    1.8969881659   -0.8901481673
 H   -0.5914727923    1.8791291284    0.8954534553
 H   -0.9625300780   -0.3974970249   -0.0552559216
 H    2.5215429627   -1.6993908179   -1.2426891963
 H    2.4933753792   -1.7604095562    1.2719138503
 H    1.0130254311   -0.7771369422    3.1234807193