23

 C   -1.4683975770    0.2388295865    1.9284313685
 O   -1.2639719903   -0.5231847665    0.7590924048
 C    0.0904073439   -0.7612369303    0.3402998275
 C    0.8158941946    0.5654288925    0.0539685619
 C    0.8805491098   -1.5806665731    1.3709952826
 C   -0.0512307710   -1.5206331682   -0.9920527432
 O    0.4620205044   -2.8528318409   -1.0928537192
 C   -0.9501677774   -2.6576407324   -1.2498175396
 C   -1.8783270503   -3.3053855114   -0.2559642816
 H   -1.0157319371   -0.2176625129    2.8194513715
 H   -1.0932822298    1.2675466831    1.8373801380
 H   -2.5503796073    0.2827963581    2.0788793852
 H    1.0032000641    1.1337516435    0.9686601875
 H    1.7843404597    0.3678889358   -0.4156759185
 H    0.2232032561    1.1852754194   -0.6261032044
 H    0.3662967561   -2.5077004138    1.6277686846
 H    1.8570512362   -1.8499311210    0.9613504430
 H    1.0454953102   -1.0027752382    2.2847972119
 H    0.1955282452   -0.9056619610   -1.8599076491
 H   -1.2771518005   -2.7675760023   -2.2872394642
 H   -1.5661000295   -3.1386344578    0.7735562748
 H   -2.8855299859   -2.8927592810   -0.3715060865
 H   -1.9293658140   -4.3834814182   -0.4441074155