17

 C    0.5859436399    0.4608893287   -0.7833213797
 C   -0.1531365722    0.1378375765    0.4962544358
 O    0.1030916947    0.6685290430    1.5514818505
 C   -1.2587942615   -0.9348381347    0.4223203707
 C   -2.1835477842   -0.8689049569   -0.7811150813
 C   -2.2542888919   -2.0289174145   -1.4399639084
 C   -1.3428289149   -3.0330426057   -0.8160152146
 O    0.0525517888   -2.6444920610   -0.8628292663
 C   -0.6924190388   -2.3611791187    0.3231134163
 H    1.4332599542    1.1117632236   -0.5649823715
 H    0.9059925190   -0.4615082803   -1.2759183578
 H   -0.0917137001    0.9668857364   -1.4813521508
 H   -1.8175972567   -0.8381037493    1.3601183027
 H   -2.7040738851    0.0420786554   -1.0549370879
 H   -2.8607085805   -2.2308620176   -2.3138140672
 H   -1.5199097707   -4.1023052588   -0.8706557296
 H   -0.3524804600   -2.8698851761    1.2200816391