13

 N   -0.0428954138   -1.1700266589   -0.0651881536
 C   -0.0150839348   -0.0170637452   -0.0028958758
 C    0.0352139436    1.4435990182    0.0722656358
 O   -0.1438365189    1.9564215759    1.4152521235
 C    1.0825432316    2.6808233805    1.3379039371
 C    2.2437728574    1.7697524564    1.1811947320
 C    1.4134697202    2.1215033067   -0.0489124701
 C    1.9247664633    2.7337924821   -1.2244869622
 N    2.3309172154    3.2340984479   -2.1857656233
 H   -0.7038703615    1.8831256743   -0.6042100122
 H    1.0997669800    3.6950523150    1.7155730057
 H    3.2188400659    2.2447327286    1.1916979142
 H    2.2026609616    0.7602449584    1.5785373589