16

 O   -0.0173222985    0.0083341950   -0.2546326096
 C    0.0219657460    1.1794974179   -0.0113006103
 O   -1.1228789470    1.9071294267    0.1708926003
 C   -0.8803347706    3.2040926147    0.7408103268
 C    0.0188990799    3.0105010410    1.9766533853
 N    1.2255913732    3.1471421653    1.0974217794
 C    0.3595731915    3.9066531516    0.0905823306
 C    1.0155521359    3.1470443729   -1.0571595288
 C    1.2637990561    2.0548240595    0.0254705927
 H   -1.8447273473    3.7103769239    0.7926107827
 H   -0.0006520758    3.8564598168    2.6693504671
 H   -0.0898481764    2.0721598471    2.5283443390
 H    0.3577765836    4.9979596829    0.1357995126
 H    0.4280614114    2.8782250120   -1.9359486655
 H    1.9489566251    3.6292116561   -1.3521527813
 H    2.1705156929    1.4531788067    0.0070348389