16

 C   -0.0166319813    1.4153166109   -0.0440006472
 C    0.0053507828   -0.0750336684    0.0142110533
 N   -0.0414462985   -0.8262590622   -1.0905619540
 N    0.0011170028   -2.0695876735   -0.5691685137
 C   -0.0093084232   -3.4162253474   -1.0943842334
 C    0.0664238512   -4.2137928009    0.1972030444
 C    0.1108971668   -3.3970808684    1.2654827097
 C    0.0690902794   -2.0240967361    0.7779171416
 N    0.0744721586   -0.7710674517    1.1964505448
 H    0.8835998574    1.8341576970    0.4167531735
 H   -0.0733992580    1.7499744280   -1.0810951970
 H   -0.8761392779    1.8116990593    0.5058000798
 H   -0.9237777357   -3.6229919867   -1.6624923230
 H    0.8472047163   -3.6014923090   -1.7530338408
 H    0.0802054366   -5.2944405840    0.2042460879
 H    0.1675239828   -3.6812223669    2.3056719044