25

 C    0.5606459649    1.5256571571   -0.4002513937
 C    0.0777236772    0.1202297516   -0.0076800050
 C    0.3488758911   -0.9507199433   -1.0975261834
 C    1.6919975464   -1.6183247855   -0.7456835324
 C    2.9979177687   -0.8693824740   -1.1453465090
 C    3.2549752209   -0.5038209602    0.3444704186
 C    1.9678680334   -1.2819383956    0.7597528646
 C    0.7384533161   -0.4972420477    1.2619449995
 C    0.9971906597    0.4570745809    2.4286210362
 H    1.6321575216    1.5675897997   -0.6126059477
 H    0.0376640616    1.8619775312   -1.3020783683
 H    0.3523284786    2.2550128628    0.3888769931
 H   -1.0025752120    0.2004310082    0.1642375178
 H   -0.4457504761   -1.7053095829   -1.0666174885
 H    0.3426360564   -0.5281232918   -2.1085967389
 H    1.6954224559   -2.6766561055   -1.0163965687
 H    3.7630879997   -1.5178344839   -1.5798602561
 H    2.8558012940   -0.0233333215   -1.8239041833
 H    4.1769825973   -0.9216133868    0.7564657374
 H    3.2503248482    0.5650803781    0.5700144697
 H    2.1794447522   -2.1332338296    1.4121275533
 H    0.0308908612   -1.2596284493    1.6190160384
 H    1.7302629055    1.2291900198    2.1763375936
 H    0.0767933100    0.9643540751    2.7382933504
 H    1.3809304776   -0.0881519569    3.2977683125