16

 O   -0.7986945691    1.4162404014    0.4879934019
 C    0.2835838427    1.0656357118    0.0992597843
 C    1.4972052455    1.9856751135   -0.0751089759
 O    2.4741431124    1.5681805621   -0.6658084941
 N    1.3994205233    3.2005155275    0.5456335158
 C    0.4134488993    4.2444948821    0.3156825837
 C    0.4809275397    5.1988323601    1.5142896746
 C    2.0056110784    5.4276710232    1.2071545781
 C    1.8832225066    4.4616882475    0.0199249163
 H    0.5122697405    0.0285236718   -0.2218072016
 H   -0.4124291481    4.0642491140   -0.3594630926
 H   -0.1110350998    6.1030440135    1.3614741443
 H    0.2263692713    4.7540015971    2.4779969396
 H    2.2131633508    6.4518715625    0.8920710506
 H    2.7195502834    5.1318816993    1.9783680796
 H    2.4135013730    4.4688948028   -0.9241161545