14

 C    0.1347691332    1.5622487658    0.0390779675
 O    1.1679045981    0.5978291665   -0.1549857842
 C   -0.1573158159    0.1136268475    0.0512439657
 C   -0.3816375049   -0.6353640602    1.3003250072
 C    0.3873440316   -0.8067743081    2.4248846565
 N   -0.2594264616   -1.6001358049    3.3438385943
 C   -1.4067415502   -1.9107543496    2.7887600002
 N   -1.5332989736   -1.3565838341    1.5474398812
 H    0.1665601875    2.0956241450    0.9870897346
 H   -0.1185924774    2.1589206268   -0.8367124035
 H   -0.6260676205   -0.3067372884   -0.8416576835
 H    1.3752503333   -0.4136056687    2.6055841172
 H   -2.1796239360   -2.5264025636    3.2241310708
 H   -2.3225637335   -1.4473001239    0.9294201660