16

 C    0.0479152923    1.5113911014    0.3037698138
 O    0.4392749174    0.2263256336   -0.1222721939
 C    0.6800574214   -0.6591398853    0.9368408046
 C   -0.5255661217   -1.2783814195    1.7047059707
 C    0.2271431005   -2.6374787563    1.6624913067
 C    1.0971691210   -2.0772120992    0.5032174859
 H    0.8159300146    1.9809026166    0.9391851781
 H   -0.0919936685    2.1238386321   -0.5903241806
 H   -0.8967005032    1.4898457864    0.8680846145
 H    1.4056257346   -0.2223723910    1.6428886169
 H   -0.7947853669   -0.8655793665    2.6796772999
 H   -1.4096907058   -1.2899219581    1.0600670047
 H    0.8139778821   -2.8072878934    2.5693045921
 H   -0.3633609525   -3.5330046050    1.4608427036
 H    0.6594756198   -2.3029511502   -0.4731490453
 H    2.1625557646   -2.3159774955    0.4821902783