14

 O   -0.0815716922    0.0117884154    0.2184831473
 C   -0.0065992252    1.1658793140   -0.1050078840
 C    1.3091256666    1.9542650339   -0.0293060320
 C    1.3777160990    2.7849362520    1.3040585706
 C    2.3114714643    1.6610293100    1.8130603780
 N    2.4636081602    1.1640378841    0.4189949245
 C    1.4862746828    2.7024520288   -1.2771692208
 N    1.5862749487    3.3008845617   -2.2609441781
 H   -0.8842295351    1.7463417430   -0.4577960317
 H    1.8705455849    3.7456424359    1.1586621224
 H    0.4300830084    2.9330731538    1.8236252115
 H    3.2518465311    1.9797449797    2.2696778930
 H    1.8045717301    0.9598894576    2.4847864340
 H    2.3020330565    0.1666124300    0.3068376852