23

 C   -0.0469786713    1.4543265851   -0.3710866414
 C   -0.0205346891    0.0293335215   -0.0719811345
 C    0.0089422788   -1.1491066912    0.1736419085
 C    0.0143414450   -2.5796287397    0.4742726987
 C   -1.3547276127   -3.2219842015    0.2840976954
 C   -1.7948558346   -3.7437140462   -1.0630757549
 C   -1.5612709048   -4.7093315744    0.0798419695
 C   -0.3756642482   -5.6542179880    0.0041943895
 C   -2.7825677541   -5.3251989521    0.7391057280
 H    0.6956646802    1.7168956562   -1.1329683040
 H   -1.0282460315    1.7644804711   -0.7476837519
 H    0.1686086686    2.0548622436    0.5198627136
 H    0.7574855858   -3.0784015589   -0.1588029258
 H    0.3522794361   -2.7322255441    1.5088939743
 H   -2.1279799982   -2.7299763359    0.8686321351
 H   -2.8121472363   -3.5531203401   -1.3893966161
 H   -1.0639991678   -3.7272866205   -1.8663359703
 H    0.4788690566   -5.2153591246   -0.5168147635
 H   -0.0404092694   -5.9543920687    1.0045045372
 H   -0.6510680844   -6.5677576087   -0.5358930617
 H   -3.1163755139   -6.2166327045    0.1942971417
 H   -2.5651175399   -5.6302060811    1.7699509382
 H   -3.6197488250   -4.6209127775    0.7694916242