20

 C   -0.0493398851    1.6020147035   -0.0197931608
 C    0.0728220580    0.0795850601   -0.0019588873
 C   -1.3047203023   -0.5684152439    0.1964572472
 C    0.8343024646   -0.6312833433   -1.1185923054
 C    2.2886351275   -0.7071359583   -0.7906290025
 C    2.5251612073   -0.1194116018    0.5914135317
 O    2.8006026796    1.2446541408    0.8096800146
 C    1.1155290894   -0.6348821946    0.9076997434
 N    1.3272510026   -1.7185267130   -0.2077437996
 H    0.9076564535    2.0871369362   -0.2057706946
 H   -0.7612486834    1.9088262268   -0.7952214651
 H   -0.4340665791    1.9698813327    0.9383180741
 H   -1.9842611643   -0.2887152932   -0.6164006749
 H   -1.2343092653   -1.6592034359    0.2221350103
 H   -1.7558423586   -0.2286088543    1.1353466945
 H    0.4724719725   -0.8676280719   -2.1149301888
 H    3.0297006885   -1.0077874777   -1.5236305767
 H    3.2527857836   -0.7546197100    1.1141573418
 H    3.7526735373    1.3741262137    0.7679019128
 H    0.8480141938   -0.9454388559    1.9169807452