25

 C   -0.0575993225    1.6188118224   -0.1270843503
 C    0.0008448817    0.0916858653   -0.0224330737
 C   -1.3912518681   -0.5417794708    0.0852335568
 C   -1.4017900106   -2.0915369735    0.0878942760
 C   -0.7536440988   -2.6928043681    1.3582148262
 C   -0.6434150735   -4.2185773415    1.3280527109
 C   -2.7693723646   -2.5854958312   -0.0887013287
 C   -3.9052965903   -2.9671130110   -0.2159879246
 C   -5.2751022181   -3.4342408151   -0.3820839786
 H    0.9443947621    2.0522711060   -0.2049927805
 H   -0.6273870215    1.9338045039   -1.0083131160
 H   -0.5425293030    2.0572743341    0.7522077227
 H    0.5155259407   -0.3159319535   -0.9030753990
 H    0.6134935184   -0.1847914911    0.8435250033
 H   -1.8971009489   -0.1836485263    0.9915047289
 H   -2.0027122537   -0.1996314804   -0.7580408733
 H   -0.8063169544   -2.4258558232   -0.7762183440
 H    0.2453587080   -2.2602675035    1.4793555459
 H   -1.3414888288   -2.3782484180    2.2293818937
 H   -1.6289027835   -4.6811890711    1.2228067965
 H   -0.0260789430   -4.5532245366    0.4865306199
 H   -0.1852220854   -4.5970645912    2.2470927786
 H   -5.3164910602   -4.3421311525   -0.9944130510
 H   -5.7382116266   -3.6667966293    0.5834412534
 H   -5.8983559153   -2.6777275640   -0.8720873131