25

 C    0.0265123480    1.6287937615    0.0802647742
 C    0.0370476121    0.0981289423    0.0031635001
 C    0.7092988892   -0.4969914590   -1.2502409866
 O    2.0762103843   -0.0657475637   -1.1947598026
 C    0.6285096393   -2.0386303329   -1.2452293167
 C    1.1898274368   -2.7196547313    0.0078045670
 C    0.0696605632    0.0894844106   -2.5394151628
 C    0.6912500474   -0.3948836153   -3.8519461837
 O   -1.3224375008   -0.2217567484   -2.4864977284
 H    1.0285310174    2.0360072651   -0.0799072119
 H   -0.6496152040    2.0704943663   -0.6576942110
 H   -0.3159868532    1.9534585251    1.0678455906
 H    0.5774863047   -0.2901580220    0.8712759921
 H   -0.9866126877   -0.2834781424    0.0573547359
 H    2.5767463901   -0.5764687601   -1.8386578102
 H   -0.4146480593   -2.3283421665   -1.4071124762
 H    1.1832175334   -2.4101904431   -2.1175148994
 H    2.1920801422   -2.3462094240    0.2390508839
 H    0.5588219017   -2.5518827219    0.8847780872
 H    1.2573097598   -3.8014071625   -0.1438260323
 H    0.2176365322    1.1770182191   -2.4851256806
 H    0.5312627210   -1.4649908058   -4.0077445502
 H    0.2380923051    0.1373533810   -4.6964589693
 H    1.7648386067   -0.1832416636   -3.8869189267
 H   -1.7396465596    0.1381214617   -3.2750820923