20

 O   -0.0989054723    0.2683508942    0.7694222586
 C    0.3935618499    0.7157700193   -0.2366412812
 C    1.4766915837    1.7349239855   -0.2512040374
 N    2.2589696591    1.8078174951   -1.5081730349
 C    1.4016690575    2.9345378719   -1.1519869113
 C    0.2311630152    3.2515807530   -2.1012304937
 C    0.2698119479    4.7892408869   -2.2924440737
 C    1.6965172070    5.2026987100   -1.8854737988
 C    2.0012907674    4.2674239370   -0.7044442246
 H    0.0665010946    0.3934004568   -1.2497065351
 H    1.9817000305    1.8676492539    0.7033835994
 H    3.2332282291    2.0024553884   -1.2877294045
 H    0.3925893994    2.7210084554   -3.0435357172
 H   -0.7316624050    2.9209485299   -1.7026200128
 H    0.0118379283    5.0910232520   -3.3105505649
 H   -0.4529740133    5.2682499723   -1.6222642984
 H    2.3967284932    5.0061572053   -2.7062248115
 H    1.7790531107    6.2615935194   -1.6270438842
 H    1.4836910071    4.6259349204    0.1943021966
 H    3.0648071701    4.1857438333   -0.4580410705