17

 C   -0.0713154913    1.5947196264    0.1065967787
 C    1.4028611109    1.9778098500   -0.0370925894
 C    2.1137706365    0.8754678458    0.2664956866
 C    2.4448966571   -0.2002912800   -0.7561870217
 C    2.0422680157   -1.3477234863    0.1890129917
 O    1.1299655062   -1.9274332782   -0.7580824650
 C    0.9131387453   -0.5661685467   -1.2019106048
 C    0.0765662826    0.0384290279    0.0034933736
 C    1.2557285070   -0.2173844670    0.9636314738
 H   -0.5737241213    1.8670591568    1.0451391740
 H   -0.6506002533    2.0502021659   -0.7048189244
 H    1.7224724630    2.7342160495   -0.7477804251
 H    3.2209251024   -0.2373941585   -1.5181591398
 H    2.6945674679   -2.0517349776    0.7018077256
 H    0.5455646449   -0.4861375829   -2.2255697702
 H   -0.8472115298   -0.5321484502    0.1397106648
 H    1.0913035261   -0.2332344049    2.0392164116