18

 O   -0.0922125210    0.9940143428   -0.5094418017
 C   -0.2994069222   -0.3454632765   -0.1543945597
 C   -0.4662810737   -0.6470918884    1.3142296160
 O   -0.4263579593    0.4725947631    2.1661082922
 C   -1.6599823264   -0.7438083820    0.3920382223
 C   -2.7704703862    0.2936534612    0.4312777019
 N   -3.0685480197    0.8116062539   -0.8958015472
 C   -4.2681883579    0.6510830361   -1.5066248117
 O   -5.2406703188    0.1063952434   -1.0235648398
 H   -0.0428051310    1.4861563832    0.3231805591
 H    0.2419418691   -1.0295367192   -0.8002409400
 H   -0.0628351508   -1.5618977833    1.7414917828
 H    0.4604991203    0.5284629202    2.5382216076
 H   -1.9831630769   -1.7542507595    0.1595267829
 H   -3.6946697826   -0.1471363054    0.8086801789
 H   -2.4995480955    1.1153772614    1.0995935990
 H   -2.3038932055    1.2402423213   -1.3951371422
 H   -4.2684464219    1.0892580277   -2.5250465606