17

 C   -0.1578101540    1.4755767680    0.1453939607
 N    0.0264089707    0.0415917628    0.1710076819
 C   -0.9931608565   -0.6765034784   -0.0090155795
 N   -0.9955141186   -2.0700952399   -0.0081759264
 C   -2.2131607702   -2.8260017227   -0.2601933136
 C   -1.7457558630   -4.2473280159    0.0855372475
 O   -0.3232210273   -4.2041051518   -0.0395829056
 C    0.1250164951   -2.9103996806    0.0206062198
 O    1.2793762448   -2.6209014117    0.0722436119
 H    0.4719177489    1.9104163922   -0.6390522638
 H   -1.2006355728    1.7911544703   -0.0292116712
 H    0.1802496640    1.9039872505    1.0957984656
 H   -2.0051913217   -0.2756353584   -0.1752742683
 H   -3.0373113184   -2.4945135196    0.3772255221
 H   -2.5280877182   -2.7403533081   -1.3084227862
 H   -2.0058420233   -4.5207675320    1.1143920576
 H   -2.1349346092   -5.0060873947   -0.5952240426