20

 C    0.1817700784    0.5891690778    0.5952249008
 O   -0.2500545680   -0.0867337863   -0.5771449240
 C    0.6588979470   -0.9236292134   -1.1276037336
 N    0.3727563021   -1.5334195066   -2.1899782292
 C    1.3243863111   -2.4477072579   -2.7973993453
 C    2.5130100848   -2.9233941873   -1.9828285152
 O    3.4222320250   -1.8663288035   -1.7694515001
 C    2.3134982384   -3.9612570682   -0.9087503017
 C    3.0378448216   -4.3159384063   -2.1987969028
 H    0.4577956411   -0.1151599975    1.3903227769
 H    1.0334406654    1.2498213711    0.3906976579
 H   -0.6625429334    1.1918487199    0.9329273417
 H    1.6052348749   -0.9903753664   -0.5805345396
 H    0.7625401507   -3.3329596406   -3.1187238723
 H    1.7033393579   -1.9818097807   -3.7172570792
 H    4.2161303329   -2.2185880486   -1.3549799384
 H    2.9111343965   -3.8749835469   -0.0063272529
 H    1.3180816437   -4.3603046784   -0.7450860464
 H    2.5423559597   -4.9627875976   -2.9151573189
 H    4.1136087400   -4.4583732327   -2.1483298476