20

 C   -0.1930935129    1.4859628315    0.0968126871
 C   -0.0387962735   -0.0216962821    0.0642084115
 O   -1.3643379765   -0.5972082697    0.0481930961
 C   -1.4272473011   -1.9373902649    0.0148329946
 O   -0.4623177681   -2.6632004656   -0.0131405761
 C   -2.8695542417   -2.4283947688    0.0658860462
 N   -3.0002928093   -3.8439085016   -0.2763410545
 C   -3.4519454453   -2.2250956147    1.4860764984
 O   -4.7519034212   -2.7518973260    1.5510879161
 H    0.7934705274    1.9584582145    0.1113083108
 H   -0.7332618745    1.8428310876   -0.7844944414
 H   -0.7406104086    1.8037996162    0.9884334860
 H    0.5014052416   -0.3616794825   -0.8246804126
 H    0.4980037552   -0.4005761051    0.9393422809
 H   -3.4757698246   -1.8324205508   -0.6226803385
 H   -3.0286926789   -3.9628636659   -1.2833551682
 H   -2.1597464668   -4.3251837615    0.0376254174
 H   -2.7769892993   -2.7069813651    2.2156236222
 H   -3.4996946768   -1.1590460033    1.7244269751
 H   -4.6922550152   -3.5944580323    1.0742361589