17

 O    0.2232553450    1.4420909195   -0.1601321205
 C    0.0690812582    0.0649187398   -0.0730471792
 C   -1.3461561796   -0.6343739612    0.0053173052
 C   -0.6419643143   -1.7699739822    0.8114643987
 O    0.0594590469   -2.6898581999   -0.0148407932
 C    0.4773734372   -2.1324981036   -1.2631025262
 C    0.9037400693   -0.6550661387   -1.1538811366
 C    0.3120038338   -0.6372031285    1.2649720386
 O    0.7886529297   -0.2593766264    2.2980644648
 H    0.2817301571    1.7861283458    0.7402665367
 H   -2.0398768122   -0.0765352538    0.6387209577
 H   -1.8274307919   -0.8997061487   -0.9363171934
 H   -1.1976680820   -2.3351562126    1.5588977304
 H    1.3035666231   -2.7581629102   -1.6098791598
 H   -0.3351291802   -2.2317511170   -1.9953538655
 H    0.7444210065   -0.1473290686   -2.1116215768
 H    1.9644153432   -0.5553740935   -0.9032812409