18

 C    0.0636238686    1.5663693564    0.2043617946
 C    0.0285266861    0.0427426334    0.0705142791
 C    0.7540397271   -0.7028366163    1.2036007994
 C    0.5723238866   -2.2213344065    1.0972391792
 N    2.1744633096   -0.3576218156    1.2372004464
 C    2.7964799615    0.1963776435    2.3118840310
 O    2.2628115375    0.4993038565    3.3584485672
 H    1.0913513877    1.9412573718    0.2010335481
 H   -0.4718077681    2.0450028172   -0.6210614302
 H   -0.4019605404    1.8901917552    1.1409837350
 H   -1.0117513168   -0.3039962299    0.0514470373
 H    0.4648269821   -0.2609984023   -0.8920593969
 H    0.3637947358   -0.3592100687    2.1660433405
 H    1.0760169763   -2.7316872939    1.9225342997
 H   -0.4891336593   -2.4862440541    1.1245881856
 H    0.9858948846   -2.6031745694    0.1558717156
 H    2.7398111071   -0.5861996177    0.4333427306
 H    3.8782812640    0.3494133703    2.1217506977