16

 N   -0.0191359093    1.3862948181   -0.0020213306
 C   -0.0795159406   -0.0037733873   -0.0337353006
 C   -1.1451391523   -0.8483488499   -0.0298466467
 N   -2.5090884181   -0.5334187268   -0.0596642578
 C   -0.6100840295   -2.1834462696   -0.0757302334
 O   -1.3153284584   -3.3650235330   -0.0067148132
 C    0.7458989140   -2.0600463060   -0.1133049336
 N    1.7639984279   -3.0010833345   -0.2301333644
 O    1.1029861811   -0.7577166689   -0.0972264048
 H    0.4856754020    1.7477711681    0.8018084405
 H    0.3905593083    1.7928938459   -0.8382149413
 H   -2.6574258480    0.4491877534    0.1392161559
 H   -3.0415684541   -1.0987345067    0.5920248218
 H   -1.8654239418   -3.4360302115   -0.7955449043
 H    1.3950560497   -3.9333949424   -0.0867488765
 H    2.5269484989   -2.8312549088    0.4163406089