17

 O   -0.0153056452    0.0361783326    0.2716157382
 C    0.0251762981    1.2051529788    0.0215195916
 O   -1.1077242133    1.9328261048   -0.2461277449
 C   -0.7821166493    3.2199172638   -0.7636526048
 C   -1.5091074095    3.6484364811   -2.0007785757
 C   -1.8434839852    4.2661829173   -0.6512462043
 C    0.6866798135    3.4442633837   -0.5409033837
 C    1.1529627452    3.3116290623    0.8766270555
 C    1.2116128730    2.1121278362   -0.0551376944
 H   -0.9732761883    4.2474662219   -2.7297567218
 H   -2.2225198084    2.9470184665   -2.4175413670
 H   -2.7778201489    3.9705231876   -0.1881980826
 H   -1.5362966322    5.2873592199   -0.4531740780
 H    1.2337846513    4.0567321781   -1.2464618521
 H    2.1082328163    3.7546978540    1.1329904655
 H    0.4186268194    3.3152968262    1.6752459104
 H    2.1638619635    1.6804171353   -0.3296675918