16

 C    0.1110662871    1.4937675838    0.2245447976
 O    1.5215237974    1.4314735640   -0.1462765088
 C    1.3092238872    0.2290996342   -0.9323296475
 C    1.4838710867   -1.1768585919   -0.3313437993
 O    0.6976750234   -0.7567507732    0.8171524392
 C   -0.0346355512    0.0439938658   -0.2065630995
 C   -0.8020649367   -1.0475915091   -0.9400909350
 N   -0.2345286575   -1.2913016097   -2.2896797548
 C    0.3630885347   -1.9662325903   -1.1118983331
 H   -0.0332209256    1.6971358788    1.2884311719
 H   -0.4303138237    2.2207517797   -0.3933047560
 H    1.4446190578    0.4007290530   -1.9962812157
 H    2.4100311546   -1.7002790873   -0.0894222069
 H   -1.7966240878   -1.3831560419   -0.6752147055
 H   -0.8246605140   -1.9614070353   -2.7806456917
 H    0.2849331077   -3.0407545106   -0.9979218850