17

 O   -0.0167544929    1.3798557229   -0.2337085105
 C    0.0278899908    0.0021276252    0.1105293966
 C   -1.3899552528   -0.5232362363   -0.0019129479
 C   -2.0477359856   -0.6099101316   -1.4255796437
 C   -2.2363517823   -2.1154158642   -1.2194088414
 N   -0.8961743528   -2.6861277476   -1.0169522270
 C   -1.5922345981   -2.0452955701    0.1380887755
 C   -1.8864721952   -2.7801219565    1.3218435437
 N   -2.1236202795   -3.3642575394    2.2933766866
 H    0.8845216278    1.7138893377   -0.2577424657
 H    0.6810581733   -0.5660286613   -0.5649143222
 H    0.3945248364   -0.1445797647    1.1396358711
 H   -2.0427034552    0.0160953686    0.6881402963
 H   -2.9860388233   -0.0573865036   -1.4845415001
 H   -1.4063748177   -0.3400604890   -2.2663309180
 H   -3.0650003470   -2.7384723622   -1.5318218027
 H   -0.9962828558   -3.6954895679   -0.9071771104