19

 C   -0.1573872550   -1.2051959164    0.3054577901
 C   -0.1044660844   -0.0204758356    0.1101786843
 C   -0.0119125043    1.4186908919   -0.1358767699
 C    1.3981192980    1.9324297191   -0.1073620623
 C    2.3653557453    2.2095871056    1.0170531676
 C    3.4588304957    1.3704489313    0.3612107695
 C    2.6955532893    1.6101318376   -0.9703080186
 C    2.8435811640    3.1357768884   -1.2239691723
 C    1.9773385190    3.3212122701    0.0196019727
 H   -0.2137836287   -2.2506553252    0.4813647011
 H   -0.4804586411    1.6490099064   -1.1030734458
 H   -0.6021438677    1.9568904710    0.6183128518
 H    2.1350831939    2.3117358585    2.0704492220
 H    4.4989130628    1.7139466723    0.4131297288
 H    3.3964987612    0.3264733614    0.6787765881
 H    2.7612151039    0.8963381611   -1.7887764462
 H    3.8598677089    3.5474144790   -1.2304770479
 H    2.3146854769    3.4522329767   -2.1275573892
 H    1.4736738120    4.2170151567    0.3622104262