19

 C    0.0157934332    1.5758087747    0.2485909198
 C    0.0647763183    0.0747365959   -0.0605588824
 O    0.7984344295   -0.6270772896    0.9279322345
 C   -1.3248449092   -0.5219704373   -0.1888561448
 O   -1.9099893721   -0.9052837010    1.0939032424
 C   -1.6581434892   -1.9255087714    0.1098010127
 C   -2.8826572364   -2.3146517236   -0.7077971812
 C   -3.2255140660   -1.0289237006   -1.4341124016
 C   -2.3571780698   -0.0507583231   -1.1657361408
 H    1.0314996961    1.9490943191    0.4002668153
 H   -0.4428989773    2.1439479037   -0.5672382521
 H   -0.5612559686    1.7596031171    1.1611540215
 H    0.5988879854   -0.0831462682   -1.0062457769
 H    0.1888468985   -0.7308682451    1.6722699285
 H   -0.9082128050   -2.6577679037    0.3907513112
 H   -2.6512376080   -3.1308503271   -1.4040504864
 H   -3.7039396527   -2.6633169064   -0.0701708564
 H   -4.1026431842   -0.9330163183   -2.0642057910
 H   -2.3919237223    0.9558923649   -1.5621704722