18

 O    0.2822038963    0.1190443857    0.2602558413
 C    0.3882674947    1.2988508858    0.4111059498
 O    0.6617525608    2.1436772293   -0.5981991545
 C    0.8096973685    3.5376812473   -0.2936097212
 C    2.2706963002    3.9627670684   -0.4133655145
 C    2.4466567207    5.4497726640   -0.1926920373
 C    2.5641052583    6.0083519436    1.2064509198
 C    3.7625919007    6.0015885527    0.2905114206
 H    0.2673606383    1.8181987758    1.3831880703
 H    0.1844769602    4.0779668866   -1.0112955984
 H    0.4241131565    3.7468660007    0.7124518643
 H    2.8661979644    3.4036089619    0.3192946837
 H    2.6399867779    3.6732597715   -1.4043167263
 H    1.9095046165    6.0732583523   -0.9038177983
 H    2.0884615413    6.9569193906    1.4289151691
 H    2.5602262299    5.3065915235    2.0346698650
 H    4.5591128379    5.2962944687    0.5038406599
 H    4.1050373571    6.9458118518   -0.1175927034