22

 C   -0.0792197506    1.7810125483    0.6274837721
 C   -0.3470692995    0.2966542036    0.6698870724
 O    0.2503564927   -0.5236497855   -0.3382029244
 C    0.6391836563   -0.7458245922    1.0327266377
 C    2.0820343267   -0.3991534995    1.3473778014
 C    0.1820991941   -2.0806190650    1.5961220127
 C    0.6337016562   -3.2789878819    0.7833904771
 C    0.0352134609   -2.1993563471    3.0712238582
 N   -1.1533591956   -2.2410609048    2.2004468323
 H    0.9770637291    2.0095436937    0.4793289570
 H   -0.6420782406    2.2353552170   -0.1945772276
 H   -0.4114163530    2.2528141405    1.5587780635
 H   -1.4000415757    0.0576165225    0.8348448288
 H    2.4173274962    0.4649940091    0.7726475568
 H    2.2113527611   -0.1882105107    2.4135475438
 H    2.7365779046   -1.2386789079    1.0937653278
 H    1.7254858741   -3.3619228866    0.7593772459
 H    0.2258495358   -4.1956777187    1.2148479492
 H    0.2759987240   -3.1875383447   -0.2459630889
 H    0.2794577977   -3.1349068261    3.5679510502
 H    0.1976140264   -1.3123689771    3.6793706128
 H   -1.6374396011   -1.3493606168    2.2532711715