19

 O   -0.1551658490    1.4022575031    0.0883243375
 C    0.0209963225   -0.0086024446   -0.0352056528
 C    0.7946928244   -0.3766823936   -1.3180888591
 C    0.0550076095    0.0799287496   -2.5632797582
 C    0.5528073363   -0.4354961774   -3.9323263010
 C   -0.8539268921   -1.0552813547   -4.0497878253
 O   -1.2096388712   -0.6153468514   -2.7227482561
 C    0.6604073283   -0.5769495023    1.1534754421
 C    1.2286492957   -1.0125386586    2.1194734991
 H    0.6820857722    1.7717384624    0.3905570753
 H   -0.9933874717   -0.4122461383   -0.1318937595
 H    1.7897646344    0.0866347313   -1.2859064061
 H    0.9368199968   -1.4627540774   -1.3514370935
 H   -0.1076963729    1.1634883305   -2.5194376973
 H    0.8045843052    0.3288943950   -4.6686302971
 H    1.3689995272   -1.1587035951   -3.8712436632
 H   -1.4990138603   -0.6040046929   -4.8141885733
 H   -0.9016499650   -2.1462099310   -4.1478832433
 H    1.7078641198   -1.4050726847    2.9822199318