18

 C   -0.4610706301    1.3760349887   -0.0333373035
 C   -0.0838714227   -0.0977287794    0.0313117435
 C    0.8993227630   -0.5008381657   -1.0680844022
 C    1.0215741759   -2.0022457844   -1.3202597748
 O    1.4069020453   -2.4244977991   -2.3827447366
 C    0.6146999259   -2.9538318045   -0.1913620510
 N    1.0484161689   -2.6228355928    1.1531673069
 C    0.9657444004   -1.4999294861    1.7205823227
 O    0.4902937323   -0.2895403491    1.3405160779
 H    0.4337903140    2.0034329234    0.0193928555
 H   -0.9847844872    1.5930802330   -0.9684077009
 H   -1.1151267386    1.6368914833    0.8022079414
 H   -0.9965163458   -0.7041871377   -0.0348812902
 H    0.6244870106   -0.0402990841   -2.0217589175
 H    1.8931262055   -0.1118323039   -0.8091566438
 H   -0.4814781338   -3.0513933289   -0.2276777014
 H    1.0137991955   -3.9362371046   -0.4559458853
 H    1.3386368708   -1.4023548082    2.7405541393