14

 O   -0.6232635999    0.8227751150   -0.6023972445
 C    0.2068805199    0.9893197617    0.2530470470
 C    1.4027757610    1.9190711505    0.1290511367
 C    1.4547032211    2.7428387824   -1.1621166347
 C    1.3873256299    4.1725878002   -0.6877868189
 C    1.3297376153    4.2929721153    0.6441615496
 C    1.3511896954    2.9622680475    1.2844386280
 O    1.3220364035    2.6917804334    2.4606425179
 H    0.1481099037    0.4748026965    1.2340285369
 H    2.2960353267    1.3058225478    0.2988284875
 H    2.3678005359    2.5631726113   -1.7409602744
 H    0.6116369646    2.4965298145   -1.8170679523
 H    1.3852749241    5.0021418819   -1.3868856793
 H    1.2742115390    5.2075665720    1.2197253404