14

 O   -0.1050409471    1.3677653779    0.0303189956
 C    0.0158945756    0.0152056486    0.0247303610
 C    0.9268741769   -1.0073766392    0.7807026633
 C   -0.1855765656   -1.9925800859    0.7701520450
 C   -1.1096497481   -0.9988397223    0.0305605281
 C   -0.0812249723   -1.0034826692   -1.1115110849
 C   -0.2076969089   -0.8655486743   -2.5060042883
 C   -0.3036658939   -0.7250190341   -3.6988279814
 N    0.8173797620   -1.9946505269   -0.3517854329
 H    0.6070920299    1.7489739186   -0.4981056202
 H    1.8204309692   -0.9230413538    1.3875968880
 H   -0.3807913043   -2.8690843493    1.3760080076
 H   -2.1773072350   -0.8422441992   -0.0141851915
 H   -0.3966016385   -0.6129857507   -4.7505809594