23

 C    0.0788101202    1.5893502784    0.1802424099
 C   -0.0060163784    0.0715041760    0.0007869048
 C    0.6337907557   -0.4686459653   -1.3144301353
 N    0.0240618640    0.0748899310   -2.5429355906
 C    2.0522340905   -0.0525621607   -1.3115556465
 N    3.1552568114    0.2899788224   -1.2688724520
 C    0.5858047628   -2.0362693518   -1.3611776815
 C   -0.8527146724   -2.5688594114   -1.4490503712
 C    1.4269917131   -2.6032660437   -2.5129816257
 H    1.1175034072    1.9313412117    0.2095134188
 H   -0.4309138786    2.1200365342   -0.6305710134
 H   -0.4000172914    1.8878197904    1.1170900655
 H    0.4713080110   -0.4277645762    0.8520876351
 H   -1.0569798604   -0.2364454201    0.0045165649
 H   -0.9869330704    0.0114827812   -2.4668109561
 H    0.2477828470    1.0595992547   -2.6425723694
 H    1.0190115457   -2.3792918476   -0.4130927093
 H   -1.3302644092   -2.2663000415   -2.3869333091
 H   -0.8369716397   -3.6626513241   -1.4357476303
 H   -1.4829541624   -2.2443908506   -0.6168520937
 H    2.4796323349   -2.3238974024   -2.4210077782
 H    1.3681575274   -3.6959567099   -2.5187135712
 H    1.0598396418   -2.2310105046   -3.4730780857