21

 C   -0.1671501387    1.5166994119    0.0092963267
 C    0.0940310019    0.0330480513   -0.0115182936
 C    0.3813905199   -0.6290620987   -1.3642962256
 C    1.2791684136   -1.8096641322   -1.0205324993
 N    2.5888425844   -1.3998940341   -0.4540077908
 C    1.5070280852   -1.8702944686    0.4399666118
 C    0.7775196780   -0.7208078867    1.0815858702
 C    1.3418169341   -0.1203616172    2.3416997206
 N   -0.6865222114   -0.8694564920    0.8800201181
 H    0.6629751404    2.0650931775   -0.4489587391
 H   -1.0752685225    1.7572752787   -0.5564137262
 H   -0.3019476393    1.8971880669    1.0263213522
 H   -0.5486587073   -0.9622113930   -1.8371942441
 H    0.8851658916    0.0656821960   -2.0452492550
 H    1.2371340917   -2.7129593197   -1.6196721263
 H    3.2564634707   -2.1555251568   -0.5909969284
 H    1.6162567949   -2.8111662262    0.9719489172
 H    2.3957824365    0.1383589089    2.1967974832
 H    0.8067069884    0.7850902916    2.6425597081
 H    1.2815446406   -0.8327151594    3.1732406984
 H   -1.1663737228   -0.2984604480    1.5750491920