17

 O    0.2339084134    1.4123788773   -0.0267220745
 C    0.0534138305    0.0106722445    0.0562224667
 C    0.6004786627   -0.7035020407   -1.2013608230
 C    0.0487375334   -0.1220840912   -2.4177204398
 C   -0.4288880088    0.4244507659   -3.3774328670
 C    0.8363557884   -0.4312748356    1.3123779453
 O    2.1813179663    0.0072436204    1.2228242955
 C    0.1755144165    0.0348094475    2.5375242387
 C   -0.3640563322    0.4123222477    3.5424551178
 H   -0.0377394942    1.6910400695   -0.9102747221
 H   -1.0088086536   -0.2416333525    0.1844591858
 H    1.6924863990   -0.6136493182   -1.1976972447
 H    0.3596737263   -1.7720738516   -1.1470048700
 H   -0.8393200490    0.8731538168   -4.2483421956
 H    0.8766166026   -1.5271660570    1.3278553105
 H    2.1266404813    0.9521101415    1.0234716445
 H   -0.8367114826    0.7477569556    4.4324241917