16

 C   -0.0633617821    1.4519351962   -0.1312434144
 N    0.0101635904    0.0064815342    0.0226762915
 C   -1.2554620953   -0.6693220493    0.2058271436
 C   -1.1741862112   -2.1467483084    0.3623235391
 C   -0.0266804244   -2.8283210925    0.3395604440
 C    1.2584035221   -2.1425998387    0.1536739363
 O    2.3173429999   -2.7259499998    0.1274221171
 C    1.2421409150   -0.6048779745   -0.0148731911
 O    2.2807654069    0.0021152726   -0.1706578883
 H    0.9497764202    1.8285121504   -0.2594518840
 H   -0.6680903732    1.7169029331   -1.0071473882
 H   -0.5176320174    1.9122139460    0.7547041240
 H   -1.7718959843   -0.2489410360    1.0858826230
 H   -1.9201586378   -0.4402602032   -0.6448209918
 H   -2.1260177053   -2.6524720768    0.4997548452
 H    0.0130984265   -3.9065307833    0.4554623339