17

 C   -0.0636260086    1.5072435422    0.0349727142
 C   -0.0117674703   -0.0098587972   -0.0439725311
 O   -1.2698014451   -0.5571089166   -0.3304096895
 C    1.2257791918   -0.6592383688   -0.7023817455
 O    2.0588759699   -0.1339651447    0.4508619169
 C    0.8171196252   -0.7610321920    1.0584991846
 C    0.1049449483   -1.7026931618    2.0518679190
 O   -0.0950547762   -2.6038693040    0.8957822913
 C    1.0383981732   -1.9483776501    0.2148644888
 H    0.9071058422    1.9251810695    0.2972726498
 H   -0.3680288054    1.9242713986   -0.9336605602
 H   -0.8033235501    1.8159005431    0.7810179392
 H   -1.7702730789    0.0981350015   -0.8261773601
 H    1.6862925057   -0.5219536793   -1.6856382185
 H    0.7348641058   -2.1679528635    2.8169944869
 H   -0.8466323807   -1.3577688014    2.4638740562
 H    1.9544025533   -2.5286455055    0.3361697882