23

 C   -0.2617958056    1.3451112783    0.1432233517
 O    0.2777340537    0.0636882267   -0.0930891594
 C    0.7775103695   -0.5619856782    1.0570268517
 C   -0.1502338439   -1.4776093416    1.9313441857
 C   -1.3168279446   -1.0829103018    2.7982506208
 C   -0.1518939730   -2.4695684859    0.7259770549
 C    1.3321447894   -1.9916960802    0.8452256868
 C    2.4984707383   -2.3853455584   -0.0199147750
 C    1.1711891348   -2.1655006980    2.3856886166
 H    0.4762810619    2.0140462842    0.6130315701
 H   -0.5459541007    1.7619251648   -0.8262459319
 H   -1.1520258050    1.3108680864    0.7875670468
 H    1.4237328665    0.1305195721    1.6205533302
 H   -2.1222710265   -0.6401568369    2.2021406478
 H   -1.7320237077   -1.9535519556    3.3186445090
 H   -1.0184124594   -0.3518968592    3.5583805410
 H   -0.3390788656   -3.5204264164    0.9685151468
 H   -0.6943979492   -2.1552421597   -0.1661760666
 H    2.3318259734   -2.0737232723   -1.0563563190
 H    3.4251993338   -1.9151045479    0.3278467004
 H    2.6490940746   -3.4702690627   -0.0124040758
 H    1.8443912265   -1.5835289440    3.0248290455
 H    1.0737273086   -3.1940803636    2.7429219920