22

 C    0.3794543786    1.4060649731   -0.3758947649
 C    0.1228985582   -0.0299861456    0.0336761508
 O    0.8693061802   -0.9815314825   -0.7726079229
 C    1.3584550416   -1.6739233278    0.3982045084
 C    2.8570476398   -1.8573478182    0.3633827939
 C    3.5233028202   -2.2149676023   -0.9108679568
 N    3.7055028590   -0.8726236696   -0.3209072910
 C    0.7296694308   -0.6088180153    1.3441349256
 C    1.6688583828    0.2629323844    2.1702856407
 H    1.4334362464    1.6788109111   -0.2749274859
 H    0.0877330202    1.5493804079   -1.4211806351
 H   -0.2150983968    2.0916403088    0.2375210449
 H   -0.9517525534   -0.2447083472   -0.0497395822
 H    0.8788513593   -2.6589417093    0.4978158544
 H    3.2756387204   -2.2402748516    1.2928395748
 H    4.4063587379   -2.8472945999   -0.9059036269
 H    2.8986025719   -2.2962424784   -1.7959069088
 H    3.0835027272   -0.2423145544   -0.8259843119
 H   -0.0362949555   -1.0337374278    1.9982120940
 H    2.5031545737    0.6543715006    1.5836997920
 H    1.1286031327    1.1091780483    2.6076021039
 H    2.0957404449   -0.3143285943    2.9970328629