15

 N   -0.0473881779   -1.2219177366   -0.0844450088
 C   -0.0170641032   -0.0685097651   -0.0131515543
 C    0.0250722910    1.3847702494    0.0700478959
 C   -0.1910194449    2.1020610003    1.3962012937
 C    1.0473840104    2.2247907378    2.2464693435
 C    2.2103438000    1.3316186984    1.9930356487
 C    2.4727540253    1.3434638509    0.6854037073
 C    1.4049257627    2.1625443722    0.0123083616
 N    0.8698393410    3.1214111786    1.0811847451
 H   -0.6524731853    1.8106210706   -0.6737621776
 H   -1.1688631435    2.3783713012    1.7773536472
 H    0.9075830501    2.6958320618    3.2142905778
 H    2.7155068925    0.7669423292    2.7645088049
 H    3.2096563082    0.7560556211    0.1547359992
 H    1.6438581833    2.6341503302   -0.9384220041