16

 O   -0.0126588281    1.3356407330    0.1520139641
 C    0.0910029329   -0.0334447660    0.1126276644
 C    0.7961695568   -0.9975616658    1.0906986642
 C    0.0894321797   -1.9071533087    0.0642789245
 C   -1.1542435143   -0.9592233759   -0.0399300498
 C   -1.0851061490   -0.9563981287   -1.5904203612
 C   -1.5982987214    0.1872067793   -2.3296434557
 N   -2.0123477936    1.0729918482   -2.9468373615
 C    0.3973786054   -0.9537543142   -1.1356201049
 H    0.8506329160    1.7261114496   -0.0229333648
 H    1.8908518629   -1.0065696802    1.0797789322
 H    0.4141577865   -1.0216864417    2.1154339219
 H    0.0615801044   -2.9926607117    0.0127721518
 H   -2.0387860255   -0.9671512689    0.5958321002
 H   -1.4206695757   -1.8818426876   -2.0689026875
 H    1.2925192930   -0.9529309007   -1.7578424080