17

 O    0.1494418814    1.4130070916    0.0083571416
 C    0.0944571564    0.0062766773   -0.1054427454
 C   -1.3335017194   -0.5264976426    0.0122068618
 C   -1.5951365674   -2.0458006748   -0.0950371681
 N   -0.8928948264   -2.6814715592    1.0352008173
 C   -2.2502030844   -2.0782150596    1.2531399909
 C   -2.0063173612   -0.6144183088    1.3974247943
 N   -2.3712555118    0.1845588424    2.3077429827
 O   -1.9566733215    1.5080449879    2.0138051074
 H   -0.3439083569    1.6570443058    0.8034557175
 H    0.4852964430   -0.2406707175   -1.1000133285
 H    0.7317832124   -0.4987816563    0.6333868520
 H   -1.9893691297    0.0368328432   -0.6621001933
 H   -1.8528836423   -2.5999683611   -0.9880081687
 H   -1.0420053325   -3.6882967509    0.9581167532
 H   -3.0714196477   -2.6698051201    1.6334381058
 H   -2.2557886621    1.9973975825    2.7874508192