19

 C    0.3862937692    1.6047826976    0.0322046079
 C   -0.0110133855    0.1525704723    0.1923037914
 O    0.5072440258   -0.6967385003   -0.8688301016
 C    1.2514025500   -1.5022186167    0.0620011646
 C    0.7533375585   -0.6795268565    1.2535858644
 O    1.7376288554   -0.0202778687    2.0670253925
 C    1.0142412768   -0.3196329050    3.2812181267
 C    0.0514077280   -1.2436952115    2.5009593209
 O   -1.3254135015   -0.9718618802    2.5461629426
 H    1.4724559227    1.7207447610    0.0542696091
 H    0.0071759825    1.9864009711   -0.9206251039
 H   -0.0418819640    2.2082989380    0.8393499366
 H   -1.0987457977    0.0437309307    0.2711750812
 H    0.9417486285   -2.5558491860    0.0479585007
 H    2.3357492203   -1.4382502309   -0.0933079224
 H    1.6595575215   -0.7748142387    4.0403258118
 H    0.5130514427    0.5641899431    3.6950828878
 H    0.2615092352   -2.3101836084    2.6546712582
 H   -1.7109713186   -1.4380451911    3.2938529815