21

 C   -0.2879238726    1.4868866947   -0.1202976450
 C   -0.0054829492   -0.0140744801    0.0840124007
 C    0.9581941303   -0.2360539845    1.2679419073
 O   -1.2154382267   -0.7774817243    0.2613783506
 C   -2.0616991740   -0.4108457498    1.3092244633
 C   -3.2335580027    0.5036007852    1.0471666250
 C   -3.4408128603   -0.9845551836    1.2407586013
 C    0.6011152162   -0.5623647822   -1.1371286151
 C    1.1291623033   -0.9820214294   -2.1308767552
 H    0.6458472746    2.0116760512   -0.3382423261
 H   -0.9718382425    1.6343073812   -0.9589139447
 H   -0.7301005156    1.9227071828    0.7789095353
 H    0.5670460532    0.2180977200    2.1827854944
 H    1.1032758477   -1.3058842578    1.4337912711
 H    1.9281233932    0.2196449932    1.0533698996
 H   -1.5916144556   -0.3585253026    2.2893091310
 H   -3.5489450493    1.1858376739    1.8296919644
 H   -3.3424186549    0.8844185741    0.0386031634
 H   -3.6705905495   -1.5686027242    0.3570191037
 H   -3.9002170190   -1.3402717093    2.1559226376
 H    1.5859158334   -1.3621862285   -3.0110324026