17

 O    0.0593778783    1.3562519262   -0.3090033993
 C    0.0701936111    0.0394539095    0.2075104220
 C   -1.3213457178   -0.5696135044    0.0982136727
 N   -1.8658456082   -0.5471308917   -1.3086409467
 C   -2.1940240354   -1.9786273623   -1.2108543740
 C   -0.9460976752   -2.7707135348   -1.0792517637
 C   -1.5102079149   -2.1004059610    0.1690603279
 C   -1.8836007220   -2.8283443970    1.3314149665
 N   -2.1957824069   -3.4091789631    2.2838335970
 H   -0.2328864893    1.2747116898   -1.2258065224
 H    0.8047137293   -0.5922613222   -0.3136732830
 H    0.3733407773    0.1064642327    1.2574050528
 H   -2.0047962367   -0.0708247481    0.7910090703
 H   -2.7086195453    0.0156156588   -1.3474437990
 H   -3.1417051696   -2.3845467608   -1.5416169527
 H   -1.0660582068   -3.8484042674   -1.0831785215
 H   -0.0264625879   -2.4017913842   -1.5214703269