16

 C    0.4041100399    1.5817560035    0.1587177327
 C    1.2194272880    0.4159366164   -0.3301870551
 C   -0.2270976597    0.2134705223    0.0917649865
 C   -0.5559182227   -0.5071044602    1.3359078923
 C   -0.9212726037   -0.0965805314    2.5946245064
 N   -1.1412033058   -1.1701669657    3.4279705777
 C   -0.9176899848   -2.2295585691    2.6868749491
 N   -0.5622938061   -1.8891169781    1.4151228070
 H    0.6353714593    1.9788413171    1.1400556067
 H    0.0779395142    2.3240247430   -0.5604555453
 H    1.4522165742    0.3535468676   -1.3874709031
 H    1.9903676521    0.0301989182    0.3272433762
 H   -0.9266693173    0.0633887878   -0.7284038189
 H   -1.0432446954    0.9182509257    2.9419413017
 H   -0.9961951542   -3.2578736579    3.0077804914
 H   -0.3199245479   -2.5191544592    0.6686469849