18

 C   -0.0390317504    1.4331850974   -0.0214397836
 N   -0.0113229145   -0.0182780746   -0.0223503296
 C    0.5733793408   -0.6296326182    0.9521665159
 C    1.2385550451   -0.0099693193    2.1045056306
 N    1.8234135146   -0.6394513632    3.0790483749
 N    1.8151149363   -1.9779453522    3.0208689681
 C    1.2350318948   -2.6983066172    2.0098280771
 C    0.6136792862   -2.0901095789    0.9724983836
 C   -0.0278761576   -2.8514904688   -0.1443541997
 H    0.9667073368    1.8820145317   -0.0445793460
 H   -0.5697861735    1.7796228097   -0.9127109891
 H   -0.5608124594    1.8523182098    0.8535258824
 H    1.2683305848    1.0699527645    2.1908583888
 H    2.2764833315   -2.4314516947    3.7908373537
 H    1.3133256681   -3.7753191228    2.1074486969
 H    0.0735821120   -3.9319523695   -0.0096192352
 H   -1.0898615717   -2.5945418888   -0.2189093555
 H    0.4143419363   -2.5635315048   -1.1039763332