21

 C   -0.0602188282    1.5814548532    0.0382415695
 C    0.0423456896    0.0514117270    0.0320205875
 O    0.6832074970   -0.4364657665   -1.1483039533
 C    2.0429881249   -0.0631282486   -1.2796646792
 C    2.8244362516   -0.1838066819   -0.0019021983
 C    2.2225658875   -0.4054713050    1.1657908156
 C    0.7466449374   -0.5070382392    1.2648761406
 C    0.0795020571   -0.3646636591    2.6154410194
 C    0.1600847198   -1.7186696629    1.9691484874
 H    0.9157582588    2.0518174796    0.1878540516
 H   -0.4755792231    1.9290148872   -0.9121903883
 H   -0.7178542169    1.9176250183    0.8448880405
 H   -0.9695078866   -0.3650574919   -0.0260692103
 H    2.4587454584   -0.7320678114   -2.0434350233
 H    2.1363394108    0.9616972100   -1.6828742810
 H    3.9037351844   -0.0822829862   -0.0733048569
 H    2.8006817838   -0.5193653170    2.0801454185
 H    0.7110505505   -0.1605736892    3.4742397300
 H   -0.8877102871    0.1261562153    2.6524615999
 H   -0.7469424817   -2.1464627064    1.5544945912
 H    0.8496116921   -2.4474395953    2.3809742788