18

 C   -1.5755153578   -0.3533107190    0.2065623343
 C   -0.1248244041    0.1512746859    0.0837423502
 C    0.7921622925   -0.4388581588    1.1612917534
 C    2.1459139430    0.2924297017    1.2602390668
 O    2.0073831897    1.6873240328    1.4834477511
 C    2.9843052336   -0.3253642790    2.3063995633
 N    3.6111175401   -0.7947650534    3.1562259142
 C    0.3792211445   -0.1212163426   -1.3213129705
 O    1.3869406675   -0.7241826888   -1.5940100338
 H   -2.0092656114   -0.0445096954    1.1615014791
 H   -2.2049154419    0.0496210211   -0.5932090885
 H   -1.6186683695   -1.4460517319    0.1522620185
 H   -0.1377936627    1.2461966046    0.1867589448
 H    0.2923834887   -0.3873543422    2.1360158371
 H    0.9833127224   -1.4964335030    0.9519018816
 H    2.6685751045    0.1968148452    0.3050737626
 H    1.6647847961    1.8194542447    2.3752830919
 H   -0.2775357250    0.2826630178   -2.1256376662