16

 C   -0.0416140971    1.4556297755   -0.0325873530
 N   -0.0354524030    0.0071873903   -0.0142571022
 C   -1.1475940731   -0.8432169691    0.0146109755
 C   -2.5184416651   -0.2615623464    0.0291598196
 C   -0.7992933694   -2.1562860943    0.0263757161
 C    0.6506061811   -2.2448470897    0.0043300050
 O    1.4029974483   -3.1896097381    0.0050400879
 C    1.1349110849   -0.7487753605   -0.0227506095
 O    2.2575446647   -0.3178791708   -0.0458624487
 H    1.0029941149    1.7719327649   -0.0528582708
 H   -0.5481676266    1.8477053497   -0.9207599703
 H   -0.5205018706    1.8703534490    0.8606317288
 H   -2.6909334952    0.3612389095   -0.8561043282
 H   -3.2669134057   -1.0545860945    0.0492855747
 H   -2.6638807482    0.3802134528    0.9057316402
 H   -1.4839265401   -2.9892963481    0.0481862050