18

 N    0.1751209383    1.4987488688    0.2171539460
 C    0.0787639130    0.0742783395    0.0167596429
 C   -1.2902784118   -0.6308505992    0.2263322978
 C   -2.5260379934    0.2346771413    0.3497177631
 C   -3.8235030510   -0.5805907731    0.3206652774
 O   -4.9749367843    0.2273009097    0.4940354722
 O   -1.1699031477   -1.2405093790   -1.1116245147
 C   -0.0202745557   -0.5449162228   -1.3961322670
 O    0.5686665596   -0.4995767345   -2.4282326248
 H    1.1441473794    1.7953766951    0.2052420036
 H   -0.2987202784    2.0119352792   -0.5185425713
 H    0.8699353835   -0.4186769512    0.5884415823
 H   -1.2817939364   -1.4253383185    0.9787772688
 H   -2.4676587829    0.7986776521    1.2870437001
 H   -2.5404386877    0.9703921691   -0.4656020108
 H   -3.8734007413   -1.1674551946   -0.6076769445
 H   -3.8311415062   -1.2921428175    1.1542380070
 H   -5.0821103770    0.7647341157   -0.2970184383