15

 N    0.0469306053   -1.1281069577   -0.0471661665
 C    0.0473232624    0.0269428195   -0.0194204072
 C   -0.0136103565    1.4723713859    0.0284261081
 C   -0.3171706488    2.2821106788    1.3303345755
 C    0.5020881046    3.2970098359    0.4849352160
 O    1.2559776863    2.1684396379   -0.0453824098
 C   -0.4896067599    3.6147946333   -0.6653616341
 N   -0.0728869544    3.0223252681   -1.9531293160
 C   -0.8898138862    2.2347267438   -1.0162681673
 H   -1.3598970890    2.5029779590    1.5705618947
 H    0.2356969189    1.8999113653    2.1883817692
 H    1.1207702489    4.0832809453    0.9112633642
 H   -1.1717017138    4.4543788939   -0.6159723319
 H   -0.6861663530    3.3770329805   -2.6854406813
 H   -1.8933790550    1.9056593406   -1.2525270735