20

 C   -0.0866840838    1.6037709176   -0.1027127830
 C   -0.1470000512    0.0945370000    0.0863936537
 O   -0.3399847187   -0.3881747113    1.1799375410
 C    0.0804398167   -0.7687316936   -1.1490878054
 C   -0.8655651766   -0.3936072155   -2.2949606945
 C    1.5867866404   -0.8131660118   -1.6041942770
 C    1.4846325590   -2.3598431252   -1.6864924781
 C    0.1562743271   -2.2997126739   -0.8872354642
 H    0.7149138095    1.8961382901   -0.7879991285
 H   -1.0282443953    1.9588712441   -0.5371185342
 H    0.0507864580    2.0847401353    0.8666339830
 H   -0.7348177753    0.6460466616   -2.6110872425
 H   -0.6745927358   -1.0282063111   -3.1665259347
 H   -1.9129489127   -0.5347419945   -2.0057389732
 H    1.8271633001   -0.2722868579   -2.5236635609
 H    2.2701552551   -0.4820118128   -0.8168862681
 H    1.3465574012   -2.7116805964   -2.7119859900
 H    2.3041370514   -2.9265788914   -1.2396537108
 H    0.2829760488   -2.5043472970    0.1768951982
 H   -0.6795834082   -2.8952247062   -1.2629567307