10

 N   -0.0014235833    1.2392300156    0.4338348291
 C   -0.0477882953    0.0545076216    0.0219206572
 O    1.0838938386   -0.5598734191   -0.4936016613
 N    1.0700647777   -1.8825946172   -0.9640794737
 N    0.0522747957   -2.5627471598   -0.9418064144
 O   -1.1604593028   -2.0597125308   -0.4444484233
 C   -1.2798129444   -0.7689757399    0.0491961412
 N   -2.3791334947   -0.3502170392    0.4868326352
 H    0.9374645180    1.6297299655    0.3282337441
 H   -3.1016780294   -1.0701715867    0.4179304159