17

 O    0.1784995385    1.4504953679   -0.1556019769
 C    0.0347208427    0.0799227792   -0.4747130860
 C   -1.2965046870   -0.4803554622    0.0006488744
 C   -1.4589762138   -2.0547631778    0.0020424112
 C   -1.5976514342   -1.8950688414    1.5055053293
 N   -1.8975499829   -2.3770003384    2.6860292990
 C   -1.9204934611   -1.2341371708    3.4746381953
 C   -1.6603827891   -0.0824231235    2.7542975413
 N   -1.4291312772   -0.5561676177    1.4815750879
 H    0.3062915477    1.5164733427    0.7965972847
 H    0.0826920065    0.0061181501   -1.5667207603
 H    0.8548302633   -0.5252682399   -0.0598755299
 H   -2.1286864425    0.0604209420   -0.4585458931
 H   -2.3467273814   -2.4165063935   -0.5211724515
 H   -0.5820310231   -2.6036602598   -0.3521170991
 H   -2.1190428812   -1.3019451218    4.5341108542
 H   -1.6079245152    0.9541151747    3.0405713994