19

 O   -0.0297019565    1.3756200190   -0.1758280332
 C   -0.0298216338   -0.0486278022   -0.3069116729
 C   -1.4547410021   -0.4996611974    0.0373250360
 O   -1.7737529929   -0.0147577127    1.3380210603
 C   -2.4626707754   -0.0608195928   -1.0091800362
 C   -2.9234755389   -1.0807552418   -1.7290524523
 C   -2.3014123500   -2.3918080014   -1.3160426662
 C   -1.6222371305   -2.0417630831    0.0320721783
 O   -0.3749734340   -2.6833680125    0.2465115122
 H    0.8815461456    1.6751949808   -0.1227964799
 H    0.2399588468   -0.3545530752   -1.3262885384
 H    0.6677649374   -0.5141941494    0.3975180687
 H   -1.4010636762    0.8760277972    1.3774901436
 H   -2.7315822027    0.9819928090   -1.1274346584
 H   -3.6435047936   -1.0042663026   -2.5369610329
 H   -3.0291745643   -3.2071028278   -1.2251202866
 H   -1.5394951499   -2.7229725764   -2.0349490166
 H   -2.3139878082   -2.2594717106    0.8564889070
 H   -0.5397433208   -3.6203569800    0.3851132175