22

 C   -0.1880647977    1.3230201488   -0.1619312090
 N    0.1879496946   -0.0778570948   -0.0316842712
 C    1.6205322978   -0.3855675936   -0.0444100944
 C    0.8206522581   -0.4992854252    1.1970762687
 C    0.9747644029    0.2508425716    2.5175933215
 O    0.6189890226   -0.9349298317    3.2518170699
 C    0.4065296113   -1.7223446866    2.0334581386
 C   -1.0530886381   -2.1285569330    1.8937196364
 C    1.3548792704   -2.9118874274    1.9980271172
 H    0.5213044599    2.0202141802    0.3143134995
 H   -0.2531000009    1.5772949234   -1.2241582364
 H   -1.1746536574    1.4792360816    0.2857685317
 H    1.9121662363   -1.2683557303   -0.6080332371
 H    2.3218604512    0.4473490906   -0.1070148591
 H    1.9840432568    0.6042267622    2.7638740492
 H    0.2634660739    1.0715837069    2.6837622438
 H   -1.7065051377   -1.2549846485    1.9604178769
 H   -1.2270783981   -2.6096284144    0.9267326338
 H   -1.3274780677   -2.8285398076    2.6893602448
 H    1.1349071570   -3.5919325704    2.8271870218
 H    1.2457890339   -3.4697323697    1.0618078906
 H    2.3939303910   -2.5838988621    2.0893501828