16

 O   -0.4263441857    1.2299780441   -1.4451345286
 C    0.1076997719    0.8850121004   -0.4238912143
 C    1.4187372747    1.4516428406    0.0785245628
 C    1.2775964889    2.5128728127    1.2073374829
 C    2.0521223446    1.4960820645    2.0374787456
 C    3.2020406384    1.6858430845    2.9665675046
 C    1.8930451675    1.0751407935    3.4577458339
 O    2.0974743269    0.5420558688    0.9685071615
 H   -0.3372618776    0.1264057959    0.2599173155
 H    2.0413200871    1.7559875393   -0.7691964821
 H    1.7786069159    3.4611751495    1.0097175326
 H    0.2533922994    2.7021936606    1.5375280357
 H    4.0478915630    1.0176648831    2.8456625970
 H    3.4572900082    2.6932471997    3.2797825789
 H    1.2529277386    1.6639218493    4.1070598490
 H    1.8861910381    0.0087164533    3.6562199050