19

 O   -1.4194189992    1.8965187893   -0.9957039787
 C   -1.1842427277    0.5393992770   -0.7775964961
 C   -1.9866094675    0.0112419216    0.3975154229
 O   -2.6950219735    0.7719825289    1.0254642601
 C   -1.9064567577   -1.4734366536    0.7015521061
 C   -3.1654431020   -2.1905721505    0.2231757765
 O   -3.3535282413   -2.1259636927   -1.1692388029
 C   -3.5621775036   -3.4871084500    0.8627804862
 C   -4.3864680602   -2.2340580892    1.0991097965
 H   -2.0238852240    2.1611970533   -0.2830943180
 H   -1.4501134145   -0.0716312193   -1.6571342868
 H   -0.1172882586    0.3351562350   -0.5787734094
 H   -1.0338848617   -1.9171629471    0.2095528918
 H   -1.8011044502   -1.5977529955    1.7831169690
 H   -3.8616419006   -1.3317848000   -1.3681570673
 H   -3.9768983275   -4.2375536661    0.2003391373
 H   -2.9583692631   -3.8748643471    1.6757524414
 H   -4.3452074605   -1.7513800179    2.0684852744
 H   -5.3495339064   -2.1760686663    0.6038212869