18

 O   -0.6422715766    0.3429132830   -0.2166926829
 C   -0.2012408410    1.4566719861   -0.2632591486
 N    1.1335116901    1.8318173056   -0.1303695007
 C    2.2521160114    1.0070025849    0.0923640226
 O    2.1794374691   -0.1927529657    0.1757667712
 C    3.5430836360    1.7821550110    0.2719986395
 C    3.9674992562    2.0705917134    1.7546139116
 C    5.4213894972    1.6896984060    1.3705574753
 C    4.8658659600    0.9933408730    0.1001841447
 H   -0.8313299628    2.3563809248   -0.4246715831
 H    1.3107047601    2.8239024993   -0.1910673905
 H    3.5362201199    2.7058304918   -0.3159993485
 H    3.7808195678    3.0747783277    2.1415058478
 H    3.5204546509    1.3390849928    2.4328861295
 H    6.0203038058    2.5718469098    1.1273271406
 H    5.9804172588    1.0751481611    2.0788603680
 H    4.6780979244   -0.0709174764    0.2567847111
 H    5.4067131127    1.1292025020   -0.8384631374