21

 C   -0.1423062467    1.3939377651    0.1404531685
 O   -0.3629896580    0.0193264935   -0.1011488574
 C    0.5807095992   -0.5606601957   -0.9798059744
 C    1.9269752641   -0.7472041669   -0.2755226872
 O    2.9874175642   -0.7789745342   -0.8430551903
 C    0.0430454565   -1.9062296286   -1.4518770303
 C   -0.3459174860   -2.8759645705   -0.3507733593
 C   -0.7683399160   -1.8961984295   -2.7259071564
 C    0.6363522590   -2.4483094406   -2.7288670463
 H    0.8397835881    1.5875938761    0.5978728408
 H   -0.2082428223    1.9807676978   -0.7882526680
 H   -0.9206986616    1.7290846515    0.8294520548
 H    0.7557947002    0.0838483236   -1.8553710053
 H    1.8423593201   -0.8741083451    0.8290085076
 H   -1.0904325334   -2.4300321594    0.3143077981
 H   -0.7713640519   -3.7882759543   -0.7791091244
 H    0.5179761918   -3.1716024870    0.2557397976
 H   -1.5951388548   -2.5945631585   -2.7993240114
 H   -0.9475829903   -0.9443392215   -3.2142073983
 H    1.4177873827   -1.8750525543   -3.2149492304
 H    0.7663110554   -3.5226929714   -2.8019614783