23

 C   -0.7944910081    1.2929326712   -2.5053302837
 C    0.2573624409    0.4765777358   -1.7729647286
 O   -0.0843698360   -0.8935123136   -1.8908270423
 C    0.7163742780   -1.7887834871   -1.1359669940
 C   -0.0230197299   -3.1260361497   -1.0716162186
 C   -1.3669401834   -3.0349472980   -0.3460749121
 C    2.0881959857   -1.9550014771   -1.7680387050
 C    3.2837045746   -1.2647532262   -1.2662133832
 O    3.0564705211   -2.6436190080   -0.9739115931
 H   -0.8297635494    1.0130236906   -3.5620773751
 H   -1.7840480690    1.1203050373   -2.0728279878
 H   -0.5648391606    2.3605505776   -2.4368540580
 H    1.2541470373    0.6700834434   -2.1975604042
 H    0.2977884528    0.7631740490   -0.7087835211
 H    0.8551859645   -1.4010473962   -0.1114151940
 H   -0.1742408016   -3.4829400777   -2.0981605518
 H    0.6358707352   -3.8466168012   -0.5753250269
 H   -1.2327083274   -2.7255045690    0.6966774530
 H   -2.0181538858   -2.3047816460   -0.8327949743
 H   -1.8772820338   -4.0026696914   -0.3424660892
 H    2.0664834844   -2.2537655776   -2.8180058334
 H    4.1151541024   -1.0596880668   -1.9392477136
 H    3.1956675382   -0.5883164291   -0.4165780931