18

 N    0.1153275703    1.1510655379   -0.0052037279
 C   -0.0366703703   -0.1584436121   -0.3538087390
 O    0.8184199071   -0.7778828399   -0.9549286308
 C   -1.3790226103   -0.7781162644    0.0431235370
 C   -1.2631176871   -2.2895154107    0.2537086336
 C   -2.6257557047   -2.9532283195    0.4055916679
 O   -2.4819982173   -4.3456436566    0.7151389363
 C   -2.6537309937   -5.2331978132   -0.2816232337
 O   -2.5201108616   -6.4098411929   -0.1317869055
 H    0.9599125906    1.6244633239   -0.2814740733
 H   -0.5889269805    1.6653151295    0.4928994821
 H   -1.7833816973   -0.2839195933    0.9346059046
 H   -2.0822696884   -0.5636374658   -0.7741403775
 H   -0.7244278978   -2.7205766497   -0.5951662139
 H   -0.6630269480   -2.5018203836    1.1448344657
 H   -3.1928198481   -2.5199550882    1.2354187653
 H   -3.2251845676   -2.8329466162   -0.5074862272
 H   -2.9396269655   -4.7524707551   -1.2387894137