20

 C   -0.1371356544    1.5975899229   -0.0763593087
 C    0.0341720118    0.0838198445   -0.0800076943
 C    0.7547998597   -0.5914906687   -1.2537784973
 C    2.2046239003   -0.1905061338   -1.2957379764
 C    1.7778644912   -1.2403631259   -0.3066432097
 C    2.3476283981   -2.6300559367   -0.2789716465
 C    1.1072290965   -0.5590754603    0.8841821526
 O    1.9736893916    0.3009181888    1.5986574261
 H    0.8171677695    2.1148080772   -0.2021210285
 H   -0.8042955225    1.9151814990   -0.8849551492
 H   -0.5780662512    1.9423436854    0.8667580093
 H   -0.9356239654   -0.3940614864    0.0957872694
 H    0.2640222068   -1.0392709517   -2.1107412967
 H    2.7613246118   -0.5743209785   -2.1454354142
 H    2.5322484479    0.7873938602   -0.9580390661
 H    2.5764458558   -2.9831022794   -1.2900026009
 H    3.2778918753   -2.6643917986    0.3006009700
 H    1.6483913518   -3.3434823653    0.1729950517
 H    0.6447977520   -1.2919633967    1.5600217139
 H    1.4742917633    0.7025403740    2.3168761356