23

 C    0.2789824455    1.6428584430    0.4641926746
 C    1.6450276775    1.5059121671   -0.2747428913
 C    1.2827385010    0.0590870371   -0.6807994385
 C    1.6163198202   -0.5240120544   -2.0590271556
 C    2.5150118012   -1.7434983067   -1.7560001273
 C    1.9404956402   -2.3077447029   -0.4417356288
 C    1.5880974200   -1.0520981125    0.3795276588
 C    0.1423353251   -0.9221846576    0.9509540132
 C   -0.1486343623    0.2337295316   -0.0369438997
 H    0.3431245933    1.7330562991    1.5527248186
 H   -0.3449974474    2.4603854671    0.0953997210
 H    1.7218230693    2.1765723074   -1.1363471842
 H    2.5499880123    1.6271650011    0.3301284521
 H    0.7007002958   -0.8522891261   -2.5670176809
 H    2.1006711556    0.2035243211   -2.7184217218
 H    2.5363196184   -2.4779448981   -2.5669822213
 H    3.5478934038   -1.4099994081   -1.5948280897
 H    1.0321531053   -2.8842443978   -0.6581687172
 H    2.6318854020   -2.9808651409    0.0740599636
 H    2.3855168685   -0.8049625415    1.0880218591
 H   -0.4634490663   -1.8167581735    0.7763041778
 H    0.0616169554   -0.6611296778    2.0106056298
 H   -1.0726044444    0.1858689531   -0.6176153824