16

 C   -0.0710718561   -1.2089036666   -0.3035813717
 C   -0.0251611410   -0.0195585929   -0.1273886852
 C    0.0110893390    1.3974401147    0.0934163627
 C    0.4716721891    2.2964214595   -1.0568401147
 C    1.3614332337    2.0852752315    0.1271738427
 O    1.5810689727    3.1438105283    1.0245988696
 C    0.5102888112    3.6045165445    1.7240743380
 N   -0.6703935288    3.1656417422    1.7750211258
 C   -1.0420897991    1.9585475098    1.0558950432
 H   -0.1095010347   -2.2583847442   -0.4602990026
 H    0.7421535836    1.8265556973   -1.9945162939
 H   -0.0206122887    3.2598587207   -1.1403167427
 H    2.2586796852    1.4876477088    0.0281111063
 H    0.8053646648    4.4819857355    2.2949799387
 H   -1.9793826535    2.1520962894    0.5199736875
 H   -1.2705847573    1.1886718118    1.8014878863