15

 N   -0.0047224696   -1.1211988697   -0.2983899345
 C    0.0102245605    0.0279181181   -0.1816770864
 C    0.0159011700    1.4975061482   -0.0947084871
 N   -0.6144264765    1.9594677726    1.1446306630
 C   -0.0378243029    3.2523390204    1.5322154909
 C    1.3686312899    3.1958413930    0.9695633826
 N    2.0662790867    1.9308818381    1.2705175077
 C    1.4136280135    2.1092000527   -0.0347029347
 H   -0.4644302972    1.8750165554   -1.0151328194
 H   -1.6240324694    1.9568133045    1.0984941626
 H   -0.5528168467    4.1235006588    1.0932267146
 H   -0.0588423074    3.3572991168    2.6228551740
 H    1.9356358732    4.1124415489    0.8520161850
 H    3.0687484969    2.0609681261    1.1580199227
 H    2.0000474791    2.1549406661   -0.9445891110