18

 O   -0.2543373741    0.0540509498   -0.3099846093
 C    0.0933427794    1.1635135856    0.0004604978
 C    1.4017041776    1.8083656696   -0.3876027130
 C    1.1937570097    3.1797489683   -1.0408087306
 C    2.4690353500    4.0167253727   -1.0405102833
 O    3.3751243114    3.8440180966   -0.2561147051
 N    2.4485388892    5.0781145724   -1.9428696655
 C    2.5387613524    4.9456742810   -3.3883590473
 C    3.6436410470    5.5685153582   -2.5871949428
 H   -0.5622754732    1.8134987548    0.6294854246
 H    1.9939010203    1.9612559587    0.5245518375
 H    1.9570371695    1.1263403058   -1.0365000645
 H    0.8016373640    3.0877581501   -2.0584399896
 H    0.4432969130    3.7574531493   -0.4825731306
 H    2.7159511102    3.9536370768   -3.7974219599
 H    1.8622607990    5.5677092060   -3.9677024624
 H    3.7702337749    6.6469232765   -2.5937774038
 H    4.5523744496    4.9929963277   -2.4348999621