19

 C    0.0610057603    1.6219150889    0.1032723202
 C   -0.0432964507    0.0933014207   -0.0008264811
 C    0.7121591596   -0.5851006860    1.1759331095
 O    0.1939948865   -0.2336225364    2.4380521302
 C   -1.4690910331   -0.3097792849    0.1023261090
 N   -2.5658802073   -0.6697498136    0.1823397947
 N    0.5993037295   -0.3490324078   -1.2388977026
 C    0.1930868127   -1.5972547741   -1.8811001814
 C   -0.1282508929   -0.2819728900   -2.5024560468
 H    1.1059263696    1.9072790728   -0.0425386384
 H   -0.5462793216    2.1113504141   -0.6618994608
 H   -0.2694631112    1.9517690441    1.0896777277
 H    0.7152118137   -1.6720635133    1.0159228279
 H    1.7468206669   -0.2342500108    1.1432485642
 H   -0.6699842187   -0.6492847299    2.5381903877
 H    1.0077177428   -2.2059451559   -2.2612352796
 H   -0.6413531723   -2.1524009044   -1.4580867866
 H   -1.1725379789    0.0227091498   -2.4809059679
 H    0.4433786052    0.0892773366   -3.3475314858