20

 C    0.0288562773    1.5135057185    0.0690467463
 C   -0.0264633267    0.0158012316    0.0604786593
 C   -1.3050188179   -0.8354626769   -0.0412500735
 C   -0.5219153738   -2.0220505714    0.6017748005
 C    0.6247624739   -1.0189344031    0.9277143177
 N    1.1585094144   -0.7288654624   -0.4042783766
 C    0.9079058529   -1.8789304191   -1.3010038777
 C    0.0729380795   -2.9102285098   -0.4930023284
 O    0.8526033502   -3.9776228696    0.0231432291
 H    1.0366717935    1.8581988966    0.3140356997
 H   -0.2356435246    1.9188788356   -0.9150063877
 H   -0.6732470746    1.9284369479    0.8004392242
 H   -2.0786473021   -0.4528195289    0.6293252774
 H   -1.7455960863   -0.9933002209   -1.0329528493
 H   -1.0110859695   -2.5668678602    1.4077117934
 H    1.2487487427   -0.9377867825    1.8108452762
 H    0.4027571065   -1.5458861964   -2.2127258193
 H    1.8647413068   -2.3225091809   -1.5923768331
 H   -0.7001709569   -3.3870284669   -1.1031217954
 H    1.5491037547   -3.5965392810    0.5701075374