18

 C    0.0187349028    1.5989252805    0.0080283798
 C    0.1064558638    0.0772624178    0.0017917804
 C    0.8338031765   -0.6786075315   -1.1176978754
 C    2.3130288673   -0.7997147487   -0.7322363175
 C    1.2804552984   -1.7639989919   -0.1729190243
 C    1.0672786846   -0.6795195230    0.9674083079
 C    2.4942759702   -0.1522689935    0.6398772813
 O    3.5190110614   -0.7391896752    1.4146848066
 H    0.9876432276    2.0720140840   -0.1737809273
 H   -0.6669976989    1.9472862768   -0.7723249040
 H   -0.3612479081    1.9661737738    0.9682038111
 H   -0.8982634747   -0.3491257243    0.1076743664
 H    0.5284909452   -0.7940977239   -2.1510558905
 H    3.0759393863   -0.9930717213   -1.4765474248
 H    1.1762828771   -2.8378089469   -0.2229408389
 H    0.7981455040   -0.8686285314    2.0054815164
 H    2.6688689066    0.9252465522    0.7058595718
 H    3.4485506898   -1.6955562636    1.3061245710