16

 C   -0.0612805071    1.4505674912   -0.1327576077
 C    0.0653008345   -0.0368223988    0.0643390363
 N    0.2162204901   -0.6961434146    1.1373569789
 O   -0.0039010021   -0.6692627987   -1.1310705955
 C    0.1044259386   -2.0968804244   -1.0767787499
 C    0.0125704545   -2.6287675975   -2.4234374885
 C   -0.0582507987   -3.1214096082   -3.5233886380
 C   -0.1481459322   -3.6609988728   -4.8552989598
 O   -0.0891782687   -4.8388669625   -5.1230967717
 H   -0.0072519896    1.9753141922    0.8220237094
 H    0.7364895710    1.8123263796   -0.7882499141
 H   -1.0122845935    1.6858423450   -0.6197973026
 H    0.2489456220   -0.0772203474    1.9435610574
 H    1.0540280069   -2.3823155235   -0.6084991149
 H   -0.6879568148   -2.5080527886   -0.4399497437
 H   -0.2797088508   -2.8915891710   -5.6430705456