17

 C    0.2682688955    1.3917557570    0.0807642008
 O    0.1784362275   -0.0277081861    0.0523360614
 C    0.5711688007   -0.5955903840   -1.1439065922
 O    1.9749596121   -0.4258318372   -1.3670048900
 C    2.6388502556   -1.5607904205   -0.9961168363
 O    3.8201805454   -1.6530975250   -0.9106455138
 O    1.7566840357   -2.5578296314   -0.7585475101
 C    0.4231073143   -2.1282230536   -1.0900196819
 C   -0.5698319963   -2.6762936019   -0.0857375761
 H    1.3061895337    1.7255988535   -0.0188592446
 H   -0.3322275237    1.8389389975   -0.7242646391
 H   -0.1284187240    1.7111489785    1.0455133824
 H    0.0587446800   -0.1288468389   -1.9950808460
 H    0.2007763803   -2.4978364570   -2.0982870671
 H   -0.3466689084   -2.3069048415    0.9156119944
 H   -1.5837178244   -2.3659630452   -0.3540575207
 H   -0.5302290639   -3.7681919640   -0.0871566912