23

 C   -0.1258632077    1.5891863015    0.0001412472
 C   -0.0335459365    0.0896131265   -0.0525639815
 C    0.5986808491   -0.6730927211   -1.2233150836
 C   -0.4241525396   -1.8419744982   -1.0063095857
 C    0.1427812680   -3.1517972688   -0.4484124439
 C    1.1824055911   -2.8875774038    0.6526080267
 C    0.6860546250   -1.8906710199    1.7186557422
 C   -0.1946958161   -0.7649812470    1.1912322056
 C   -1.1426115525   -0.9687523435    0.0441488850
 H    0.8512223191    2.0422557679    0.2110610720
 H   -0.4779601232    1.9991052855   -0.9542350139
 H   -0.8169209417    1.9218897712    0.7819629946
 H    0.4009184380   -0.1562037586   -2.1674621219
 H    1.6692054112   -0.8957465876   -1.1793260899
 H   -1.0305410759   -2.0294395497   -1.8952055867
 H   -0.6862147444   -3.7537112261   -0.0512846881
 H    0.6027063206   -3.7430133898   -1.2496541568
 H    1.4643813839   -3.8279502624    1.1385065710
 H    2.0986249873   -2.5050910491    0.1905572509
 H    0.0859790939   -2.4362385018    2.4603879775
 H    1.5423746139   -1.4802498664    2.2683397663
 H   -0.6345430125   -0.1765187179    1.9954081470
 H   -2.2161173412   -0.8386391808    0.1279372061