23

 C   -0.0581703878    1.5910800951    0.1589324183
 C    1.4856281228    1.4250924502    0.0594789543
 C    1.2813672195    0.1263887970    0.8994814568
 C   -0.0355580677    0.0380481189    0.0676933014
 C    0.5208969917   -0.2245567681   -1.3480399826
 C   -0.3654218659    0.1067494141   -2.5667415446
 C    0.5636666093    0.8873722725   -3.5187604131
 C    1.4321457571    1.7456901640   -2.5764493420
 C    1.6875736872    0.8391950401   -1.3543272227
 H   -0.3705786490    1.9395404804    1.1462311215
 H   -0.5837029030    2.1628751242   -0.6105869658
 H    2.1678333398    2.2148594403    0.3781778442
 H    2.0148777826   -0.6787309682    0.7861170709
 H    1.1037147180    0.3275038306    1.9590227037
 H   -0.8828665421   -0.5668250504    0.3946514757
 H    0.9054565478   -1.2465188346   -1.4239546389
 H   -0.7910693009   -0.7867163564   -3.0329844510
 H   -1.2086745951    0.7410317960   -2.2685870270
 H    1.2019791035    0.1840250110   -4.0685332766
 H    0.0211013611    1.4780391466   -4.2636795057
 H    2.3582586411    2.0846855150   -3.0499857000
 H    0.8799974337    2.6453926324   -2.2798827035
 H    2.6693203261    0.3617316593   -1.4334383430