19

 C   -0.0180918063    1.5718925990   -0.0853071940
 C    0.0800656179    0.0543100065    0.0225836478
 N    0.6253160424   -0.5197073217   -1.1974695726
 C    0.7659498735   -1.8636700219   -1.3511737517
 C    0.3026940787   -2.8827788447   -0.5934086793
 C    0.6825684731   -4.1633040325   -1.2144814438
 O    0.3845273576   -5.2953160775   -0.8943344189
 N    1.5065158163   -3.8351826432   -2.2988306144
 C    1.5086916806   -2.4130281543   -2.5548342234
 H    0.9699265565    2.0234416360   -0.2314149175
 H   -0.6566871517    1.8652679272   -0.9239498566
 H   -0.4402863720    1.9914402549    0.8312687589
 H    0.6908218211   -0.2290641312    0.8939762896
 H   -0.9158268036   -0.3752460072    0.1844776914
 H    1.2588993049    0.0671110700   -1.7183901903
 H   -0.2634743404   -2.8307836591    0.3228757902
 H    1.6063540410   -4.5047247682   -3.0442884694
 H    0.9860815683   -2.1423735739   -3.4843037759
 H    2.5265280523   -2.0000608082   -2.6182413898