23

 C   -1.4858383701   -0.2231687475   -0.1406804904
 C    0.0263722073   -0.1211354972    0.1003162899
 C    0.4261131763   -0.9120100285    1.3540981113
 C    0.7922331004   -0.5789979090   -1.1544970609
 C    2.3002715053   -0.3303860627   -1.1408201047
 C    2.9956256403   -0.8342841525   -2.4013768360
 O    2.5032147634    1.0996469829   -1.0373216085
 C    3.4836382071    1.5491078607   -0.2374888698
 O    3.7576981319    2.7074290302   -0.1311126767
 H   -1.7933022606    0.3740017591   -1.0053245214
 H   -1.7864134486   -1.2613450211   -0.3280050817
 H   -2.0474467303    0.1317357348    0.7293133442
 H    0.2701276192    0.9354245180    0.2671205816
 H    0.2209868570   -1.9819399410    1.2252357454
 H    1.4880119625   -0.8040794813    1.5977029838
 H   -0.1410655971   -0.5696666253    2.2255265961
 H    0.6307807676   -1.6543261100   -1.3092966920
 H    0.3794904443   -0.0717280635   -2.0353979748
 H    2.7518881823   -0.8041021525   -0.2592569385
 H    2.5857405538   -0.3395676535   -3.2869751284
 H    4.0700352800   -0.6320133536   -2.3630247014
 H    2.8536536466   -1.9138670036   -2.5094508491
 H    3.9976552014    0.7354579470    0.3128853819