18

 C   -0.0400002763    1.5642943091    0.0094151419
 C    0.0159331088    0.0507300306   -0.0258474710
 N   -1.2114662491   -0.5294012381   -0.5163838428
 C    1.3363259837   -0.6388076490   -0.2963921262
 O    2.4664393065    0.1586222591   -0.4601319110
 C    0.7163646375   -0.6725991453    1.1279319861
 N    1.3073214196    0.1122340971    2.1936497943
 C    0.1687055770   -1.9295066256    1.5588493079
 N   -0.2641454541   -2.9587634803    1.8667505989
 H    0.9284961013    2.0172503789    0.2216154650
 H   -0.3694124783    1.9302172878   -0.9687843960
 H   -0.7660483852    1.8921187177    0.7566602664
 H   -1.2470457215   -0.4802144357   -1.5303666361
 H   -1.3148888847   -1.5023843648   -0.2490087330
 H    1.3082791213   -1.5566888539   -0.8824527264
 H    3.2450871105   -0.3690740905   -0.2480739666
 H    1.8117472350   -0.5052728971    2.8234620352
 H    1.9996228982    0.7340004600    1.7829852832