21

 C   -0.1561682370    1.4490121765   -0.3303512160
 C    0.1191868453   -0.0196729059   -0.0853619217
 O    1.3038913223   -0.5230802151   -0.7754504558
 C    1.7813391945   -1.0952886049    0.4415424678
 C    2.0728837249   -0.0287916100    1.4509641712
 C    0.6481446712   -0.5247622002    1.2691430093
 C   -0.2297011460   -1.0846941959    2.3281508486
 C    0.2288974099   -1.3027828803    3.7492211109
 C   -0.7540672612   -0.2041280246    3.4458561718
 H    0.6715921502    2.0776006412    0.0082575684
 H   -0.3085186259    1.6323774082   -1.3988580606
 H   -1.0655718654    1.7522089315    0.1995627636
 H   -0.7461804804   -0.6227224188   -0.3944423391
 H    2.2440213188   -2.0748012984    0.4016981106
 H    2.5579437228   -0.3729350582    2.3588421370
 H    2.3817188509    0.9568264244    1.1141012616
 H   -0.9378326397   -1.8228841156    1.9574128153
 H   -0.1283368218   -2.1896615318    4.2606300642
 H    1.2382446121   -1.0142858232    4.0190463271
 H   -0.3893514024    0.8164405225    3.4868698051
 H   -1.7854052431   -0.3261624915    3.7573892708