21

 C   -0.0085839578    1.5440704720   -0.1484663503
 C    0.0717304206    0.0433450321    0.0599036229
 O    1.1300439507   -0.5219423547    0.2115387298
 C   -1.2605379404   -0.7220534455    0.0729253468
 C   -1.1482087761   -2.1338199970   -0.5543389874
 C   -2.0177808853   -3.0612659021    0.3279682991
 C   -2.1480076103   -2.2804820005    1.6078446530
 C   -1.7489646781   -1.0126294384    1.4957509075
 C   -1.8013358744    0.0424346395    2.5569847400
 H    0.9772008551    1.9955046882   -0.0300565458
 H   -0.3873080477    1.7511732051   -1.1568963683
 H   -0.7183741902    1.9987103998    0.5509941992
 H   -2.0108258008   -0.1004985433   -0.4381710535
 H   -1.4404107424   -2.1456541477   -1.6073480793
 H   -0.1005631704   -2.4379954184   -0.4902910301
 H   -3.0067391620   -3.2447788882   -0.1162401058
 H   -1.5604279883   -4.0470386107    0.4706947443
 H   -2.5675847492   -2.7048160470    2.5147528992
 H   -2.2195516070   -0.3536124695    3.4861117496
 H   -0.8045414860    0.4420787086    2.7818093927
 H   -2.4208774401    0.8943446080    2.2463582763