21

 C   -0.3650338127    1.3446985745   -0.7030154605
 C   -0.2075119889    0.1555100755    0.2540436692
 C   -1.3984503130   -0.7702198481    0.1853279878
 O   -1.5102419951   -1.6394668326   -0.9418525145
 C   -1.3481837431   -2.2464296581    0.3526411473
 C   -0.0712511101   -3.0090568940    0.6178554640
 C   -2.5982789683   -2.9119336215    0.9024830357
 C   -3.8939696318   -2.7045835232    0.1454452039
 O   -2.5278328288   -3.5997144429    1.8967879725
 H    0.4988777538    2.0125219876   -0.6415595987
 H   -0.4556393150    0.9975109530   -1.7365102312
 H   -1.2591568724    1.9312779666   -0.4656439489
 H    0.7081591328   -0.3905615111    0.0150258700
 H   -0.1094704787    0.5140743222    1.2866102949
 H   -2.3410719530   -0.2811343340    0.4472689065
 H    0.8056044355   -2.4711364328    0.2579581025
 H    0.0265654590   -3.1972269822    1.6890821467
 H   -0.1064054795   -3.9803817254    0.1144027385
 H   -3.8135085558   -3.1700974868   -0.8427362755
 H   -4.7112398427   -3.1592048274    0.7060074312
 H   -4.1008087824   -1.6457741294   -0.0331804714