23

 C   -1.5348212216   -0.4099382177   -0.0892124376
 C   -0.0269091924   -0.3477223128    0.1901997645
 C    0.3844017853   -1.4473125681    1.1781319381
 C    0.7493490944   -0.4125948886   -1.1431271504
 C    2.2532500191   -0.2110361332   -1.0604704510
 C    3.1869531016   -1.3831522855   -0.7695323167
 C    3.1427790434   -0.8247361337   -2.1478263347
 C    2.7396944014    1.1118043491   -0.5969934466
 O    2.0415036732    2.0535249026   -0.3079974143
 H   -1.8512532119    0.3986318863   -0.7563620979
 H   -1.8104195112   -1.3607412295   -0.5627432310
 H   -2.1108840388   -0.3240352162    0.8379361929
 H    0.1915340004    0.6239243373    0.6457492904
 H    0.2071874380   -2.4451239791    0.7565187879
 H    1.4412299153   -1.3809386146    1.4507443175
 H   -0.1996832803   -1.3741393798    2.1015398578
 H    0.5525281443   -1.3800206556   -1.6254154058
 H    0.3444445219    0.3558978268   -1.8127020950
 H    4.0673686524   -1.1943353911   -0.1633669967
 H    2.7099347160   -2.3369168045   -0.5785664934
 H    2.6251321462   -1.3788212336   -2.9225718008
 H    3.9897026950   -0.2450355918   -2.4996960881
 H    3.8527769282    1.1900525634   -0.5459743391