19

 N   -1.1572685096    0.8599157897   -0.3135387854
 C   -0.2487983049   -0.1010257372   -0.0415732405
 O    0.9454165983   -0.0218419773   -0.2934971516
 C   -0.7968811853   -1.3926201651    0.5999609634
 O    0.2873207016   -2.2058586666    0.9522110838
 C   -1.6631156676   -1.1304859630    1.8436379535
 N   -2.9406850548   -0.5200807006    1.4744006803
 C   -4.0583373074   -1.4354812701    1.2386186184
 C   -4.0110230168   -0.5926223854    2.4637473260
 H   -0.8219584670    1.7448492100   -0.6593446241
 H   -2.0775291026    0.7835978355    0.1087975500
 H   -1.4295041597   -1.8902641884   -0.1559236972
 H    1.0594854228   -1.7461722081    0.5747192579
 H   -1.7942191176   -2.0901287834    2.3679929497
 H   -1.1358236824   -0.4528831643    2.5243186473
 H   -4.7188012309   -1.1756307800    0.4172244890
 H   -3.8682475898   -2.5002087193    1.3561504841
 H   -3.7900958400   -1.0917954288    3.4048226517
 H   -4.6367490664    0.2904945126    2.5501273736