13

 O   -0.0238952370    1.2874814742    0.0092157415
 C    1.2203575276    1.7501679498   -0.0002371760
 C    2.1030260907    0.6981400905   -0.0143170959
 C    3.5117787710    0.5034256724   -0.0288663358
 N    4.0383503249   -0.6903083295   -0.0402873750
 C    3.1974150304   -1.7836652435   -0.0380584731
 C    1.8326636424   -1.7414687064   -0.0247436733
 C    1.2391560777   -0.4493748300   -0.0121565975
 N   -0.0411074109   -0.1089101276    0.0019413287
 H    1.3290394865    2.8236970505    0.0044472816
 H    4.1918160179    1.3532939601   -0.0308498991
 H    3.7098777107   -2.7408891881   -0.0480806814
 H    1.2305435180   -2.6412910522   -0.0237674447