13

 N    0.0114860667    1.3716595379    0.1572597414
 C   -0.0340475918    0.0056098078    0.0560065969
 N   -1.1949275454   -0.5984730521    0.0358602006
 C   -1.1509012467   -1.9623872451   -0.0018762140
 C   -0.0193874830   -2.7201505064   -0.0385743184
 C    1.2720903019   -2.0796275938   -0.0224607397
 O    2.3798377386   -2.5807308455   -0.0413069554
 N    1.1505475786   -0.6619248004    0.0292713093
 H    0.8033340213    1.8552668064   -0.2363784868
 H   -0.8813965261    1.8118359844   -0.0066371750
 H   -2.1257587469   -2.4436566015   -0.0084867531
 H   -0.0486383633   -3.8004966793   -0.0744353178
 H    2.0322263462   -0.1693978724    0.0883300720