17

 C    0.0430611296    1.4921577713    0.1313624954
 C    0.0285396186   -0.0036874886    0.0974386055
 N    0.2093754634   -0.6570517061   -1.0506268293
 N    0.1557687228   -1.9692182018   -0.7256289212
 C    0.2212477657   -2.9588661624   -1.7714192837
 C   -1.1145895132   -3.1433703671   -2.4930919223
 O   -1.3719380151   -4.1105083911   -3.1566394186
 C   -0.0702371336   -2.1590132395    0.5994915048
 C   -0.1517957776   -0.9092287037    1.1708818242
 H    0.8452249203    1.8698542310    0.7747472176
 H    0.1956167479    1.8862575822   -0.8754331185
 H   -0.8995875418    1.8921110042    0.5203715690
 H    0.9616957549   -2.6336402177   -2.5103140301
 H    0.5466496868   -3.9191860542   -1.3641395595
 H   -1.8232912622   -2.2970316294   -2.3626414286
 H   -0.1441221500   -3.1497269184    1.0206796482
 H   -0.3087438566   -0.6796448787    2.2126371270