20

 C   -0.3745314859    1.4864205665    0.0446779689
 C    0.0688127007    0.0352011427    0.0041545809
 C    1.0757965909   -0.4804014510   -1.0539852195
 O    2.0279866043    0.5139274238   -1.4084308317
 C    2.7581079876    0.8395042640   -0.2188310808
 C    2.3753564957   -0.2263256224    0.7898476730
 N    0.9395385214   -0.4955330932    1.1238685095
 C    1.6870535101   -1.3246458565    0.0952189284
 C    1.9140062959   -2.7996718622    0.1850268973
 H    0.4414828015    2.1830125972   -0.1523925032
 H   -1.1496385265    1.6645417624   -0.7084147551
 H   -0.7993912670    1.7161804968    1.0274417866
 H   -0.8149945337   -0.6134627125    0.0103353178
 H    0.7075595104   -0.9497035754   -1.9665663239
 H    3.8339637525    0.7979787935   -0.4347684766
 H    2.5209537377    1.8569495035    0.1153401646
 H    3.0367048750   -0.4209981818    1.6274067799
 H    1.0040836502   -3.3613760110   -0.0529278059
 H    2.6969093069   -3.1177749969   -0.5128291634
 H    2.2242705625   -3.0771545777    1.1966981235