15

 O    0.1937184764   -0.1614685793    0.0048822782
 C    0.0964049488    1.0354918062    0.0916283652
 C    1.2743197361    1.9909658247   -0.0005984190
 C    1.4682069850    2.8474472763    1.2967188903
 N    2.5994686629    2.2416147227    2.0013806694
 C    3.1168487372    1.3889413598    1.1950963445
 N    2.5480642659    1.2859843051   -0.0839313157
 C    4.2495801596    0.5790911601    1.5044825369
 C    5.1918951529   -0.1312803382    1.7315948115
 H   -0.8888763936    1.5321566951    0.2398889736
 H    1.0994509557    2.6351855349   -0.8722509775
 H    1.7046953458    3.8879043562    1.0456212321
 H    0.5770841040    2.8647183627    1.9343941246
 H    2.4827491289    0.3435154658   -0.4531364018
 H    6.0276255045   -0.7500429422    1.9498569677