17

 C    0.0173200853    1.4614932931   -0.2540810134
 N    0.1129892370    0.0208761772   -0.0686248034
 C    1.4611303535   -0.5496775285   -0.0273653882
 C    0.6247818514   -0.4703313153    1.1953049520
 C    0.9266841165    0.3403188482    2.4760564571
 C    0.3665055588   -0.8574409632    3.2723340065
 O    0.3007515935   -1.1095899579    4.4390437538
 C   -0.0332988648   -1.6114888655    1.9903679884
 H    0.8300752786    2.0274681092    0.2302327022
 H    0.0378479344    1.6836643977   -1.3253066828
 H   -0.9367851240    1.8191433913    0.1466917063
 H    1.5935764168   -1.4939523018   -0.5499738996
 H    2.3071279296    0.1343524590   -0.0972750244
 H    1.9697932190    0.5901313138    2.6894092987
 H    0.3218526003    1.2458475820    2.6003512098
 H   -1.1167213883   -1.6877634709    1.8490606462
 H    0.4044787624   -2.6089526184    1.8881653307