14

 N   -0.0479302379    1.4026262991    0.0202374534
 C   -0.0842875235    0.0145605406   -0.0046263229
 C   -1.1503420525   -0.8354852156   -0.0097360050
 N   -2.4961013686   -0.5047101487   -0.0579184960
 C   -0.5973574907   -2.1706044710   -0.0449158247
 C    0.7642531402   -2.0187035012   -0.0613014595
 O    1.0979385336   -0.7249985786   -0.0476706357
 C   -1.3273421016   -3.3810527159   -0.0441585674
 N   -1.9589963282   -4.3525728379   -0.0333283211
 H    0.5066344478    1.7766533398    0.7830970199
 H    0.2725374196    1.8195223973   -0.8483609542
 H   -2.6698894048    0.4519085332    0.2211578864
 H   -3.1012148746   -1.1530607391    0.4274415442
 H    1.5674701312   -2.7370358319   -0.0735019275