19

 C   -0.3853162748    1.4050132560   -0.1485807824
 C   -0.0447694535   -0.0608663017    0.0156163611
 C    1.3073547573   -0.6316283334   -0.3080031801
 O    2.3768478566    0.2939576996   -0.4014815525
 C    2.6584209481    0.8401822183    0.8204651511
 O    3.4634453580    1.7139709430    0.9573440517
 C    1.8005599012    0.1731530094    1.9049729758
 C    1.2641397545    1.1785329826    2.9281282552
 C    0.8176780893   -0.6720019773    1.1178975389
 H    0.4656952663    2.0629779073    0.0388319555
 H   -0.7215372549    1.5978564982   -1.1727697513
 H   -1.1939575516    1.6980634194    0.5284446341
 H   -0.8564927214   -0.7264978612   -0.2701775582
 H    1.4557703996   -1.4913384889   -0.9491459827
 H    2.4834625778   -0.5100299408    2.4299154748
 H    0.5340958807    1.8579925418    2.4825657132
 H    0.7802368373    0.6591919158    3.7598941718
 H    2.0896992757    1.7771444604    3.3218143299
 H    0.4798694337   -1.6021329784    1.5590676940