14

 N    0.0367359969   -1.2522252600    0.0523902096
 C    0.0261011129   -0.0991531295   -0.0129996048
 C    0.0160579646    1.3718572313   -0.1353756416
 N   -0.6752938740    1.9970869876    0.9998370491
 C    0.0755420488    3.1805689496    1.4414217837
 C    1.4372885664    2.9733237304    0.8089104482
 C    1.4045318431    1.9747884941   -0.0616370981
 C   -0.5295019048    4.4561220857    0.9991868479
 N   -1.0308673842    5.4373088527    0.6496801345
 H   -0.4423398795    1.6044832915   -1.1111846550
 H   -1.6538888699    2.1792356422    0.8244122758
 H    0.1348954317    3.2130939217    2.5379899554
 H    2.2830087185    3.6025044826    1.0497772138
 H    2.2221714997    1.6062748601   -0.6656583884