16

 C   -0.0342454363    1.5057639945   -0.0655967254
 C    1.5236110954    1.3494253590    0.0332998961
 C    1.1276499172    0.1470749505    0.9599627986
 N   -0.0792213706   -0.0426796214    0.0049120031
 C    0.7004266286   -0.2791696436   -1.1916859645
 C    1.7535293799    0.5632715985   -1.2687045453
 C    2.4231688073    0.2209228059   -2.4810027631
 C    1.6906667849   -0.8089176086   -3.0154742884
 O    0.6084970751   -1.1315142840   -2.2168100190
 H   -0.5115883155    1.9309336888    0.8224297892
 H   -0.4580975745    1.9226419541   -0.9806562804
 H    2.1924238037    2.1525168464    0.3395378204
 H    1.7964478541   -0.7137632073    1.0093457889
 H    0.7715170137    0.4305052168    1.9549768262
 H    3.3109755371    0.6466054333   -2.9229108690
 H    1.7884704598   -1.4001072329   -3.9095106876