16

 C    0.1416580132    1.5089430893    0.1811455977
 C   -0.1305730993    0.0267155792   -0.1008155477
 C    0.6509053041   -0.5103020642   -1.2852017896
 O    0.3516598749    0.1096078096   -2.5127840935
 C    2.0632073310   -1.0117611128   -1.0960912415
 C    0.9297289998   -1.9754798958   -1.4019988182
 H    1.2032489216    1.6865050301    0.3857873615
 H   -0.1489158307    2.1323487367   -0.6715375653
 H   -0.4295517740    1.8580747409    1.0462181498
 H    0.1158042012   -0.5694009236    0.7856162527
 H   -1.2003659757   -0.1204130420   -0.2945262109
 H    0.7464345557    0.9880230911   -2.5032879841
 H    2.7701688199   -0.8134047085   -1.8940241822
 H    2.4893994957   -1.0130412879   -0.0981629740
 H    0.5818493653   -2.6342843264   -0.6137789583
 H    0.8931804772   -2.3957616757   -2.4001954462