19

 O    0.1486628264    1.5592492669   -0.0692946552
 C    0.0686925733    0.1359350899    0.0296724379
 C    0.5551065212   -0.5065833832   -1.1972734817
 C    1.0062962839   -1.0049669399   -2.1942984120
 C    0.7914845654   -0.3955582257    1.2447672581
 C    0.3461913803   -1.6353241199    1.9673403624
 C    0.3800096705   -0.3318464375    2.7186164745
 C    1.8201868685    0.0036581961    3.1219103344
 C    2.2429980896   -0.0614038482    1.6158728019
 H    0.9776112156    1.7720305855   -0.5104669013
 H   -1.0010990501   -0.0817416417    0.1461196681
 H    1.3856160482   -1.4530854794   -3.0793929835
 H   -0.6447420934   -1.9938434833    1.7043782791
 H    1.0578988746   -2.4265709963    2.1939433474
 H   -0.5151273786    0.0968619434    3.1533286043
 H    1.9290694178    1.0075073183    3.5369684443
 H    2.3024427177   -0.7095729025    3.7983250398
 H    2.9970920898   -0.8029730201    1.3350107184
 H    2.5550564492    0.9174722577    1.2444174632