18

 C    0.2335838108    1.4659208716   -0.4617422693
 O    1.5799287546    1.4332133892    0.0603550790
 C    1.4197710858    0.0947016900    0.5588672341
 C   -0.0281004543    0.0086474430   -0.0169950399
 N   -0.0682753812   -1.0102051154   -1.0621245789
 C    1.2723888687   -1.5366930523   -1.2740887508
 C    2.2175053791   -0.8052720009   -2.2622652140
 O    3.1330115233   -0.4622843480   -1.1983567690
 C    2.2446434706   -0.9761911985   -0.1966499691
 H   -0.3757470056    2.2256804541    0.0437988359
 H    0.2033282764    1.6336123285   -1.5438748733
 H    1.5508858047    0.0448189668    1.6449001177
 H   -0.8561898531   -0.1130740964    0.6831061417
 H   -0.7096724072   -1.7513079340   -0.8167371915
 H    1.2514809059   -2.6187587424   -1.4122240939
 H    2.7000401352   -1.4288831433   -3.0238601927
 H    1.7782456755    0.0785310442   -2.7384897280
 H    2.7480734708   -1.6707922861    0.4836351220