12

 O    0.1969093975    1.3460042840   -0.0025468514
 C    0.0271859739    0.0048739681    0.0098181786
 C   -1.0655568477   -0.7782429742    0.0249505728
 O   -2.3807180233   -0.4314866950    0.0838284652
 N   -0.6195590515   -2.1186032083   -0.0570684625
 C    0.7712476311   -2.1639571862   -0.0200292482
 O    1.4951173761   -3.1357530454    0.0395093375
 N    1.1458605389   -0.8198892661   -0.0594134010
 H   -0.6664363610    1.7506630316    0.1410128312
 H   -2.7846608250   -0.5444567612   -0.7872745646
 H   -1.1608290210   -2.9109038815    0.2475049402
 H    2.0968455919   -0.5214145456    0.0729338421