16

 C   -0.0835186005    1.5311158333    0.0165941403
 C   -0.0707937559    0.0009601743   -0.0140654532
 C   -1.3954603388   -0.4895487584   -0.3839492531
 N   -2.4758230400   -0.7479708914   -0.7048780555
 C    1.1983790756   -0.6859448851   -0.6324780592
 O    1.9857221133   -0.1800541302    0.5047369847
 C    0.7556780751   -0.7205697772    1.1165865576
 C    0.9618228975   -1.9701062770    0.2346202069
 O   -0.1229606422   -2.8177263812    0.0624513130
 H    0.9047085371    1.9029807728    0.2866475952
 H   -0.3652904333    1.9287865760   -0.9624746234
 H   -0.8176723760    1.8901672725    0.7433389513
 H    1.6124478075   -0.5612808699   -1.6335361887
 H    0.6394526387   -0.6325760286    2.1965163872
 H    1.9027672824   -2.4843701624    0.4560858992
 H    0.0535560196   -3.4215672474   -0.6662287926