21

 C    1.8906889346    0.1242387250   -1.2117960789
 C    1.3469126035   -0.9338507467   -0.2736014816
 C    2.1374985249   -1.4201183106    0.9163069303
 C    0.8511797157   -0.6499147169    1.1334280698
 C    0.9383262649    0.7566740435    1.7055332933
 O    1.0891786981    0.7605418157    3.1204026781
 C   -0.3721082706   -1.4265141268    1.6134811988
 C   -0.3410073770   -1.7113594470    3.1020225801
 O   -1.1668559919   -1.3170939725    3.8898130151
 H    2.5416173341    0.8391659009   -0.7021915181
 H    2.4857781672   -0.3452527466   -2.0027026281
 H    1.0854278659    0.6886422246   -1.6950562046
 H    0.7747596912   -1.7020432419   -0.7895314058
 H    2.1550950185   -2.4827513469    1.1351055144
 H    3.0667547317   -0.9090687252    1.1480938885
 H    1.8154870817    1.2737675521    1.3081528255
 H    0.0543966211    1.3379435709    1.4028918910
 H    0.2192265296    0.6891256469    3.5254502946
 H   -1.3000072303   -0.8888841728    1.3874483290
 H   -0.4058624782   -2.3965772404    1.0993779874
 H    0.5170418353   -2.3348981854    3.4360598512