14

 O    0.0955351147    1.3923300691    0.1147815600
 C    0.0123179236   -0.0071079921    0.0468511299
 C   -1.3759380350   -0.5747157682   -0.2530420709
 C   -1.4298136942   -0.5726536879   -1.7769795394
 O   -0.1876817271   -0.0719958001   -2.2589953168
 C    0.6506502819   -0.6103755187   -1.2332400075
 O    0.3192499503   -1.9838360531   -1.1633546277
 C   -1.0897809836   -1.8416007663   -1.0412182679
 H   -0.1658097948    1.7232379070   -0.7542533976
 H    0.4591286347   -0.4143878304    0.9554452623
 H   -2.2344998220   -0.4336827489    0.3869341651
 H   -2.2837026381   -0.3832004542   -2.4093522188
 H    1.7019990378   -0.4484097905   -1.4515782818
 H   -1.6484727382   -2.7652984358   -1.0270864888