14

 O   -0.2977153704    0.0567996132    0.1435332296
 C   -0.0361913530    1.2193272755   -0.0017437805
 C    1.3736366297    1.7437449445   -0.2786956639
 C    1.3771139584    2.8330674991   -1.3146651788
 N    1.9701337743    2.5856819717   -2.4927513005
 C    1.9250956222    3.5845600830   -3.3619811498
 C    1.2824586742    4.7804798672   -3.0419402032
 N    0.6976426254    4.9576183277   -1.8605136923
 N    0.7511166219    3.9682598155   -0.9765947622
 H   -0.8073679934    2.0152353025    0.0734815795
 H    1.7319694893    2.1624812393    0.6709703038
 H    2.0182288454    0.9174352806   -0.5776926101
 H    2.4006955513    3.4336347307   -4.3283416611
 H    1.2264987646    5.6120910195   -3.7365103707