15

 C   -0.0331359110    1.5321529134    0.0796305390
 C   -0.0108649820    0.0475242837   -0.0461847126
 C    0.0158022234   -0.7992974728   -1.1479818987
 C    0.0285981512   -2.1526766336   -0.7103996344
 C    0.0094658070   -2.1086603607    0.6551968985
 N   -0.0140653683   -0.7797925831    1.0359019190
 N    0.0284266400   -0.3748716465   -2.5101266802
 O    0.0523295405   -1.2446494295   -3.3773741964
 O    0.0146544812    0.8373514871   -2.7380826775
 H    0.8421422907    1.9790563409   -0.3991892119
 H   -0.9076350250    1.9547796039   -0.4221254009
 H   -0.0510950088    1.8314158710    1.1322273120
 H    0.0492575889   -3.0210951379   -1.3459601737
 H    0.0103849612   -2.8950314234    1.3916351203
 H   -0.0316248690   -0.4536186526    1.9879406376