18

 C   -0.1987112188    1.3658589039    0.0719115304
 O    0.2964247098    0.0629776814   -0.1609694286
 C    0.7825614991   -0.5610749451    0.9865651787
 C   -0.1552259033   -1.3453601428    1.9541879466
 C   -0.9884246764   -2.2321903935    1.0096820049
 C    0.1891692367   -2.7527114234    0.1250510103
 C    1.3260462908   -1.9938395068    0.8364243965
 O    1.0029977047   -2.1841408549    2.2500698118
 H    0.5770751386    2.0214781996    0.4952698593
 H   -0.5165980966    1.7694273626   -0.8919247167
 H   -1.0594945689    1.3625046281    0.7565290900
 H    1.4776919500    0.0749036368    1.5483434368
 H   -0.6231316231   -0.9115033060    2.8377337520
 H   -1.4968284014   -3.0279387248    1.5573482712
 H   -1.7255248059   -1.6595007069    0.4420933570
 H    0.3320341845   -3.8324815202    0.1973733643
 H    0.0939832953   -2.4687147211   -0.9247711600
 H    2.3614439349   -2.2159334768    0.5800583555