19

 O   -0.2370008277    0.2389677236    0.5216746962
 C    0.0625789350    1.1393700248   -0.2158594801
 C    1.3734451796    1.8999262192   -0.1206521514
 O    1.3830672611    2.8803282862   -1.1334713988
 C    2.5230440505    3.6589583051   -1.1736195651
 C    3.9975336610    3.2100729990   -1.4384356793
 C    4.0123424008    4.7609367395   -1.3140448307
 C    2.7333930121    4.7874265037   -2.2038377560
 C    3.0792882386    4.6246426670   -0.0764394017
 H   -0.6005265517    1.4927958891   -1.0357244191
 H    1.4533812974    2.3439927515    0.8838401305
 H    2.2054168337    1.1867164938   -0.2294742589
 H    4.5032816324    2.6537831917   -0.6448674407
 H    4.2104530565    2.7948764204   -2.4268308166
 H    4.8805378855    5.4084518872   -1.4012405953
 H    2.8527605722    4.4799030560   -3.2456828187
 H    2.0853350345    5.6620699639   -2.1074933025
 H    2.4601600200    5.4912065639    0.1693127635
 H    3.5184094284    4.1709584144    0.8159384048