21

 C    0.1638073490    1.5270618268    0.0187100612
 C    0.0406518173    0.0081777447    0.0081111493
 C   -1.4081963646   -0.4224068179   -0.2289569314
 C    1.0280825111   -0.7554929919   -0.9740499703
 O    1.9906038115   -0.0148955542   -1.6680816153
 C    1.5885350480   -1.5503785907    0.2336729532
 O    2.7589410214   -0.8763194713    0.7606384648
 C    1.9664709298   -0.2412012940    1.8033026246
 C    0.6573063927   -0.7839115952    1.2131591204
 H    1.2044563829    1.8587958918    0.0426952060
 H   -0.2807657877    1.9508900723   -0.8876124498
 H   -0.3565911351    1.9582483625    0.8818439143
 H   -1.7684781988   -0.0535274449   -1.1957847983
 H   -1.5089188214   -1.5140502684   -0.2311675134
 H   -2.0706374345   -0.0309753855    0.5516380591
 H    0.4845573600   -1.3692111331   -1.7004070309
 H    2.7238940461    0.0988876815   -1.0438458687
 H    1.7265953882   -2.6320652199    0.1688472460
 H    2.2202056383   -0.6612085827    2.7840240645
 H    2.1092063072    0.8436996537    1.8311457872
 H   -0.0419124616   -1.2611640435    1.8991482376