21

 C   -0.2749419877    1.3982380623   -0.2802446093
 C    1.1036401686    1.3688724603    0.3296031351
 C    0.3446302678    0.0800668066    0.1165828843
 C   -0.1980173747   -0.6884736130    1.2890737116
 C   -1.2575601443   -1.7837181011    1.0087498552
 O   -0.4324917685   -2.8049519720    1.6134585956
 C    0.6207379289   -1.8652575674    1.8312411436
 C    2.0528932101   -2.2233060426    1.5998176164
 C    1.5293448098   -1.9636448729    3.0083186789
 H   -1.0893847226    1.7787655941    0.3277403895
 H   -0.3668065861    1.6264770834   -1.3361414733
 H    1.9545270030    1.5770054102   -0.3093171474
 H    1.2145147423    1.7307832213    1.3466666536
 H    0.6947147943   -0.5465872005   -0.6997717089
 H   -0.5092322637    0.0033705763    2.0787709736
 H   -2.2180520130   -1.6776993677    1.5248248703
 H   -1.4383239491   -1.9831260302   -0.0551745017
 H    2.2646675922   -3.2525104002    1.3301644383
 H    2.7067761243   -1.4865907209    1.1444102339
 H    1.8276194318   -1.0508596046    3.5147543250
 H    1.4005942864   -2.8230672914    3.6578241357