18

 C    0.0928671040    1.6103674931   -0.1511675143
 C    0.6226668569    0.1949547461   -0.2417386931
 O    2.0813774774    0.1422437588   -0.2033414476
 C    2.0762721163   -0.6146352535    1.0257739436
 C    0.5286620674   -0.6898098847    1.0261969660
 O   -0.1457046818   -0.0779953086    2.0915126058
 C    2.7980515056   -1.9517675725    0.9659373808
 N    3.4166834696   -2.1957045906   -0.2134889417
 O    2.7693635563   -2.7097444180    1.9189588177
 H    0.4214752203    2.0948373669    0.7701871395
 H    0.4491410811    2.1917629886   -1.0068205991
 H   -1.0014411014    1.6067237773   -0.1655192294
 H    0.2557844183   -0.2991421822   -1.1495879598
 H    2.4720119069   -0.0378688468    1.8700447074
 H    0.1493122034   -1.7003549087    0.8357474021
 H   -0.1117250491   -0.6742241825    2.8468848831
 H    3.3750840217   -1.5021351272   -0.9422134482
 H    3.9257524771   -3.0538395053   -0.3418387930