18

 C    0.0038504809    1.6716828202    0.1861700953
 C   -0.2566236957    0.1612828588    0.2091909177
 C    0.7114906935   -0.5770774331    1.1293338186
 C    0.6826044765   -2.1360413570    1.2288244368
 O    0.0858562465   -2.6630790643    0.0617393996
 C    2.2431257446   -2.1735270391    1.1927732991
 C    2.1946082346   -0.7042733918    0.7339246021
 O    2.9765842419    0.0220983212    0.1919898581
 H    1.0268174487    1.8833269142   -0.1361589981
 H   -0.6842440073    2.1755457847   -0.4994260021
 H   -0.1329475097    2.1136738406    1.1798619455
 H   -1.2828586955   -0.0426301748    0.5378999412
 H   -0.1707943993   -0.2526673495   -0.7996328909
 H    0.6713294170   -0.1556959364    2.1436569373
 H    0.2178875915   -2.5412451407    2.1353914980
 H    0.2261228814   -3.6151034111    0.0553355428
 H    2.7046917938   -2.2744428200    2.1807417034
 H    2.7037803768   -2.8864478619    0.5041197458