20

 C   -0.1101391570    1.5267110249   -0.0880002777
 C    0.0174138180    0.0103036665   -0.0052257151
 C    1.1938955538   -0.5960604590   -0.8183906076
 C    2.0910615764   -0.4086299655    0.4265807153
 C    0.7706219451   -0.5904996241    1.2414459173
 C    0.6173790934    0.0073573437    2.6207445070
 N    0.4716062138   -2.0381987773    1.2691814496
 C    0.5889649308   -2.6088693542    0.1437838203
 O    0.9501827416   -2.0058818056   -1.0157961835
 H    0.8388230967    2.0451710447    0.0801189911
 H   -0.4763177376    1.8251822490   -1.0765929907
 H   -0.8238265237    1.8975648733    0.6544408767
 H   -0.9526037013   -0.4569338126   -0.2011977787
 H    1.4742971703   -0.1907840211   -1.7906228820
 H    2.8879131385   -1.1364427355    0.5921492650
 H    2.4903865313    0.6046972782    0.4864966620
 H    0.8346280536    1.0795566734    2.6194979244
 H   -0.4015302992   -0.1441374472    2.9919514629
 H    1.2994269309   -0.4839917619    3.3219709490
 H    0.4077764847   -3.6713585197    0.0028360346