17

 N   -0.0453721251   -1.2029114407    0.0274361687
 C   -0.0226347211   -0.0483539867    0.0574492312
 C   -0.0062582123    1.4124639178    0.0565618483
 C    1.4218188965    1.9973331170    0.0792390385
 C    1.4043351650    3.5188186482   -0.1163691502
 C    2.7996567809    4.0586956007    0.1725036564
 O    3.2570316253    3.6525129932    1.4718608870
 C    2.8495766642    2.4325059644    1.8877993772
 N    2.0602073868    1.6133263172    1.3344954978
 H   -0.5390980684    1.7639552024   -0.8344736236
 H   -0.5560390022    1.7736532636    0.9325466589
 H    1.9823001088    1.5337550617   -0.7437380683
 H    1.1032406241    3.7930346696   -1.1326973839
 H    0.6861531506    3.9732665304    0.5769415822
 H    3.5186835002    3.6962539786   -0.5730454300
 H    2.8281156200    5.1503803884    0.1744992437
 H    3.3077755465    2.1981526243    2.8467496661