21

 C   -0.1779746310    1.5446985688   -0.0163496066
 C    0.0717257284    0.0450834840    0.0065277780
 C    1.1714596726   -0.5503543362   -0.9068521266
 O    2.4160577432    0.1788480271   -0.7920397605
 C    2.7665705806   -0.5397642607    0.4131748586
 C    2.0716286252    0.0533855903    1.6566653234
 C    0.7451815543   -0.6498091042    1.2395200209
 C   -0.1525516287   -1.1875766108    2.3297689407
 C    1.5846561827   -1.5308256526    0.2230315593
 H    0.7661440163    2.0944226109    0.0195711137
 H   -0.6981529170    1.8409448130   -0.9340784384
 H   -0.7962208419    1.8614489815    0.8309626491
 H   -0.8578414813   -0.5032334780   -0.1993739184
 H    0.9389242995   -0.7957321899   -1.9456157787
 H    3.8304555652   -0.7828448164    0.4481880258
 H    2.4680107500   -0.4080574176    2.5685902607
 H    2.0852672424    1.1407278300    1.7705182875
 H   -0.6233647246   -0.3699666288    2.8897907598
 H   -0.9548772583   -1.8102775082    1.9176764420
 H    0.4090412606   -1.7958311095    3.0481193593
 H    1.6298553118   -2.6158982425    0.1753577504