19

 C    0.1952914572    1.3471473144   -0.7571539181
 C   -0.1722805429    0.0824481636    0.0088202907
 C    0.3811478142   -1.2284725040   -0.6166997514
 O    1.4386307437   -1.2751058591    0.3653648613
 C    0.7946279821   -0.2597710546    1.1600427701
 O   -1.5121358939    0.0539803570    0.4691503741
 C   -2.5339010031    0.3647892865   -0.4618677190
 C   -2.5807967236   -0.5051896101   -1.6406311250
 C   -2.6213068646   -1.2030489041   -2.6187147860
 H    1.2710543276    1.3497121020   -0.9536400908
 H   -0.3159876514    1.4035193341   -1.7229154221
 H   -0.0504086593    2.2402717628   -0.1729029280
 H   -0.3132422126   -2.0705426669   -0.5187890050
 H    0.7684944876   -1.1804858692   -1.6398149581
 H    1.4904393965    0.5225188150    1.4833853156
 H    0.2713573500   -0.6779915360    2.0292597543
 H   -3.4680770864    0.2687029079    0.1012931369
 H   -2.4664703816    1.4111575271   -0.7929862224
 H   -2.6628592597   -1.8254834066   -3.4786426571