22

 O    0.1304500665    0.7532341586   -1.1958844860
 C    0.1175389432    1.4229742195   -0.1846578338
 N    1.1515482543    1.5541329248    0.6886230636
 C    2.4504893271    0.9299458915    0.4881741316
 C    3.5594025630    1.9387212671    0.1698012495
 C    4.9235152098    1.2667641289   -0.0325938393
 C    6.0312598009    2.2534494140   -0.3353013819
 C    6.7634160563    2.9463708573    0.7879079239
 C    7.4688882583    1.9062411092   -0.0489200666
 H   -0.7674710903    2.0058743953    0.1413340185
 H    1.0262018421    2.1694930405    1.4768260116
 H    2.7153318202    0.3492251115    1.3814509418
 H    2.3220840495    0.2264680399   -0.3380060159
 H    3.2801253705    2.4966734550   -0.7322517602
 H    3.6341441775    2.6752765355    0.9811304663
 H    5.1883551196    0.6959345539    0.8683785408
 H    4.8486973006    0.5329151021   -0.8466805567
 H    5.8604203982    2.8541839360   -1.2258305954
 H    7.0449572796    3.9863703955    0.6651835858
 H    6.4970900516    2.6776310133    1.8055792727
 H    7.6751024284    0.9439048616    0.4086208633
 H    8.2304673432    2.2357597290   -0.7469784738