25

 C    0.1474128395    1.4380823708    0.0878264536
 C    0.0422598406   -0.0904684631    0.1099439320
 C   -1.3945809903   -0.6183272775    0.0749834189
 C   -2.1979474231   -0.2722014492   -1.2097140577
 C   -3.2260344672   -1.3924198765   -1.3704520348
 C   -2.7991392178   -2.7029575280   -1.9964909953
 C   -1.5532002450   -2.8791254451   -2.8358992655
 C   -2.7989275253   -2.5561625516   -0.4898929486
 C   -1.5045555860   -2.1611546024    0.2197540460
 H    1.1909288627    1.7651276733    0.1357356797
 H   -0.2892718607    1.8577403578   -0.8243933803
 H   -0.3791862958    1.8821549399    0.9403402859
 H    0.5967771599   -0.5084084595   -0.7423460603
 H    0.5401473607   -0.4736305453    1.0103463680
 H   -1.9402558839   -0.1772845957    0.9210842223
 H   -2.6921630585    0.6997133826   -1.1247720121
 H   -1.5300920632   -0.2016326978   -2.0780646585
 H   -4.2713656787   -1.1145282495   -1.4529607704
 H   -3.6360681729   -3.2911525782   -2.3682156072
 H   -0.7092186066   -2.2844754982   -2.4779936679
 H   -1.2332178229   -3.9273547981   -2.8422305439
 H   -1.7404872383   -2.5845998280   -3.8748130253
 H   -3.5331142157   -3.1254683729    0.0701141203
 H   -0.6294078207   -2.6551741320   -0.2214404292
 H   -1.5257421308   -2.4592921356    1.2723652100