17

 C   -0.0201926081    1.3515269628   -0.0337118934
 N    0.0704662602   -0.0867275904    0.0463509072
 N    0.0439426386   -0.8185983827   -1.1056043466
 C    0.0329785066   -2.0757047698   -0.6896878485
 O    0.0278393728   -3.1077283252   -1.5607844275
 C    0.0365790293   -2.1884165416    0.7153900008
 C    0.0541784022   -0.8780370244    1.1498028895
 C    0.0456452779   -0.3305589904    2.5430090626
 O    0.2077287129   -1.4139335818    3.4371076504
 H    0.5672120543    1.8130279104    0.7648866678
 H    0.3856359857    1.6604744962   -0.9974374780
 H   -1.0568643395    1.7033999579    0.0413503418
 H    0.0321210692   -2.7254742621   -2.4471776400
 H    0.0433695354   -3.0769241482    1.3210483531
 H    0.8543038634    0.4117329039    2.6603485721
 H   -0.9012490130    0.2049993505    2.7299270486
 H    0.1070945823   -1.0796253053    4.3327350602