18

 C   -0.0189383095    1.5285784441    0.1385721059
 C    1.3024817907    0.8134263670   -0.0194402349
 C    0.0023192530    0.0252924788   -0.0105811381
 C    0.0310949609   -0.6412802531   -1.4117525640
 O    1.4346678245   -0.8888469035   -1.5924079541
 C    1.8661595975    0.4711097120   -1.4242580560
 C    1.0316001307    1.1985665388   -2.4878267652
 N    0.6781855642    0.3361353262   -3.6359039396
 C   -0.2384412236    0.4286761234   -2.4791828095
 H   -0.2393828387    1.9034346868    1.1340224060
 H   -0.4042147655    2.1552492430   -0.6541489410
 H    1.9861107701    0.7747062212    0.8202473102
 H   -0.2711783077   -0.5936164005    0.8356301769
 H   -0.5197325751   -1.5774230779   -1.4925599794
 H    2.9500628349    0.5259194258   -1.5162034211
 H    1.0728638310    2.2761298162   -2.5939436126
 H    0.3072769316    0.9397894506   -4.3679767918
 H   -1.2139085989    0.8899012612   -2.5783824217