20

 C   -0.0030042443    1.4127615368   -0.3232309189
 N    0.0132326631   -0.0095464509   -0.1038735898
 C    0.0039852854   -1.0612165975   -0.9879578213
 O   -0.0201896282   -1.1026524310   -2.1909361295
 C    0.0360343319   -2.0767323089    0.1761740434
 C    0.0447734827   -0.8276589649    1.1068267359
 C    1.1519329360   -0.6792821400    2.1816047725
 C    0.0907137082   -1.0539504209    3.2530354910
 C   -1.0196209497   -0.6971859922    2.2261916722
 H    0.8915780346    1.8978193553    0.0861702373
 H   -0.0267099517    1.5776791965   -1.4030812259
 H   -0.8877611918    1.8831375795    0.1229825861
 H   -0.8509023258   -2.7098396127    0.2454089379
 H    0.9349184108   -2.6957256795    0.2090988777
 H    2.0409723725   -1.3068137937    2.0819211091
 H    1.4697066584    0.3635322634    2.2817020296
 H    0.1042980079   -2.1218545999    3.4852366804
 H    0.1053168797   -0.4935308037    4.1892136224
 H   -1.3501243811    0.3402981366    2.3395918591
 H   -1.9015599786   -1.3392932522    2.1628920707