15

 O   -0.0015471239    0.0091724557    0.0064012983
 C   -0.0247999019    1.2063481991    0.0143607511
 C   -1.2613124182    2.1295898305    0.0272598453
 C   -0.5877936406    3.5094845517    0.0225796490
 C    0.6228066770    3.3007529748   -0.9027369699
 C    1.1907234459    2.1642266486   -0.0166837619
 C    1.1489191832    2.8732971035    1.3451643848
 O    1.8782461749    2.7790853487    2.2831722468
 O    0.0454667706    3.6863245505    1.3212861293
 H   -1.8700128001    1.9578979106   -0.8661014740
 H   -1.8828194417    1.9536651308    0.9080321600
 H   -1.2299212815    4.3686785202   -0.1567868348
 H    0.3496087668    2.9802775708   -1.9109163042
 H    1.2750592796    4.1748170389   -0.9546666720
 H    2.1413301800    1.6927037355   -0.2440208977