16

 C    0.2323668259    0.8686378628   -1.0131896261
 C    0.0213771156   -0.0464158274    0.1695889644
 O    0.7514050446   -0.0980424515    1.1279996792
 C   -1.2139366099   -0.9681960889    0.1002786120
 O   -2.3744680068   -0.1854120624   -0.0295665225
 C   -3.3018222586   -1.0015787845   -0.7375332017
 C   -2.3988018532   -1.7539255302   -1.7204637597
 O   -1.1381867560   -1.7994306683   -1.0487224218
 H    1.1183821748    1.4832752717   -0.8542879408
 H    0.3471591862    0.2686679809   -1.9215055356
 H   -0.6507375555    1.4996243044   -1.1518348853
 H   -1.2408224802   -1.5887558350    1.0103634655
 H   -3.8134623052   -1.6920358465   -0.0517831164
 H   -4.0390835121   -0.3527058159   -1.2135885453
 H   -2.7408040087   -2.7734600997   -1.9235138738
 H   -2.2932753410   -1.2170405495   -2.6713180621