15

 O    0.1053917257    0.1123137712    0.1669404879
 C    0.0594155475    1.3067409449    0.1481231337
 C   -1.0508985438    2.3171389838    0.1004911588
 C   -0.1489951930    3.1923541045   -0.7814150234
 C   -0.4605914944    3.6457000523    0.6130698178
 C    0.9616898187    3.3577924714    1.0367734135
 C    1.9444518082    4.2605029402    1.6235876546
 O    1.4409410580    3.1093504313    2.3350082309
 C    1.0942805259    2.4162356320   -0.1675957876
 H   -2.1187030357    2.1644836093    0.0269875726
 H   -0.3338764486    3.6051420052   -1.7593030232
 H   -1.1208850057    4.4407502734    0.9341319741
 H    2.9892315489    4.2002427640    1.3227883861
 H    1.6296160559    5.2244764551    2.0216458267
 H    2.0447851424    2.1901998014   -0.6410308825