21

 C   -0.2068219014    1.3682074210    0.4218605059
 C   -0.0253148939   -0.0635239552   -0.0557199647
 O   -1.3139369044   -0.6657236998   -0.1163381622
 C   -1.3502913271   -2.0762654404   -0.2417080923
 C   -0.6437943876   -2.5677018292   -1.5057288703
 O   -0.7382057079   -2.7113054502    0.8808955508
 C   -1.7324558827   -3.1865721924    1.7828739201
 C   -3.0251091294   -3.0737392569    1.0253627421
 C   -2.8085167579   -2.4638590104   -0.1316042017
 H    0.7593770213    1.8803419033    0.4674528311
 H   -0.8601984481    1.9215043209   -0.2591770081
 H   -0.6589215108    1.3862343550    1.4175186123
 H    0.4551522171   -0.0734360735   -1.0455541330
 H    0.6155158253   -0.6250317261    0.6354426041
 H    0.4353565696   -2.4136538694   -1.4313128186
 H   -0.8242585357   -3.6370877267   -1.6366888824
 H   -1.0184034317   -2.0315615040   -2.3822631980
 H   -1.4858432035   -4.2195315943    2.0640260516
 H   -1.7468727698   -2.5887159413    2.7078587144
 H   -3.9718933589   -3.4306145728    1.4106484468
 H   -3.5317590225   -2.2043999076   -0.8925804080