21

 C    0.0388610802    1.4148744048   -0.5242258835
 C    0.0351576077    0.1175055957    0.2963396183
 C   -1.3344342014   -0.5064037537    0.3780144916
 O   -1.8624349826   -1.0453335682   -0.8690027162
 C   -1.6765207277   -1.9431039348    0.2359136618
 C   -0.7119970968   -3.0777795831    0.0219185121
 C   -2.9710840772   -2.1892524191    1.0174286260
 C   -3.3275590880   -0.8199636508    1.5529592206
 C   -2.4191940642    0.0985128156    1.2209397016
 H    1.0470272344    1.8350313260   -0.5860051859
 H   -0.3168942565    1.2219038097   -1.5401893470
 H   -0.6120365079    2.1750120480   -0.0797418138
 H    0.7334956229   -0.5962036021   -0.1516408321
 H    0.3921626661    0.3152260540    1.3151330087
 H    0.1771442866   -2.7445108006   -0.5174433628
 H   -0.4024479972   -3.5135742419    0.9777639010
 H   -1.1832014878   -3.8706158944   -0.5701727662
 H   -3.7544840598   -2.5969781124    0.3664826712
 H   -2.8182777599   -2.9175431256    1.8249106699
 H   -4.2377888286   -0.6328718549    2.1116091816
 H   -2.4485404921    1.1482334977    1.4873545630