18

 C    0.0439500194    1.5080836707    0.0793969340
 C   -0.0176910335    0.0157944962   -0.0037925511
 C   -0.0844682644   -0.7376374148   -1.1065003879
 C   -0.0561232862   -2.2005206308   -0.7959020201
 O   -0.8839439458   -3.0752025916   -1.5031264684
 C    1.2175105005   -2.7071295372   -0.1539539431
 C    0.0450103204   -2.2789118380    0.7103795379
 C    0.0184322099   -0.8518058077    1.2466206014
 H    0.9814401783    1.8458235192    0.5397777085
 H   -0.0317934183    1.9708035464   -0.9083869958
 H   -0.7673313054    1.9028410777    0.7048520232
 H   -0.1262976127   -0.3611487093   -2.1233671262
 H   -0.4143631448   -3.3519709387   -2.2969412665
 H    1.3924945530   -3.7776341027   -0.2028344947
 H    2.1089548249   -2.0886290022   -0.1974109500
 H   -0.4839570350   -3.0615465729    1.2400764430
 H    0.8943652222   -0.6242443753    1.8693360128
 H   -0.8614688726   -0.6674887790    1.8784353530