19

 C    0.1166208925    1.5686865985    0.3271409270
 C   -0.0114591526    0.0555474919    0.1330043352
 C    0.9190334211   -0.7465450758    1.0496126537
 O    0.6967380530   -0.4607889515    2.4277810290
 C    0.8178051227   -2.2513298917    0.7847233562
 O    1.8358251620   -2.9795062896    1.4560060263
 C    1.5983830572   -3.3582125103    2.7286821013
 N    2.5169736065   -3.8971379388    3.4047432957
 H    1.1227936601    1.9120566441    0.0646760803
 H   -0.5975838442    2.1086897687   -0.3009279542
 H   -0.0630915437    1.8435653774    1.3697285496
 H   -1.0496053576   -0.2600979660    0.3183381745
 H    0.2034569269   -0.2094786774   -0.9095072808
 H    1.9590544251   -0.4484172270    0.8703146229
 H   -0.2477409655   -0.5523248368    2.6000240906
 H   -0.1782098632   -2.6189578112    1.0766698044
 H    0.9544116217   -2.4602840072   -0.2804636468
 H    0.5686419356   -3.1682754338    3.0563252740
 H    2.1649796426   -4.1483430835    4.3260069510