19

 C    0.1153714913    1.4300494038    0.0625526681
 C   -0.0780054398   -0.0511969011   -0.2424915354
 N   -1.3930042078   -0.4978431877    0.2211551527
 C   -1.7204619643   -1.8379934346    0.1348575508
 C   -2.9073982067   -2.4873509863   -0.0558951553
 C   -2.6089319751   -3.8909686891    0.0628174576
 N   -3.5613460498   -4.9200658785    0.0137509615
 C   -1.2732266066   -3.9854459812    0.2981945895
 O   -0.7189430786   -2.7132964593    0.3514392942
 H    1.1051669652    1.7616172907   -0.2637202109
 H   -0.6274548970    2.0440993376   -0.4603515901
 H    0.0180453271    1.6212204381    1.1349919871
 H    0.0624777578   -0.2378835988   -1.3199967490
 H    0.6751080998   -0.6454259113    0.2807396986
 H   -2.1472356664    0.0885063600   -0.1094535295
 H   -3.8710069916   -2.0389895682   -0.2400806453
 H   -4.2761060435   -4.7496266868   -0.6824483954
 H   -3.1470946050   -5.8277170185   -0.1554999287
 H   -0.5874607290   -4.8010663387    0.4425474396