22

 C   -0.0811731802    1.5951965145   -0.0768884506
 C   -0.1317231720    0.0959727012    0.2060740575
 C    0.7541226269   -0.3392721759    1.3678330863
 O    1.3205973670    0.4657953871    2.0732486968
 C    0.8984773598   -1.8439932933    1.5726780167
 C    1.5255699714   -2.2576033766    2.9111860602
 C    0.5790889536   -1.9710126091    4.0851407309
 C    1.9415188528   -3.7336122782    2.8825184558
 H    0.9297612870    1.9075424183   -0.3525095755
 H   -0.7583583938    1.8589854703   -0.8940570372
 H   -0.3650896051    2.1663854528    0.8100857703
 H   -1.1561322765   -0.2242340099    0.4457726988
 H    0.1459656802   -0.4915645098   -0.6794647088
 H   -0.0813880976   -2.3213626713    1.4310428164
 H    1.5150974877   -2.2072436324    0.7362890617
 H    2.4226597969   -1.6424287093    3.0474772646
 H   -0.3472653427   -2.5521987985    3.9935719356
 H    1.0451192460   -2.2430903161    5.0378484920
 H    0.3174106016   -0.9110245851    4.1313578860
 H    2.6538273408   -3.9353256099    2.0750122160
 H    2.4135525292   -4.0261956135    3.8261168742
 H    1.0737142370   -4.3873062154    2.7313151826