17

 C   -0.2349586817    1.4392368582    0.0472272237
 C   -0.0528777222   -0.0404671095    0.0111423643
 N   -0.0252861141   -0.7439334794   -1.1213321811
 N    0.1608921445   -1.9922811861   -0.7128913169
 N    0.2617085182   -2.1796679712    0.6018574824
 C    0.1271307428   -0.9449516561    1.0860535676
 N    0.2320752876   -0.6219736954    2.4415942500
 C   -0.9998878054   -0.5051255387    3.2367904828
 C   -0.0719841360   -1.6536870347    3.4252768213
 H    0.5413952873    1.9112607183    0.6580293440
 H   -0.1871927028    1.8486718942   -0.9637534104
 H   -1.2010851218    1.7180863849    0.4836540340
 H    0.2577456194   -2.7536343638   -1.3630505730
 H   -1.0152548529    0.3161321131    3.9465729999
 H   -1.9422654131   -0.7037566210    2.7324074926
 H   -0.3853028640   -2.6224752559    3.0484859164
 H    0.5938576946   -1.6798444068    4.2823632524