15

 N   -0.0030059222   -1.1554540362   -0.1296974341
 C    0.0041229405   -0.0057021818   -0.0240697743
 C    0.0017626072    1.4597972525    0.0201103575
 O   -0.5839644467    1.9152696134    1.2454205984
 C    0.1836503882    3.0205475540    1.6764210919
 C    1.6605820059    2.8260130859    1.9461281767
 N    2.0755292367    1.5695321676    1.2870656028
 C    1.4106441138    2.0749634371    0.0302691815
 C    1.1728054168    3.4788167930    0.6540704548
 H   -0.5814266551    1.8319997077   -0.8362701210
 H   -0.3798576013    3.7195909958    2.2810414382
 H    2.1754658993    3.2307472284    2.8095625312
 H    3.0820404354    1.5975767881    1.1451936165
 H    1.9750686039    1.9633380010   -0.8932325569
 H    1.2658777576    4.4564377937    0.1988966270