16

 N   -0.0316716766    1.1989663841    0.3482010466
 C    0.0010374832   -0.0125804194    0.0036695292
 O    1.1316745807   -0.6707482434   -0.4309191737
 C    0.8088360566   -1.9145858105   -1.0442656622
 C    1.7340338816   -3.0176191133   -0.5561170551
 O    2.4455479547   -2.9432804796    0.4075556259
 C   -0.6502931570   -2.2135832431   -0.6821545066
 C   -0.9512641249   -2.2271879739    0.7884156561
 C   -1.1482778175   -0.9543831581   -0.0103211247
 H    0.8862619256    1.6314312101    0.2335574268
 H    0.9172998899   -1.8253097350   -2.1354051808
 H    1.6631986732   -3.9452331661   -1.1700616049
 H   -1.2553592340   -2.7762531398   -1.3807079304
 H   -1.8513924882   -2.7396187936    1.1065886249
 H   -0.1239280172   -2.2747566099    1.4888301962
 H   -2.1398804800   -0.5493707885   -0.1544648275