23

 C    0.5465603290   -0.4494446507    1.0258232513
 C    0.5762258665   -1.7328413400    0.1812356918
 C    0.9515012656   -1.4771321671   -1.2529404635
 C    2.3557850477   -1.1050228857   -1.7229951341
 O    2.1963704396   -1.8588841297   -2.9528543154
 C    0.8969510494   -2.3055020439   -2.5275247626
 C    0.5274530923   -3.7106785189   -2.8770310482
 C   -0.0088946736   -1.1090448971   -2.3868120176
 C   -1.4984275453   -1.2983171217   -2.1930116764
 H    1.5222291710    0.0484998556    1.0243149739
 H   -0.1879555824    0.2623208330    0.6355425571
 H    0.2868698926   -0.6679227817    2.0662928414
 H    1.2927646339   -2.4393339978    0.6214363892
 H   -0.4014321296   -2.2240469055    0.2334853078
 H    2.5717615695   -0.0452504147   -1.9087745809
 H    3.1532192207   -1.5385233201   -1.1051652973
 H    1.2519551955   -4.4210078245   -2.4665317376
 H   -0.4647725944   -3.9681155194   -2.4979854179
 H    0.5152457006   -3.8351005702   -3.9663000387
 H    0.2548383111   -0.2459907995   -2.9985410272
 H   -1.7346173179   -2.1966530193   -1.6154897701
 H   -1.9411906040   -0.4459231984   -1.6658912945
 H   -2.0052341578   -1.3892938025   -3.1597966606