17

 C   -0.0983689525    1.5734714190    0.0250165656
 C    0.1616393644    0.0827166973    0.0352289637
 O    1.3207039874   -0.3514048992   -0.7552467136
 C    1.7774106261   -1.1812181862    0.3143663643
 C    2.2202115544   -0.3120223040    1.4276753435
 O    2.7983330206    0.9269920348    1.1948140136
 C    0.7143197266   -0.6168090699    1.2868137407
 C   -0.0620281325   -1.2234351701    2.3060780062
 C   -0.7311362967   -1.7235363912    3.1736011188
 H    0.7301144521    2.1314156125    0.4634122882
 H   -0.2694536389    1.9190274681   -0.9996733189
 H   -1.0019981938    1.7838997125    0.6066106473
 H   -0.7128766869   -0.4646408666   -0.3357834721
 H    2.0886199852   -2.1934644415    0.0811772389
 H    2.6547505859   -0.8179765013    2.2845454636
 H    2.7426688054    1.0699817399    0.2394643781
 H   -1.3183151569   -2.1642811840    3.9404543320