14

 O   -0.6780954628    0.8154858757    0.5749105982
 C    0.1016239804    1.0710842879   -0.3078126356
 C    1.2943003898    1.9850117509   -0.1979397806
 C    1.0927327537    3.5126605132   -0.5902022957
 C    0.3645055539    3.6799249797    0.7850603639
 C    1.5837406780    2.7496942440    1.1383601719
 C    2.3785121503    3.7103251177    0.2378710137
 O    3.4099681809    4.3018251937    0.1994163754
 H   -0.0058187868    0.6095447133   -1.3161163234
 H    2.1494863540    1.5080235868   -0.6899633219
 H    0.8134437871    3.9128456250   -1.5620672316
 H    0.3659659729    4.6806790564    1.2190873276
 H   -0.6074372443    3.2000620599    0.8679596276
 H    1.8375061230    2.3143418059    2.1010053904