21

 C   -0.1372003481    1.5969426443   -0.0267656090
 C    0.0275363899    0.0875533060    0.0190874713
 C    1.1918423006   -0.5949807599   -0.7492034098
 O    2.3513805695    0.1020735409   -0.2612630805
 C    2.1931621908   -0.1004910286    1.1714205800
 C    3.0599455922   -1.3095692665    1.5269156584
 C    2.4029825793   -2.4335173712    0.6704754889
 C    1.0738083742   -1.8005307276    0.2375914991
 C    0.7328931190   -0.6193951651    1.2093436330
 H    0.8297791385    2.0991135779    0.0556882038
 H   -0.5984010514    1.9121547052   -0.9693175978
 H   -0.7804849711    1.9482166665    0.7876081686
 H   -0.9178910465   -0.4214556754   -0.1951226402
 H    1.2446032362   -0.6878593057   -1.8343141890
 H    2.4163624984    0.8256441345    1.7047775496
 H    4.1090662602   -1.1340443348    1.2770339269
 H    2.9984678483   -1.5300917312    2.5992555012
 H    3.0209894769   -2.6998204282   -0.1919500699
 H    2.2401338253   -3.3476722086    1.2484347036
 H    0.2534992936   -2.4811713703    0.0106636443
 H    0.2723576242   -0.7576221022    2.1878857278