19

 C   -0.0134637855    1.5024218452    0.0918681035
 C   -0.0684763773    0.0112348742    0.0106994164
 C    0.0621325711   -0.7744837754   -1.0656672617
 C    0.0129711370   -2.2125790278   -0.6566009270
 C    0.8893426611   -2.6829661489    0.5243959935
 C   -0.5548891937   -2.2875380442    0.7336466976
 C   -0.0845277202   -0.8835812573    1.2368182456
 C    1.3631837771   -1.5180741094    1.3778066827
 O    1.6325828325   -2.0083782729    2.6759270102
 H    0.8509494639    1.8444842633    0.6767460646
 H    0.0550534120    1.9563115830   -0.9006920283
 H   -0.9034990835    1.9071570065    0.5908628087
 H    0.2100310045   -0.4428607817   -2.0865011946
 H   -0.2297180302   -2.9885359376   -1.3739372465
 H    1.3454905425   -3.6654794566    0.5245001948
 H   -1.4134701276   -2.8672251323    1.0486655889
 H   -0.4939021055   -0.4678506767    2.1586308646
 H    2.1946901749   -0.9002144754    1.0061383002
 H    1.7671395268   -1.2488655961    3.2522646571