22

 C    0.1528636060    1.3662388026    0.0081191634
 O    0.0538132316   -0.0378822007    0.0012145951
 C   -1.2800969200   -0.4954429498    0.0117515948
 C   -1.2276033404   -2.0213863374    0.0028486174
 C   -2.6051006887   -2.7412004162    0.0122018706
 C   -3.4156319865   -2.4214891304    1.2900616749
 C   -3.4399274778   -2.4079771884   -1.2464000175
 C   -2.3285383991   -4.1895818020    0.0017848541
 N   -2.1133822109   -5.3253391929   -0.0061410521
 H    1.2158076288    1.6183508456   -0.0009048837
 H   -0.3266469788    1.8149103937   -0.8764905004
 H   -0.3091361597    1.8049034592    0.9069514337
 H   -1.8037048068   -0.1182280082    0.9057929277
 H   -1.8210654218   -0.1084653812   -0.8676614975
 H   -0.6660495078   -2.3377991414   -0.8821912293
 H   -0.6490921533   -2.3474622896    0.8733390522
 H   -3.7005295894   -1.3662588477    1.3042178522
 H   -4.3299858074   -3.0194914506    1.3254176775
 H   -2.8325542352   -2.6358773826    2.1897379798
 H   -2.8742065473   -2.6126774278   -2.1593166356
 H   -4.3548422997   -3.0056783215   -1.2706115164
 H   -3.7249481060   -1.3526919429   -1.2438116107