18

 C    0.0691647193    1.4558274174   -0.2013488631
 C    1.3052127298    0.7109621935    0.2025081699
 C   -0.0388570500   -0.0424935143    0.0245820708
 C    0.5275848279   -0.6788183704   -1.2139913493
 C    0.3530399045   -1.0753026778   -2.4700937984
 C    1.6531150247   -0.8183895774   -3.2406088935
 C    2.4062258229    0.2376730149   -2.3569869343
 C    1.9091596910   -0.1360719461   -0.9514023537
 H   -0.3697802158    2.0697628909    0.5798530045
 H   -0.0490566725    1.8569726086   -1.2038448260
 H    1.8196258017    0.9387916105    1.1282788936
 H   -0.7041875956   -0.4632345792    0.7676011875
 H   -0.5455130911   -1.4602898215   -2.9379173475
 H    2.2523242586   -1.7337558027   -3.3559165217
 H    1.4606083867   -0.4483488942   -4.2537398064
 H    3.4920573585    0.2014675217   -2.4843378388
 H    2.0662119716    1.2426575822   -2.6318142035
 H    2.5458576377   -0.9104672260   -0.5010604201