16

 C    0.0583766318    1.5305934769    0.0407174867
 C   -0.0132997894    0.0452314898    0.0307004787
 C   -1.0853833909   -0.7702297590   -0.0314429464
 C   -0.6395833147   -2.2220062207   -0.0129966836
 N    0.7939997243   -2.0965589175    0.0660728284
 C    1.2271212282   -0.7907311271    0.0952916400
 O    2.3761837229   -0.4047907771    0.1599727233
 C   -2.4488827395   -0.4155827018   -0.1047392774
 C   -3.6208701869   -0.1408408989   -0.1678854078
 H    0.6596094829    1.8883561340   -0.8024845976
 H   -0.9349257776    1.9808085621   -0.0109877195
 H    0.5653409321    1.8810882169    0.9465814203
 H   -1.0651372389   -2.7548340499    0.8484907235
 H   -0.9682212167   -2.7475536851   -0.9201669391
 H    1.4342726411   -2.8711541343    0.0981593679
 H   -4.6508843187    0.1119845919   -0.2233351575