15

 O   -0.0621590476   -0.0609390126    0.0045452532
 C   -0.0504444302    1.1415097064    0.0114760520
 C   -1.2023601952    2.1010388133    0.0321982899
 C   -0.7273175223    3.3399807262    0.7821209346
 C   -0.7487723306    3.3476127699   -0.7183729101
 C    0.7868265647    3.2813984239   -0.9590745486
 O    1.3283878348    4.2272534505    0.0066535547
 C    0.8146037355    3.2717305269    0.9780265246
 C    1.1253367069    2.1002562300   -0.0010462401
 H   -2.2312614421    1.7669829321    0.0450765149
 H   -1.3828186135    3.9311633659    1.4052743161
 H   -1.4217055261    3.9450511695   -1.3164773556
 H    1.1820472238    3.3869518945   -1.9673752190
 H    1.2385957037    3.3672491024    1.9755827066
 H    2.1365607083    1.7090277611   -0.0175805935