23

 C   -0.1914782990    1.7243851814    0.2936236122
 C   -0.0598047401    0.1980433377    0.3434392071
 C   -1.3021866510   -0.5590625210   -0.1482658119
 C   -1.6134538918   -0.2342104956   -1.6316719580
 O   -2.3355892360   -1.2583248708   -2.3119300155
 C   -2.0254865118   -2.5714087572   -1.8663640510
 C   -2.5019568353   -2.7555263201   -0.4026487374
 C   -1.1530293860   -2.0886740248   -0.0105922714
 C   -0.5720422896   -2.6861333893   -1.3290108986
 H    0.6991973228    2.2088443937    0.7054678438
 H   -0.3184771466    2.0902149054   -0.7304014198
 H   -1.0547485659    2.0646239827    0.8767200142
 H    0.8112830315   -0.1156704776   -0.2481422895
 H    0.1466309483   -0.1113830908    1.3758132974
 H   -2.1551186029   -0.2515065225    0.4734024360
 H   -2.2138967472    0.6743519044   -1.7283465351
 H   -0.6636487390   -0.0492687266   -2.1581504211
 H   -2.3763505702   -3.2532957087   -2.6435960549
 H   -3.4299259632   -2.2495145137   -0.1229455268
 H   -2.5445227433   -3.8088966126   -0.1120025257
 H   -0.6887510062   -2.3643515564    0.9402033871
 H   -0.2878341871   -3.7338680667   -1.2052993775
 H    0.2261731996   -2.1588726110   -1.8569592434