17

 C   -0.1506670738    1.4098661564   -0.0110955518
 N   -0.0385145422   -0.0321209197   -0.0389511873
 C   -1.1865331406   -0.9317787177   -0.2822147051
 C   -0.5471552134   -2.3160329022   -0.0941463868
 N    0.9076262746   -2.0386774212   -0.0587685015
 H    1.2781805437   -2.7327496020    0.6467464535
 C    1.0660135577   -0.7426266585    0.1102510409
 C   -0.8469512401   -2.9928840268    1.3106748438
 O   -2.0033369713   -2.8946082090    1.7134419144
 O    0.1900937477   -3.5151528586    1.7963961342
 H    0.8152906722    1.8509456105    0.2428029083
 H   -0.4709776430    1.7933614834   -0.9862387331
 H   -0.8873227214    1.7100994540    0.7404250701
 H   -1.9796362742   -0.7773700922    0.4582562799
 H   -1.5828000952   -0.7498575900   -1.2872073342
 H   -0.7879898169   -3.0105706857   -0.9000474529
 H    2.0110567562   -0.2821909907    0.3733383178