17

 C   -0.0219872338    1.4583046560    0.0048071703
 N    0.0001745752   -0.0054506726    0.0231903566
 C   -0.0202061715   -0.6596415218   -1.2532897973
 O   -0.0540112940   -0.0090729983   -2.2833658303
 C    0.0036283233   -2.0955857032   -1.1422630378
 C    0.0412337715   -2.6880442494    0.0778927047
 N    0.0592625850   -2.0101397757    1.2632560001
 C    0.0383764680   -0.7059628805    1.1976912529
 C    0.0574332210    0.0660888996    2.4867532417
 H    0.8745855362    1.8676810367    0.4774460581
 H   -0.0528281419    1.7557615754   -1.0417664708
 H   -0.9051647504    1.8412306376    0.5226092616
 H   -0.0097833479   -2.6610820322   -2.0648702923
 H    0.0593631709   -3.7713564887    0.1670321498
 H    0.0885709290   -0.6479892786    3.3081143587
 H    0.9299634599    0.7251446472    2.5485826056
 H   -0.8315773507    0.6971734985    2.5912500386