21

 C   -0.0252649015    1.5353487519    0.0905759074
 C    0.0135017208    0.0343743014    0.0088339285
 C   -0.8804317071   -0.8458230748    0.8445461936
 C    0.6159917937   -0.9723437036    0.9770569801
 C    1.2904204547   -1.7221112265   -0.2031433818
 C    0.3286534753   -2.1934013634   -1.2658184313
 C    0.6887543696   -0.7344646753   -1.1849867482
 C    1.3652922562   -0.0138297753   -2.3170008220
 O    2.2412300624   -0.9230288183   -2.9711168682
 H    0.9525393589    1.9858653512   -0.1136926769
 H   -0.7427076382    1.9627764791   -0.6216762839
 H   -0.3293118055    1.8557717594    1.0923798413
 H   -1.3512457659   -0.3212156634    1.6717945101
 H   -1.5035746203   -1.6312761189    0.4327440866
 H    1.1245667820   -0.7762240962    1.9131678454
 H    2.3131440864   -2.0740418689   -0.1661203982
 H    0.8180426190   -2.6980450528   -2.0919612952
 H   -0.6592274604   -2.5780797483   -1.0392883709
 H    0.6104239180    0.3788803984   -3.0202700817
 H    1.9255804038    0.8524914238   -1.9299026400
 H    2.6303175980   -0.4705627995   -3.7245440046