16

 C    0.0159648997   -1.1947001804    0.0819225033
 C   -0.0110283692    0.0076071677    0.0608371264
 C   -0.0416849586    1.4451048243    0.0470010482
 C    0.5403293002    2.1848101622    1.2485946261
 C    1.2903118713    2.1837496977   -0.0468497696
 C   -1.2200375384    2.0910842659   -0.6293749676
 O   -1.5937394258    1.6065414440   -1.9149978058
 C   -2.5083613433    1.4192610301   -0.8284484953
 H    0.0442043758   -2.2560379399    0.0901163472
 H    0.0365175714    3.0954401233    1.5555302775
 H    0.9121728723    1.5764887737    2.0636232199
 H    2.1831342410    1.5760464172   -0.1262229151
 H    1.3040570152    3.0918787947   -0.6398235485
 H   -1.2181031812    3.1801918327   -0.5458988194
 H   -2.6253291911    0.3898994981   -0.4970891451
 H   -3.4219259493    2.0102619688   -0.8778836622