19

 C    0.0142686095    1.5427317651    0.0551097226
 C   -0.0549821870    0.0167905335   -0.0392253018
 C    0.7277089785   -0.5340700873   -1.2293637634
 N    0.6088528254   -1.9834443266   -1.3111903886
 C    1.3015301645   -2.6296105335   -2.3281623503
 C    1.9038472824   -2.1252126889   -3.4445328873
 O    2.3995040750   -3.1326422724   -4.2011692460
 N    2.1412373175   -4.3356036853   -3.5782171718
 C    1.4914518021   -4.0368287764   -2.4812355539
 H    1.0480270260    1.8894956967    0.1594381965
 H   -0.4055690658    2.0138032013   -0.8401401060
 H   -0.5483224603    1.9093575950    0.9183116809
 H    0.3398114414   -0.4259095818    0.8858689666
 H   -1.0973551305   -0.3119324670   -0.1210501335
 H    0.3253369321   -0.1120583483   -2.1600121393
 H    1.7825884227   -0.2106914346   -1.1690983306
 H    0.7195042982   -2.4348860134   -0.4128428670
 H    2.0490109841   -1.1305025114   -3.8303268066
 H    1.1711217543   -4.8305535345   -1.8204428706