21

 C    0.0173976603    1.5104801683    0.3502797790
 C   -0.1210536405   -0.0022092256    0.1604693120
 C   -1.5371920097   -0.4426645780   -0.2810537940
 C   -1.8212813768    0.0545863776   -1.6858907546
 O   -2.6673205423    0.8576887940   -1.9823366128
 C   -1.6389923074   -1.9589137771   -0.2574666071
 O   -1.6652322874   -2.5836891815    1.0273006470
 C   -2.8189022691   -2.7233783265    0.1832325946
 C   -4.1146891020   -2.1230498850    0.6632475676
 H    1.0340169491    1.7712212734    0.6589819985
 H   -0.2040252459    2.0590816549   -0.5710147903
 H   -0.6700631956    1.8742083588    1.1211030725
 H    0.6111672645   -0.3579631866   -0.5772450921
 H    0.1061615284   -0.5236629094    1.0961509728
 H   -2.2816925460    0.0002993183    0.3846605070
 H   -1.1517401828   -0.3836530554   -2.4655368451
 H   -0.9680406869   -2.4525827752   -0.9664818733
 H   -2.9205437806   -3.7267739530   -0.2362791788
 H   -3.9721001565   -1.1308808701    1.0947012659
 H   -4.8265266375   -2.0445279773   -0.1652937193
 H   -4.5617598153   -2.7639284845    1.4301714103