18

 C   -0.0036022320    1.4439720760   -0.0344125891
 N    1.2290160517    0.6173001411    0.0498316093
 C   -0.0833763566   -0.0225382982    0.0174713306
 C   -0.5521008925   -0.9353579259    1.1481578517
 C    0.3250530716   -2.1868191644    0.8727617175
 C   -0.5299673316   -2.3176464386   -0.4028363341
 C   -1.7228897834   -1.6487430342    0.3120802784
 O   -2.0621450142   -0.8384599852   -0.8225405538
 C   -0.6296129551   -0.9001835587   -1.1039790040
 H   -0.2110107782    2.0342215144    0.8538205796
 H   -0.2380546957    1.9407710151   -0.9727572497
 H    1.6714281962    0.5694084284   -0.8657887316
 H   -0.6883026306   -0.5162922912    2.1424067182
 H    1.4018803521   -2.0240727822    0.7926018347
 H    0.1181824570   -3.0116673754    1.5602940692
 H   -0.6104788103   -3.2080655125   -1.0233003055
 H   -2.5553068953   -2.1359214800    0.8168924267
 H   -0.3655268830   -0.6978368085   -2.1423922481