19

 C    0.0445804899    1.6129213458    0.0691072299
 C    0.0096998463    0.0903027396    0.0088506253
 O   -1.3650243228   -0.3551706041    0.0067808527
 C   -1.8907659852   -0.8218940887    1.1554265784
 O   -3.0258899010   -1.1775120572    1.2502596037
 C    0.6935890163   -0.5071075865   -1.2394308924
 C    0.7644629380   -2.0390158946   -1.1763030051
 C   -0.0303395269   -0.0615884580   -2.5051765960
 O    0.3583995302    0.8156730785   -3.2325051325
 H    1.0795100084    1.9671384340    0.0794436099
 H   -0.4586242820    2.0536297756   -0.7948211998
 H   -0.4505781320    1.9681063874    0.9772025343
 H    0.5070980081   -0.3263132174    0.8963021967
 H   -1.1556600701   -0.8431357400    1.9844247304
 H    1.6999413102   -0.0779616210   -1.2875258265
 H    1.2955819538   -2.4430963022   -2.0428846370
 H    1.2959667417   -2.3655453288   -0.2768214483
 H   -0.2370785878   -2.4784640099   -1.1567492500
 H   -0.9700099650   -0.6155873524   -2.7197488936