23

 C   -0.4439269620    1.4823825124    0.0101370248
 C   -0.0067857640    0.0204960534    0.0827083597
 C    0.6096955123   -0.5296588272   -1.2201446824
 C    1.4896802320   -1.7414426373   -0.8091103812
 O    2.8124713601   -1.6566535431   -1.3251906966
 C    1.5362919801   -1.7082147892    0.7466842677
 C    2.8533813764   -2.1666907362    1.3691107310
 C    1.0839780728   -0.2894619086    1.1315120034
 O    2.2011905411    0.5851243763    1.0194251022
 H    0.4019724458    2.1315922795   -0.2413796675
 H   -1.2057836953    1.6291737543   -0.7622213177
 H   -0.8705821001    1.8244148375    0.9604750930
 H   -0.8805385263   -0.5908605563    0.3487422773
 H   -0.1476344631   -0.7802895405   -1.9693798727
 H    1.2758855849    0.2247642659   -1.6520264368
 H    1.0340241792   -2.6867949649   -1.1398179026
 H    2.7532223314   -1.6638096501   -2.2852036621
 H    0.7341304603   -2.3730373664    1.0926822124
 H    3.6693786124   -1.5077589519    1.0736653592
 H    2.7814797667   -2.1620327239    2.4619049338
 H    3.1018176125   -3.1828388441    1.0489998984
 H    0.6832348988   -0.2621777506    2.1566343172
 H    1.9260059240    1.4587145213    1.3122337597