16

 C   -0.0887192305    1.5748113470    0.0308912802
 C    0.0370734709    0.0470884956    0.0449917499
 C    0.8511654629   -0.4873840278   -1.1501833541
 O    0.6450268517   -0.2279390330   -2.3126576255
 C    1.9269500451   -1.3519808655   -0.6048824002
 C    1.8783822209   -1.3671853884    0.7405853032
 C    0.7772166286   -0.5357210716    1.2304524211
 N    0.4286431836   -0.2858068217    2.4363204123
 O    1.2529810261   -0.9249420838    3.3654188064
 H    0.8930488728    2.0490504735    0.1253391636
 H   -0.5354454653    1.8959214031   -0.9134040093
 H   -0.7124814363    1.9159348907    0.8599848743
 H   -0.9655279990   -0.3947548155   -0.0195935544
 H    2.6370386903   -1.8684979209   -1.2380706126
 H    2.5418277978   -1.9010599619    1.4067757930
 H    0.8714078405   -0.6469217198    4.2050215323