18

 C    0.0973291707    1.4505405237    0.0285028662
 O    0.0480381531    0.0277764736    0.0269427527
 C    0.6091822655   -0.5841980237   -1.0333018698
 C    0.6743511217   -1.9269907392   -1.2377452106
 C    0.2209911050   -3.1212898953   -0.4890567539
 O    1.3312849381   -2.0929210184   -2.4438675010
 C    1.6141218581   -0.8469037246   -2.8789136599
 C    2.3301697482   -0.7034040300   -4.1728030569
 N    1.2072077943    0.0935009585   -2.0782632145
 H    1.1302507832    1.8136091683    0.0185125772
 H   -0.4260263368    1.8684744238   -0.8376682170
 H   -0.3981496029    1.7629466514    0.9491900882
 H   -0.4937597608   -3.7224591849   -1.0639425772
 H    1.0555677336   -3.7769101037   -0.2126309772
 H   -0.2720327217   -2.7934172481    0.4291842365
 H    1.7578144017   -1.1485874818   -4.9936283261
 H    2.4808088399    0.3564600682   -4.3792267286
 H    3.3044471491   -1.2028778676   -4.1437444980