15

 C   -0.0290117188    1.4480565749    0.0351313377
 N    0.0691458953    0.0035809906    0.0234741199
 C    0.1487148818   -0.8098777513   -1.0966525380
 C    0.1370107899   -2.1532213091   -0.7466657905
 C    0.0371688921   -2.1325273595    0.6608517217
 C   -0.0073336903   -0.8342810357    1.1018262637
 N   -0.0950675632   -0.7704061614    2.4723518678
 C   -0.0989246824   -2.0297958920    2.8007189395
 O   -0.0205097298   -2.9326248664    1.7696928830
 H    0.4443606951    1.8499763995   -0.8631656261
 H   -1.0717313225    1.7838637267    0.0671287952
 H    0.4898547241    1.8415111530    0.9121420021
 H    0.2101981843   -0.3622653454   -2.0762912580
 H    0.2039236684   -2.9865131828   -1.4259803745
 H   -0.1580027539   -2.4510924610    3.7913456066