20

 O    0.0167784781    1.3238910165    0.7050804369
 N    0.0617978422   -0.0699383389    0.5635013615
 C   -0.9980553249   -0.5549042062    0.0128486528
 C   -0.9807714435   -2.0579830946   -0.1259774478
 C   -1.2909276033   -2.6069533675   -1.5266928696
 C   -2.7616680605   -2.4698315104   -1.9348987745
 C   -3.2140981132   -1.0555134521   -2.3185590531
 C   -3.0786707471    0.0496981663   -1.3036364166
 C   -2.1491199981    0.2693166886   -0.3636440036
 H    0.8410385697    1.5017563915    1.1695521433
 H    0.0065544412   -2.3948911694    0.2010225678
 H   -1.7124977048   -2.4798664288    0.5779704156
 H   -0.6437629706   -2.1246594802   -2.2709776397
 H   -1.0260671281   -3.6706385578   -1.5320168782
 H   -2.9571602959   -3.1213582343   -2.7948562935
 H   -3.3933822181   -2.8424248870   -1.1176657159
 H   -2.6684928240   -0.7422442271   -3.2233821316
 H   -4.2653325762   -1.1022683719   -2.6276893799
 H   -3.8265997410    0.8337592366   -1.4146538106
 H   -2.2074399816    1.2048379967    0.1830328169