17

 C    0.2153552310    1.5845271720    0.3608203848
 C    0.2284112229    0.1258862868   -0.0199603928
 N    1.3058628794   -0.4762747454   -0.3037543730
 N   -1.0711355395   -0.4473007690   -0.0167006549
 C   -1.4032769197   -1.7454615773   -0.3300789826
 O   -0.6019239384   -2.6043429450   -0.6391717801
 C   -2.8887821184   -2.0251606498   -0.2747719031
 C   -3.4287597560   -3.1057175519   -1.1182320935
 O   -3.2421432034   -3.2886853888    0.2778448391
 H    1.2364737336    1.9619940137    0.3365077239
 H   -0.4001839158    2.1692689348   -0.3329574977
 H   -0.1947589912    1.7258780371    1.3678523569
 H    1.1243467933   -1.4546712958   -0.5314360524
 H   -1.8280838594    0.1638041837    0.2493164062
 H   -3.5441143676   -1.2024298640    0.0148186794
 H   -4.4622802767   -3.0440254360   -1.4548893257
 H   -2.7342617240   -3.6531327151   -1.7506281244