20

 O    0.3099460685    0.3413979584    1.0047532406
 C   -0.1784277305    0.1132213702   -0.3142726386
 C   -1.5319593679   -0.5557406049   -0.3279911328
 C   -1.8857304344   -1.5746604046   -1.3941328583
 C   -1.6264814200   -2.0146577120    0.0125493559
 C   -0.5325413604   -2.9763589185    0.4971496451
 N   -1.5081489654   -3.6884187890    1.4043648152
 C   -2.0093292245   -2.6607304260    2.3365296345
 C   -2.5737741223   -2.6945539912    0.9704745590
 H   -0.3021852933    0.9400448064    1.4444920923
 H   -0.2046614974    1.0501028269   -0.8919558659
 H    0.5638572643   -0.5363874837   -0.7902281113
 H   -2.3522830023    0.0718255598    0.0188992080
 H   -2.9059746191   -1.5909074373   -1.7643988071
 H   -1.1375852362   -1.8100216185   -2.1463898155
 H   -0.1756197515   -3.6651617568   -0.2727279271
 H    0.3196871159   -2.5379692223    1.0259985073
 H   -2.6022028415   -3.0787968310    3.1445957691
 H   -1.3514526336   -1.8403105808    2.6179021069
 H   -3.5911475883   -3.0058276749    0.7520171727