11

 C    0.0034209696   -1.1949041864   -0.0032594135
 C   -0.0011288083    0.0074359441    0.0029651046
 C   -0.0227668591    1.4202990543    0.0105148364
 C   -1.1076473962    2.2534720642    0.0303446552
 O   -0.6687097109    3.5325648195    0.0306031515
 C    0.6878382509    3.4213372386    0.0105737438
 N    1.1283735394    2.2027154891   -0.0019859752
 C    1.4448419629    4.6216500164    0.0058662516
 N    2.0563376986    5.6030880050    0.0021243697
 H    0.0151366195   -2.2570749303   -0.0088679862
 H   -2.1724543264    2.0989558255    0.0448262822