21

 O    0.7455878766    0.1642725202   -1.0938066506
 C    0.0233545365   -0.2560873738    0.0556113788
 C    0.8649511633   -0.1213490337    1.3561785710
 C    0.0300445512    0.2675811253    2.5948217755
 C   -1.3121066648   -0.4631505507    2.6160263519
 C   -2.4870402807    0.2747628420    3.2904681082
 O   -3.0477250324    0.6421649688    2.0109280909
 C   -2.1191648229   -0.2204118905    1.3140959489
 C   -1.3382069118    0.4461654252    0.1856712631
 H    0.9020984803    1.1113441404   -1.0088238226
 H   -0.1681578129   -1.3195481642   -0.1334159550
 H    1.4026047920   -1.0584786914    1.5353085630
 H    1.6358493768    0.6394782047    1.1856113752
 H    0.5964152870    0.0761521609    3.5124571065
 H   -0.1620215039    1.3470533005    2.5755641582
 H   -1.1896640153   -1.5116722950    2.8994932027
 H   -3.1674296533   -0.3692195420    3.8635786747
 H   -2.2341850453    1.1536498012    3.8964024273
 H   -2.6312790669   -1.1200497003    0.9438417335
 H   -1.1996007238    1.5080300227    0.4244369833
 H   -1.8720752397    0.3901036800   -0.7671089545