20

 C   -0.1025128668    1.5516695984   -0.0236928402
 C   -0.0883493589    0.0224509784   -0.0985390414
 C    0.8580665580   -0.5114941459   -1.1800484762
 C    0.8999273689   -2.0318767750   -1.2459418204
 N   -0.3261032712   -2.6890151254   -1.7476633499
 C    0.2160392405   -3.1391731861   -2.9199977280
 O   -0.2345435939   -3.6534641813   -3.9112228355
 C    1.6238372750   -2.6583560701   -2.4876323994
 O    2.2585648179   -1.7598689654   -3.3586661048
 H    0.8943429342    1.9446241684    0.2042062532
 H   -0.4198690896    1.9904295757   -0.9758561238
 H   -0.7870202679    1.9068129896    0.7526836880
 H    0.2009370411   -0.3911777340    0.8768768651
 H   -1.1071990582   -0.3393552197   -0.2925213465
 H    0.5741371306   -0.1186529738   -2.1622012372
 H    1.8777437420   -0.1533373739   -0.9895085942
 H    1.2320125702   -2.4513836130   -0.2887923900
 H   -1.2823148599   -2.6718228651   -1.4229726032
 H    2.2880407100   -3.4878068686   -2.2104648257
 H    1.9953344782   -1.9992277529   -4.2549353198