14

 O   -0.6151517791    0.7406176791   -0.6635864875
 C    0.1337043183    1.0549527514    0.2248015715
 C    1.3799068527    1.8589890506    0.0131378531
 N    1.6567217373    3.0152343494    0.9177752369
 C    1.8371972695    3.9124292138   -0.2687392825
 C    1.7483627836    2.7033116602   -1.2180027680
 O    3.0108963279    1.9778434958   -1.3515195383
 C    2.7250902618    1.1384146956   -0.2994107988
 O    3.3696687894    0.2410342273    0.1249551503
 H   -0.0539719424    0.7670739326    1.2829962565
 H    0.8596541272    3.2639962950    1.4941362414
 H    1.0135474680    4.6174623247   -0.4222950476
 H    2.7886332890    4.4501620958   -0.2730982097
 H    1.2067753170    2.7466550687   -2.1586078573