16

 C   -0.2639905792    1.5123618650   -0.0698896661
 C    0.1039211928    0.0211966706    0.0191519862
 C    0.8722215826   -0.4626255298   -1.1603976280
 N    2.0825783537   -0.9055184295   -1.2208595686
 C    2.2893252650   -1.2052533493   -2.5671239588
 C    3.5319684580   -1.7443080129   -3.1262204613
 O    4.5307129456   -1.9967875394   -2.4977378557
 C    1.1508242689   -0.9117349013   -3.2553820658
 O    0.2349300378   -0.4370811655   -2.3800237535
 H    0.6343953738    2.1336810608   -0.1250651801
 H   -0.8736899401    1.7140312176   -0.9547925798
 H   -0.8340902684    1.8136497228    0.8129222825
 H    0.7213756421   -0.1749877403    0.8984813709
 H   -0.8094853718   -0.5776378046    0.1179545066
 H    3.4797992362   -1.9098876453   -4.2265211029
 H    0.8527645128   -0.9788373889   -4.2885261757