16

 C    0.0651024080    1.4569604404   -0.1367617093
 C    0.0059838204    0.0113600348    0.3091573425
 O    0.7200627485   -0.4468588614    1.1651025602
 C   -1.0635669777   -0.8371710141   -0.3947570391
 N   -0.9031460900   -2.2571218803   -0.2067883896
 C   -0.8259847844   -2.9891948105    0.9257362823
 N   -0.6725069027   -4.2678929824    0.6383873235
 C   -0.6534413830   -4.2644010729   -0.7227874779
 N   -0.7882293641   -3.0767086745   -1.2871090594
 H    0.4956546896    1.5089353436   -1.1438873172
 H   -0.9369383941    1.8954384618   -0.1947754244
 H    0.6875834300    2.0311099471    0.5497824492
 H   -2.0429348238   -0.5014630038   -0.0256161055
 H   -1.0508857606   -0.6565189461   -1.4718149351
 H   -0.8712138039   -2.5509018472    1.9094795711
 H   -0.5387703322   -5.1604425944   -1.3143260913