22

 C   -0.1062153077    1.6878224946   -0.2988488536
 C   -0.0826815110    0.1778069727   -0.1475832845
 C   -1.2991545452   -0.4015976158    0.5643555152
 C   -1.4364123163    0.0642939068    2.0179775687
 O   -2.5420203745   -0.5381358920    2.6747352637
 C    0.5504127300   -0.7296065011   -1.1354977200
 C    1.7953720533   -0.1466338427   -1.7998787296
 C    2.3331313401    0.0947259063   -0.3677928258
 N    1.1368592948   -0.5667489377    0.2664525504
 H    0.6377704620    2.0638076298   -1.0026498251
 H   -1.0886807730    2.0047515521   -0.6638210149
 H    0.0637036284    2.1840217820    0.6628503279
 H   -2.2132475795   -0.1468023989    0.0143238287
 H   -1.2129546823   -1.4952467577    0.5625041602
 H   -0.4929805620   -0.1288696723    2.5487621395
 H   -1.6263703090    1.1414668219    2.0637864351
 H   -2.3664641243   -1.4829118138    2.7298915150
 H    0.0670054198   -1.6533061040   -1.4430646820
 H    2.3717194876   -0.8997095017   -2.3401380144
 H    1.6517552807    0.7158803400   -2.4579009319
 H    3.2292450180   -0.4833247762   -0.1341912723
 H    2.4943350002    1.1299192877   -0.0527054703