13

 C   -0.0319706004    1.4968581901   -0.0086524225
 C   -0.0093449085    0.0044750480   -0.0363388244
 N   -0.0425946763   -0.6471797215   -1.1599903295
 C   -0.0187670971   -2.0176169921   -1.1082666977
 N    0.0344170505   -2.7528831435   -0.0384574004
 N    0.0683063454   -2.0662129968    1.1166337577
 C    0.0524726107   -0.6888848919    1.2704128436
 O    0.0861640707   -0.1506504258    2.3618697142
 H    0.8574636995    1.8764746765    0.5062280801
 H   -0.0788577832    1.8927847830   -1.0229198274
 H   -0.8888128347    1.8487543578    0.5763630968
 H   -0.0470388743   -2.5455696641   -2.0536922505
 H    0.1098455577   -2.6278985596    1.9579612399