18

 C   -0.5581069980    1.3634189021    0.1326938465
 C    0.3451199444    0.1412827730   -0.0804456571
 C    0.8674874083   -0.4277714951    1.2032183584
 C    2.0454619170   -0.0361026792    2.0756754357
 C    1.4828952824   -0.9765254826    3.2110751889
 C    2.1082712831   -2.1188820611    2.3988066865
 N    2.1552383194   -1.2081672885    1.1914333684
 C    0.1403315179   -0.7814739268    2.4736825141
 O   -1.0030407091   -0.7001316368    2.8269565966
 H   -0.0080200946    2.1822978893    0.6079601413
 H   -0.9434097118    1.7280463947   -0.8236694009
 H   -1.4074554584    1.1124728950    0.7732538684
 H   -0.2105248659   -0.6454117214   -0.6058051113
 H    1.1981073889    0.3917973997   -0.7202286709
 H    2.6600550819    0.8531648504    2.0528955407
 H    1.5512141488   -0.8678003267    4.2899002698
 H    3.1373116698   -2.3566834584    2.6775598171
 H    1.5288260358   -3.0399564076    2.2695643678