18

 C   -0.1201967104    1.5507947237    0.0021409123
 C    0.0223813188    0.0501991458    0.0136494180
 O   -1.1481072407   -0.5755975338   -0.4196015501
 C    1.3534784346   -0.5935618838   -0.3156697138
 C    0.8077610952   -0.6554874822    1.0985679493
 C    1.4649785581   -0.0107630243    2.3210651426
 O    1.2157519361   -0.9766612129    3.3779312118
 C    0.5190056076   -1.9769977844    2.7961682268
 N    0.2466867681   -1.9124593886    1.5579113768
 H    0.8081759682    2.0476870910    0.2981229542
 H   -0.3776593333    1.8893041119   -1.0064890201
 H   -0.9208829042    1.8686444303    0.6778590803
 H   -1.1984329545   -1.4220056798    0.0469050220
 H    1.3372273437   -1.5170297631   -0.8841003599
 H    2.2135366835    0.0466135157   -0.4926200297
 H    2.5476109976    0.1144176952    2.2224497829
 H    1.0191963420    0.9421216668    2.6228070570
 H    0.2384657696   -2.7824358077    3.4645930296