18

 O   -0.0363265729    1.3741875697    0.0397053452
 C   -0.0761640803   -0.0021151975    0.0820569489
 C   -0.4750206010   -0.9054682022   -1.0562157103
 C   -1.1865239886   -1.0338038608    0.2822113121
 C   -0.3312605284   -1.8038886801    1.2840859149
 C    0.8107375697   -0.7479593717    1.0719465165
 O   -2.5579974033   -0.8350902826    0.4101712473
 C   -3.3649191132   -1.7427197668   -0.1923497112
 N   -4.6154307062   -1.6450486393   -0.0682672053
 H   -0.6269955189    1.6894070649   -0.6521133275
 H   -1.0853378346   -0.4134362409   -1.8107498730
 H    0.1764551989   -1.6867854507   -1.4470927717
 H   -0.7445727442   -1.7643902812    2.2937784229
 H   -0.0954461816   -2.8427723688    1.0303317499
 H    1.7612020611   -1.1191252317    0.6777485494
 H    0.9967526069   -0.1586964075    1.9716469425
 H   -2.8122602290   -2.5011028926   -0.7607349473
 H   -5.0742158944   -2.3931091502   -0.5843562434