18

 O   -0.4470831330   -0.0286280562    0.1791507873
 C   -0.2731643939    1.1068608499   -0.1717249752
 C    1.0791344985    1.8172025297   -0.1116990950
 N    1.2518514653    2.8022830692   -1.1534500501
 C    1.2229689208    4.1420619118   -0.8652108783
 O    1.3462739441    5.0321156242   -1.6762357711
 C    1.4662598163    2.4105379984   -2.5286925437
 C    2.6956161252    1.6510177080   -2.9553583904
 C    1.3365322314    0.9860669433   -2.9925211473
 H   -1.1000583383    1.7466365109   -0.5556769159
 H    1.1226159353    2.3341829384    0.8561415966
 H    1.8752625093    1.0647628280   -0.1043304084
 H    1.0614937223    4.3259986584    0.2156046766
 H    1.1215256532    3.1915027673   -3.1941544231
 H    3.1719156937    1.9383322826   -3.8855768798
 H    3.3835502560    1.3254402262   -2.1824696873
 H    1.1471480744    0.2012643121   -2.2696604239
 H    0.8584885991    0.8191778878   -3.9512469609