18

 C   -0.0281143055    1.5920123765    0.2365597118
 C   -0.0296710179    0.0691083543    0.0083514913
 C    0.8654621377   -0.6537177749    1.0318472039
 C   -1.4355213129   -0.4873202862    0.0164980227
 C   -2.2768363435   -0.4243726819    1.1407529351
 N   -3.5092332682   -0.9139975209    1.1423140820
 N   -3.9657746613   -1.4896772175    0.0277866031
 C   -3.1463916487   -1.5335923354   -1.0183183587
 N   -1.8959513106   -1.0620904946   -1.0911935118
 H    0.9920929381    1.9809092515    0.1638046682
 H   -0.6421206150    2.1071618287   -0.5078403012
 H   -0.4114924450    1.8506525144    1.2293950630
 H    0.3567992868   -0.1326834701   -0.9957422751
 H    0.5190254944   -0.4879407893    2.0575622594
 H    0.8857157677   -1.7324773272    0.8518958319
 H    1.8910620021   -0.2783695105    0.9639188166
 H   -1.9536883711    0.0331719533    2.0710154764
 H   -3.5478619172   -2.0085841203   -1.9095245685