17

 C   -0.0955180359    1.3445597438   -0.0172527410
 N   -0.3113196339   -0.0847458719   -0.2216749564
 C    0.5127829362   -0.7347257308   -1.1320362942
 C    0.9540045060   -2.0226869987   -1.1271958659
 O    0.8594922567   -3.0181511919   -0.2376878270
 C    0.0532301846   -4.1322970347   -0.6507269726
 O    1.6883235956   -2.2256707862   -2.2815725636
 C    1.6478949495   -1.0317289495   -2.9030135654
 N    0.9798976584   -0.1127307136   -2.2825899386
 H    0.8896754047    1.5872642842    0.4102635022
 H   -0.1816899255    1.8584335721   -0.9759254823
 H   -0.8720340576    1.7237034047    0.6518461813
 H   -0.3738717766   -0.6013252971    0.6453742458
 H   -0.9623669005   -3.8032665725   -0.8983269091
 H    0.4977631043   -4.6309302428   -1.5180924154
 H    0.0262021378   -4.8222483004    0.1941704302
 H    2.1652517064   -0.9531006448   -3.8461075180