22

 C    0.0485391680    1.4962608210    0.0915725290
 C   -0.0381090308    0.0035862842    0.0504553873
 C   -1.2862271790   -0.8655820937   -0.1484154369
 C   -0.3777297056   -2.0634413064    0.2186041317
 C    0.5846243383   -1.0282232613    0.9160904099
 N    1.1886305727   -0.7522025029   -0.4175082028
 C    0.6901424210   -2.0931008623   -0.9103792779
 C    1.7711445301   -3.1393486483   -0.6472093565
 C    0.2698124798   -2.1183428327   -2.3754164243
 H    1.0524897789    1.8146179587    0.3847964425
 H   -0.1660390300    1.9285855758   -0.8924727214
 H   -0.6714216378    1.9108708455    0.8056854842
 H   -2.0079124715   -0.6582317031    0.6474359487
 H   -1.8051236715   -0.8729691571   -1.1117678207
 H   -0.7930820703   -2.9782064041    0.6407166172
 H    1.1203357355   -0.9873162858    1.8558228696
 H    2.0670624169   -3.1533137795    0.4057139081
 H    1.4088296670   -4.1383142147   -0.9128255373
 H    2.6624363419   -2.9282863319   -1.2462499860
 H    1.1522331020   -2.0164803798   -3.0160694950
 H   -0.2170333413   -3.0682501305   -2.6235767196
 H   -0.4143646443   -1.3067488711   -2.6295747300