19

 N    0.0546050915    1.2456171880   -0.6589009636
 C    0.0463755560   -0.0545858781   -0.1136540958
 C   -0.8824204155   -1.0483585778   -0.3353531329
 N   -0.5414490345   -2.1413406967    0.4473718360
 C    0.5826491577   -1.8347073954    1.1670189196
 C    0.9774038919   -0.5570669458    0.8429897035
 C   -1.3440433195   -3.3123538026    0.6109669884
 C   -1.6277301262   -4.1782683543   -0.5893685829
 C   -0.6940792842   -4.6649214605    0.4910232356
 H    0.9956209540    1.5816837475   -0.8223192771
 H   -0.4605816720    1.3011450247   -1.5284981289
 H   -1.7494857896   -1.0803936579   -0.9748650007
 H    1.0055513744   -2.5522969890    1.8515603607
 H    1.8389378129   -0.0372422540    1.2347955467
 H   -2.1436355377   -3.2147019377    1.3424994890
 H   -2.6120974761   -4.6247571227   -0.6698244254
 H   -1.1850709982   -3.8759707161   -1.5309323067
 H    0.3644147310   -4.6870976768    0.2610909235
 H   -1.0309291960   -5.4482689348    1.1600787310