20

 C   -0.0883491207    1.4967972144    0.0350854866
 C   -0.0253255550   -0.0046156013   -0.0131567278
 C   -0.0587969041   -0.6920430547   -1.1559645888
 C    0.0663546776   -2.1961927749   -1.2494808774
 N    1.3732737411   -2.6784769516   -0.7828800367
 C    1.4959062459   -2.8208031310    0.6675532219
 C    1.4236100511   -1.4928111852    1.4288150011
 O    2.3408494180   -1.1144440496    2.1177289251
 C    0.1169798013   -0.7067792241    1.3318631993
 H    0.8161378365    1.9091862263    0.4998124249
 H   -0.1880706918    1.9289568298   -0.9639217003
 H   -0.9347719655    1.8374195222    0.6452530866
 H   -0.1506011414   -0.1479314259   -2.0922671598
 H   -0.7682948503   -2.6774853802   -0.7001059446
 H   -0.0375037315   -2.4974422481   -2.2952643318
 H    1.5606330666   -3.5835580020   -1.2004284111
 H    0.7065578201   -3.4714812590    1.1009180402
 H    2.4666495876   -3.2656631411    0.8976371234
 H    0.1083664638    0.0165386360    2.1493819633
 H   -0.7226371994   -1.3998775001    1.4774961161