19

 C    0.1924689671    1.2048642853   -0.5152710609
 C    0.3502808198   -0.1557654268    0.1126660228
 O    1.6349670449   -0.5276251572    0.6636394760
 C    0.5116583463   -0.4317193571    1.5522232761
 C    0.6586487161    0.6560541417    2.6177778420
 O    1.5121667070    1.7075787945    2.2245531709
 C   -0.0149934886   -1.7327410073    2.0910523496
 C    0.5791363494   -3.0208658006    1.7201673936
 O    0.8407232690   -2.4322976385    2.9979520001
 H    0.7057365726    1.2327586979   -1.4824231603
 H   -0.8700408230    1.3970816390   -0.7012471919
 H    0.5872603321    1.9910615175    0.1269711541
 H   -0.0855896380   -0.9699900524   -0.4708419890
 H   -0.3210072577    1.0910091843    2.8480730147
 H    1.0282977226    0.1671628436    3.5320540627
 H    2.2354167121    1.2877179174    1.7398078243
 H   -1.0624757751   -1.7055941277    2.3986463851
 H   -0.0343439692   -3.9203364643    1.7373878875
 H    1.4214978326   -3.0251722093    1.0333324725