15

 C   -0.0179071943    1.5083984667    0.0000654505
 N    1.3036374020    2.1687242456   -0.0471670670
 C    2.2394240731    1.4356709475   -0.7959238698
 C    2.0853080014    0.1050336715   -1.0750145055
 O    3.1061927051   -0.3342974759   -1.8287733453
 N    3.9911681520    0.7267823533   -2.0389159083
 C    3.4652498995    1.7653595146   -1.4254045542
 C    1.0222974058   -0.6915275353   -0.5201577571
 C    0.0265449559   -0.0094832972    0.0707887489
 H   -0.5704946108    1.9208180022    0.8480074828
 H   -0.5747318997    1.8018547932   -0.9043774237
 H    1.6491651799    2.4048759316    0.8769753086
 H    3.9864669420    2.7115862750   -1.4576607666
 H    1.0766112273   -1.7735461261   -0.5341507933
 H   -0.7853681992   -0.5253304666    0.5731053601