14

 O    0.1171336162    0.2460877374    0.6273017115
 C    0.1005888897    1.3563381871    0.1705010630
 N    1.1538564483    1.9104782352   -0.5685803130
 C    2.5424241266    1.7708590917   -0.1997716979
 C    1.8598400770    3.1068569384   -0.2161172123
 C    2.0717502805    4.3864394027   -1.0174594530
 O    1.8734366296    5.1552582156    0.2171996806
 C    1.6222522594    4.0286056874    0.9660636432
 O    1.3226558842    3.9461439625    2.1112856793
 H   -0.7694764863    2.0352740650    0.2169125228
 H    2.7580635798    1.3309346083    0.7707408078
 H    3.2289963949    1.5206377891   -1.0033877423
 H    3.0702857610    4.5544682754   -1.4242247624
 H    1.2988321591    4.6187816544   -1.7522157272