20

 C   -0.0533559982    1.6815772940    0.5348563771
 C   -0.0947560127    0.2187733933    0.0753674389
 C    0.8553895707   -0.6495584760    0.9175188832
 O    2.1814580880   -0.1814145553    0.7183265145
 C   -1.4840661762   -0.3520805209    0.0943739305
 C   -2.5924803286   -0.0650386616    0.8644133283
 C   -3.6356999341   -0.9559067042    0.4841685732
 C   -3.1403409847   -1.7662400951   -0.5085887026
 N   -1.8377921208   -1.3949886481   -0.7334364648
 H    0.9734978798    2.0515065043    0.5091387312
 H   -0.6766353785    2.3116258162   -0.1051144402
 H   -0.4198966545    1.7780852668    1.5628060877
 H    0.2858804494    0.1760308191   -0.9558067649
 H    0.5558003269   -0.5845072145    1.9752859034
 H    0.7575975713   -1.7035190286    0.6130387904
 H    2.7625646514   -0.6533608464    1.3213465576
 H   -2.6511932608    0.7052301820    1.6177900879
 H   -4.6352204754   -0.9910035522    0.8896501585
 H   -3.5977348817   -2.5615253754   -1.0749018098
 H   -1.2322430014   -1.8021885975   -1.4251317400