21

 C   -0.8268327599    1.3245014601    0.3773770133
 C    0.4656419238    0.6017791889   -0.0557560832
 C    1.4688259074    1.5750709333   -0.5103453439
 N    2.2545215862    2.3460169181   -0.8631180178
 C    1.0288896722   -0.2363203101    1.0924594450
 C    0.6418874726   -1.6703206116    1.2988623697
 C   -0.3069974265   -2.4303263020    0.3948184696
 N    2.0072469940   -1.3032013659    0.9200445885
 C    2.5451207585   -1.6319070637   -0.3926566874
 H   -0.6390330451    1.9639576150    1.2443062267
 H   -1.2164166932    1.9492106623   -0.4298657273
 H   -1.5862140908    0.5872369854    0.6498800442
 H    0.2358369082   -0.0342522677   -0.9150883061
 H    1.2128503364    0.3755277834    1.9764021512
 H    0.5780556709   -2.0033644819    2.3353247535
 H   -0.3233272706   -2.0712318232   -0.6359509259
 H   -0.0351121686   -3.4910975092    0.3676391614
 H   -1.3276370418   -2.3652711512    0.7863575403
 H    1.8248037884   -1.6315592141   -1.2234360579
 H    3.3368774823   -0.9171760254   -0.6342624446
 H    2.9932754155   -2.6290393404   -0.3430620192