14

 C   -0.1663097386   -3.8801308656   -0.2061805731
 C   -0.0887296060   -2.6772782919   -0.1329964337
 C   -0.0034045458   -1.3225344264   -0.0510718333
 C    0.0753175640   -0.1168507902    0.0277323424
 C    0.1526990056    1.3285784466    0.1186644765
 C   -0.1857176155    1.9801117749    1.4909979035
 C    1.2554920825    2.5202445778    1.4278480537
 O    1.5100761718    1.8361026634    0.1802755102
 H   -0.2316436630   -4.9379087995   -0.2711733626
 H   -0.3880604380    1.7775284982   -0.7257534812
 H   -0.9826762913    2.7232927621    1.4608874211
 H   -0.3801514469    1.2638020721    2.2885958112
 H    1.3476740208    3.6073465234    1.3193584181
 H    1.9304717605    2.1815734351    2.2215876671