15

 O   -0.0119481227    0.0282619213   -0.0462298856
 C    0.0022321605    1.2292348711   -0.0255021051
 C   -1.2072971322    2.1552518485    0.1366055983
 O   -0.8112129861    3.4426305110   -0.3137449567
 C    0.6062559440    3.5529632777   -0.3940257272
 C    1.3208072727    4.0243013037    0.8978424881
 N    1.5870723445    2.6053478519    1.2417499554
 C    1.2103645694    2.1575814432   -0.1268814797
 H   -2.0526293794    1.8018744859   -0.4617790848
 H   -1.5130303275    2.1699979358    1.1931184807
 H    0.8522332043    4.0850009173   -1.3139805348
 H    2.2185756953    4.6187956545    0.6827571834
 H    0.6989815076    4.5591087773    1.6227190987
 H    2.5293303074    2.3741567385    1.5296898133
 H    2.0058935923    1.7820284624   -0.7745583941