18

 C   -0.1095063099   -1.1592998281   -0.0030681297
 C   -0.0599200215    0.0411956822    0.0030122758
 C    0.0370586406    1.4942458030    0.0100449536
 C    1.4920820020    1.9729866606   -0.0021021699
 O    1.4751748254    3.3864028958    0.0058259566
 C    2.7593232276    3.9596135704   -0.0039403161
 C    2.5641892632    5.4808148300    0.0065148260
 C    3.8355731438    6.1969042676   -0.0023970682
 N    4.8515323984    6.7468693474   -0.0094789654
 H   -0.1684449501   -2.2194920350   -0.0082530469
 H   -0.4782406025    1.9154683234   -0.8612570756
 H   -0.4603957979    1.9057725441    0.8962203654
 H    2.0266328781    1.5844425139    0.8782270127
 H    2.0085917833    1.5941788174   -0.8973180699
 H    3.3421889776    3.6466398761    0.8762672544
 H    3.3242538092    3.6565537798   -0.8991815641
 H    1.9737743991    5.7764890877   -0.8668908159
 H    1.9916307036    5.7666603436    0.8949532773