12

 O   -0.0124793048   -0.0489247734    0.0034316427
 C   -0.0027578156    1.1575438318    0.0098658734
 N   -1.0857587925    2.0053587137    0.0279530628
 C   -0.7358893045    3.4042477908    0.0313842548
 C    0.7654926499    3.3597689792    0.0124976149
 C    1.1899598886    2.0886204486    0.0002190468
 C    2.5285890839    1.6211963000   -0.0189601296
 N    3.6201106188    1.2374527312   -0.0346154681
 H   -2.0273959959    1.6523272055    0.0378850547
 H   -1.1270060124    3.9410770225   -0.8454089270
 H   -1.1050407110    3.9312502585    0.9235283014
 H    1.3790569857    4.2500868917    0.0097966432