11

 O   -0.0475220996   -0.0069399659   -0.0005436306
 C   -0.0225801425    1.1825578039    0.0080783540
 N    1.1856971123    1.9424100749    0.0005860168
 N    2.4133597706    1.3608484301   -0.0171018964
 N    3.2969749100    2.3025125933   -0.0197150588
 C    2.6756492517    3.5199920343   -0.0037497457
 C    1.3188628513    3.3149379166    0.0092937333
 C    0.2298902158    4.2133328959    0.0277704371
 N   -0.6689357393    4.9430982066    0.0429629189
 H   -0.9022222780    1.8463076934    0.0225792919
 H    3.2245282776    4.4469790567   -0.0027303904