19

 C   -0.1084071938    1.5170309861   -0.1935518971
 C   -0.0841978580    0.0036656792   -0.0193900005
 C   -1.1657152291   -0.6960480633    0.8847650208
 C   -0.2628510682   -1.9436730552    0.8794518645
 C    0.7094074070   -0.7358322254    1.0892847836
 C   -0.3154389612   -0.2029728172    2.1413150061
 C    2.0084316591   -0.7655904640    0.2719190722
 C    1.0261635291   -0.6076526909   -0.9742040176
 O    1.1496885385   -0.8089802371   -2.1410164861
 H    0.8971527501    1.9415229638   -0.3015067054
 H   -0.6568119737    1.7643548591   -1.1090305183
 H   -0.6035904958    2.0286040696    0.6361038955
 H   -2.2554278492   -0.6614152253    0.7991664682
 H   -0.3546653188   -2.6319825805    1.7234157724
 H   -0.1859362328   -2.4856587156   -0.0674437728
 H   -0.3051180200    0.8650224996    2.3586621224
 H   -0.4454429792   -0.7882298084    3.0556822642
 H    2.6308528613    0.1306865494    0.3624177962
 H    2.6427404848   -1.6542286239    0.3043261617