20

 C   -0.1296986646    1.6970974869    0.1266325382
 C    0.0014085178    0.1747909831    0.2513672199
 C   -1.2998739792   -0.5674780841   -0.0577532210
 C   -1.8106881322   -0.4159841099   -1.5040349014
 O   -2.6359910904   -1.5655971779   -1.7590125729
 C   -2.3849949200   -2.5533589843   -0.8551082374
 O   -2.9303848539   -3.6189182502   -0.9002002199
 C   -1.2796109194   -2.0965308743    0.1098390992
 N    0.0116500680   -2.7134980611   -0.2241652334
 H    0.8104458792    2.1924645728    0.3860562510
 H   -0.3891506699    2.0016505722   -0.8932767864
 H   -0.9061300535    2.0858879364    0.7950642063
 H    0.7966661706   -0.1862528697   -0.4096212350
 H    0.3197717483   -0.0870079499    1.2664703386
 H   -2.0880251573   -0.1874919987    0.6051477494
 H   -2.4227989297    0.4735600904   -1.6642614625
 H   -0.9884398180   -0.4048804622   -2.2322392699
 H   -1.5365078152   -2.4050183090    1.1254152058
 H   -0.0849944302   -3.7229918768   -0.1480163010
 H    0.2510709996   -2.5324985039   -1.1963873175