22

 C    2.9540702572   -0.4882236955    0.2305472333
 N    1.6415819569   -1.1060425144    0.3410783837
 C    1.4607008371   -2.1358015663    1.3574648103
 C    0.7799279297   -0.8139745672    1.4890077699
 C    1.1332839012    0.1538896287    2.5970364739
 C    0.8745005606    1.6494616914    2.2505736353
 C    0.4123850064    2.2371660035    3.5625720982
 C    0.1146330150    1.2944502840    4.4546482846
 C    0.3219589077   -0.0952574965    3.9021113862
 H    3.5124820220   -0.4129284690    1.1769709048
 H    3.5589086693   -1.0800015318   -0.4643648302
 H    2.8492619157    0.5183551319   -0.1875493207
 H    0.9150252913   -3.0253587317    1.0521481268
 H    2.2912813881   -2.3273600976    2.0379554234
 H   -0.2738100307   -0.7659970223    1.2078974587
 H    2.1924873164    0.0497450836    2.8511729316
 H    1.7669110243    2.1402769106    1.8458551200
 H    0.0943284328    1.7531578515    1.4817044940
 H    0.3058990759    3.3050940659    3.7193080351
 H   -0.2732663519    1.4741655421    5.4514323433
 H   -0.6454713179   -0.5746287408    3.6887614309
 H    0.8473095130   -0.7650544899    4.5920239770