20

 C    0.0047819785    1.5499721699    0.0417540194
 C    0.0207509065    0.0462662195   -0.0418630459
 C    0.0450742540   -0.5704444343   -1.2364141471
 C    0.0113721505   -1.9924983411   -1.5660444299
 C    0.0860166913   -3.0830377500   -0.7877243595
 C    0.2879709000   -3.1742986057    0.6973960301
 C    0.8587846574   -1.9342476942    1.3908312501
 C   -0.0076529540   -0.6679318071    1.2906575558
 H    0.8902116212    1.9269465177    0.5715718409
 H   -0.0257496560    2.0162542551   -0.9463407434
 H   -0.8650014457    1.9033210945    0.6123663303
 H    0.0529616752    0.0772076339   -2.1114780034
 H   -0.1133590311   -2.1803578816   -2.6311888818
 H   -0.0037707022   -4.0456091451   -1.2883778628
 H   -0.6648123895   -3.4562511700    1.1722714852
 H    0.9581920059   -4.0219048073    0.8981494687
 H    0.9996852179   -2.1749668256    2.4510080125
 H    1.8540906618   -1.7170042871    0.9861474612
 H    0.3181775085    0.0380935661    2.0641531744
 H   -1.0487938500   -0.9153263678    1.5469394250