17

 C    0.1593174516    1.3249983440    0.1562055800
 O   -0.2924784572    0.0294920743   -0.2059297035
 C    0.5099952090   -0.5803093859   -1.1760675105
 C    1.8954833721   -1.1947414217   -0.7831753173
 O    2.9149758034   -0.7152278288   -0.3696501333
 C    1.4779986575   -2.5552152311   -1.2427566561
 C    0.2007899038   -2.9401258354   -0.4781883105
 C    0.0821463078   -1.9846948592   -1.6087837062
 O   -0.6122006649   -2.2522179691   -2.7673538585
 H    1.1754916517    1.2992392887    0.5674137537
 H    0.1485155493    2.0056970827   -0.7088227084
 H   -0.5305987547    1.7025695075    0.9140268418
 H    0.6502372351    0.0660640585   -2.0591881312
 H    2.0768982798   -3.3087133569   -1.7377028909
 H   -0.1276068071   -3.9503352526   -0.7019779768
 H    0.0518706056   -2.6224232635    0.5480439126
 H   -1.5479627826   -2.3302892315   -2.5515561448