17

 O   -0.1929009879    0.0633975025   -0.0325466971
 C   -0.0214470741    1.2546181631    0.0275562630
 C    1.3251839485    1.9396220942    0.0060636388
 C    1.4135556209    2.9945622240   -1.0902187366
 C    0.8649001480    4.3268633647   -0.6100142810
 C    2.3615823031    4.1112587332   -0.6885404261
 C    2.4317357934    4.0208224857    0.8524940643
 C    0.9352955287    4.2364446909    0.9353769348
 C    1.5178177331    2.8600871432    1.2054242540
 H   -0.8818707007    1.9588165839    0.1065398437
 H    2.1089699720    1.1804505145   -0.0739088162
 H    1.3221275803    2.7286596961   -2.1365756586
 H    0.2252587116    4.9728848407   -1.1942948102
 H    3.0937914541    4.5501330006   -1.3513521727
 H    3.2233095967    4.3831406645    1.4929622755
 H    0.3546877447    4.8067105837    1.6464050970
 H    1.5198749175    2.4734677642    2.2175697874