16

 N    0.6463130437    0.4392493512   -1.0560810842
 C    0.1498158535   -0.1090336660    0.0671353287
 O    0.7624043121   -0.2307004380    1.1189254186
 C   -1.2799224544   -0.6271825604   -0.0223719315
 C   -1.4392575964   -2.0421627866    0.4657296099
 N   -1.9012107605   -0.9267553153    1.2769806832
 C   -2.2140869635   -0.1226807953   -1.1003217808
 N   -3.5155030708   -0.1255799289   -0.7394764465
 O   -1.8195539392    0.2256593104   -2.2080813707
 H    1.5856143488    0.8003077636   -1.0395092917
 H    0.0473768182    0.5117551405   -1.8718647816
 H   -2.2175747221   -2.6598472752    0.0275382870
 H   -0.5284835151   -2.5535035089    0.7622179185
 H   -1.1907206363   -0.7159776912    1.9807573138
 H   -3.7497023793   -0.2975805793    0.2265498747
 H   -4.1979030487    0.2289242292   -1.3883691875