16

 C    0.0996842323    1.3552445677   -0.2265672522
 O    0.0130174412   -0.0028162277    0.1943313889
 C   -1.2437031833   -0.5112291571    0.1293482874
 C   -1.7094109177   -1.9446019845    0.0405361914
 C   -2.6187113799   -1.7956117572    1.2577940521
 C   -2.6259504766   -0.2827792001    0.9202487695
 O   -3.3384892148   -0.2097643058   -0.3416743465
 C   -2.2214459450   -0.8469339406   -0.9497040192
 H    1.1503354037    1.6417436926   -0.1523513530
 H   -0.2417132226    1.4688523969   -1.2630133430
 H   -0.5007442585    2.0101586214    0.4180325018
 H   -1.1549313396   -2.8057562251   -0.3091640740
 H   -3.5959907853   -2.2874883796    1.2570329659
 H   -2.0799224463   -2.0022812698    2.1857943311
 H   -2.9161246468    0.4886409101    1.6302422798
 H   -2.1666270209   -0.9228206010   -2.0271612398