15

 N   -0.0149724518   -1.2317577489    0.0084469942
 C   -0.0347308570   -0.0792768813   -0.0640151453
 C   -0.0659994248    1.3850377063   -0.1293226885
 N    1.2885696333    1.9360250259   -0.0386369847
 C    1.8772244597    1.9681203164    1.3362786597
 C    2.7063621892    3.2381677896    0.9932969183
 O    2.3021825301    3.9781111612    2.1767731685
 C    1.0984203173    3.2538045229    1.8107778298
 C    1.3437945395    3.3994746548    0.2606198814
 H   -0.4976218725    1.6807777218   -1.0925011751
 H   -0.7531307369    1.7436903733    0.6570646361
 H    2.1667495583    1.0770415389    1.8920481602
 H    3.7215850232    3.3329373695    0.6149370916
 H    0.2126593893    3.3892977559    2.4302959227
 H    1.0152040031    4.1745781637   -0.4322395889