18

 O    0.2000087992    1.3360316339   -0.2775925107
 C    0.1445830600   -0.0431291255   -0.0577747358
 C    0.2861601107   -0.5799414876    1.4216320814
 C   -1.1201322095   -1.1572461018    1.2844287191
 O   -1.9893079559   -0.0537768688    0.9514385655
 C   -1.2587708410   -0.6959469519   -0.1126100648
 C   -2.0241497478   -1.1943150779   -1.2794466385
 C   -3.4576031937   -1.5502945848   -1.1373528355
 N   -3.0682678572   -0.3480730631   -1.8923390194
 H   -0.5117837088    1.7200997784    0.2501833379
 H    0.8614511723   -0.5095717600   -0.7380470616
 H    1.0663104287   -1.3379792215    1.5242494478
 H    0.4087769967    0.1842581900    2.1928594868
 H   -1.5809699540   -2.0028486496    1.7809837050
 H   -1.4180993723   -1.7283472762   -2.0079080503
 H   -3.8713200542   -2.3555949227   -1.7371483871
 H   -3.9070119280   -1.4183104555   -0.1580539284
 H   -3.2128920754    0.4688621044   -1.3022662713