19

 C   -0.4219559429    1.5435922442    0.3263563739
 C   -0.1316116875    0.0529913561    0.2289175288
 C    0.2785185326   -0.5014763581   -1.1428235542
 N    1.5684893567    0.1133771022   -1.4935306879
 C    1.5504419705   -1.0651907295   -0.5814002163
 C    2.2289003115   -2.2719183996   -0.9162808782
 N    2.7841151685   -3.2566355461   -1.1682860312
 C    1.2200108112   -0.5325198324    0.8277625472
 C    2.2368540505    0.3921287786    1.4786282762
 H    0.3726665463    2.1296827126   -0.1405408015
 H   -1.3640197037    1.7861117253   -0.1773811402
 H   -0.5162156638    1.8583792911    1.3706715413
 H   -0.9720335003   -0.5241005164    0.6250323545
 H   -0.3597796677   -0.9264724282   -1.9082009651
 H    1.8347352952   -0.2175924025   -2.4206235598
 H    0.9864451841   -1.3705236569    1.4896060448
 H    2.5462286841    1.1831754291    0.7920882604
 H    1.8200620450    0.8567329070    2.3780756675
 H    3.1288009796   -0.1682597365    1.7780876598