18

 N   -0.2120398800   -1.1448968438   -0.4242250450
 C   -0.1223465227   -0.0099439251   -0.2260674417
 C   -0.0250137865    1.4372341010   -0.0043627681
 C   -0.8401461317    1.8673087430    1.2371403642
 C   -0.4403945026    1.2694344264    2.5564073399
 C    0.7702098073    0.8538761868    2.9549894338
 C    2.0511053444    0.8757579641    2.2551353700
 C    2.3583691869    1.3166873929    1.0270056968
 C    1.4486562863    1.9050571873   -0.0141106961
 H   -0.5064329083    1.9078628244   -0.8708560495
 H   -0.8014721067    2.9638725080    1.2958834870
 H   -1.8915300758    1.6219373381    1.0489585510
 H   -1.2565692959    1.1691335790    3.2676845045
 H    0.8270975280    0.4444455817    3.9608886058
 H    2.8775538091    0.4799411087    2.8408128732
 H    3.4001254147    1.2482522826    0.7233765482
 H    1.8639730776    1.6830132912   -1.0036887984
 H    1.4493743756    3.0010722837    0.0643432946