19

 C   -0.4945481000    1.5838585108   -0.4933234171
 C   -0.0373588809    0.1509210766   -0.1335166322
 C   -1.1829573820   -0.6596666985    0.2735769744
 C   -2.1420099081   -1.2973632150    0.6180733686
 C    0.7722950776   -0.4659207742   -1.2853858690
 C    2.2290541001   -0.0105097588   -1.3559345847
 O    2.8328881169   -0.3766625497   -2.5734376500
 C    0.4071612045   -1.7320797644   -1.9279090360
 O    0.1274024433   -0.4685435111   -2.5676144049
 H    0.3627749837    2.2253463085   -0.7145067533
 H   -1.1426203574    1.5533423546   -1.3715130320
 H   -1.0488765873    2.0240127950    0.3384318102
 H    0.6468019805    0.2138860579    0.7253242981
 H   -2.9847647754   -1.8653512266    0.9263706706
 H    2.2780865259    1.0790652175   -1.1948615351
 H    2.7988807919   -0.4837908899   -0.5476858197
 H    2.1710078785   -0.1925216471   -3.2545233389
 H    1.1863686344   -2.3185878287   -2.4080466142
 H   -0.4714670063   -2.2696609667   -1.5847218450