22

 C    0.5127143044    1.7063258861    0.1608598128
 C   -0.0614657353    0.2958574110    0.0487215174
 N    0.4899065024   -0.3698525040   -1.1298490987
 C    1.6640175903   -1.2152018104   -0.9476932158
 C    0.3470613795   -1.8122712512   -1.3120155630
 C   -0.4016600423   -2.7244154194   -0.3546963606
 C   -1.8809541362   -2.8011180294   -0.6599267208
 C   -2.8910011081   -3.0023575365    0.3857341416
 O   -2.7004881565   -1.7180114489   -0.2116603483
 H    1.5999919656    1.6791517266    0.2900427815
 H    0.2963666019    2.2807645092   -0.7441829634
 H    0.0828625376    2.2310302639    1.0198857840
 H    0.1437864742   -0.2548215578    0.9827114834
 H   -1.1491704816    0.3292127521   -0.0639893817
 H    2.4588312780   -1.1155292435   -1.6830647650
 H    2.0117789434   -1.3826022303    0.0728889501
 H    0.1943427188   -2.0838411515   -2.3578968627
 H    0.0183402125   -3.7360758360   -0.4435757634
 H   -0.2613295242   -2.4141790239    0.6846485297
 H   -2.1261863517   -3.1416913307   -1.6683343843
 H   -3.8334491562   -3.4936949765    0.1479889482
 H   -2.5758107564   -3.0850746489    1.4254707090