15

 O    0.0015353712    1.3687474187   -0.3663795368
 C    0.0246924337    0.0461618074    0.0307425978
 C    1.0582628489   -0.7482769448   -0.7730646394
 O    1.7577740473   -0.1786922003   -1.5735651679
 C    0.3178778363   -0.1054308675    1.5481622836
 O    0.7287775043    0.8058452701    2.2113340555
 C    0.0731202162   -1.5029602765    2.1418398715
 C    1.4185037176   -2.1877544616    2.3374397853
 O    1.8358080695   -3.0493567551    1.6074938168
 H    0.7515724144    1.4783806789   -0.9737011060
 H   -0.9530714541   -0.4396511980   -0.1419386922
 H    1.1372881186   -1.8327923533   -0.5827313189
 H   -0.4069778150   -1.3614755083    3.1144958503
 H   -0.5503385384   -2.1225169393    1.4939688495
 H    2.0141833794   -1.8038106702    3.1902015108