13

 O    0.0755939782    1.3420957825   -0.0577559111
 C    0.0515500893   -0.0030610633   -0.0210907039
 C    0.0342997798   -0.7127464913   -1.2234805446
 C    0.0096303817   -2.0957242346   -1.1735150361
 C    0.0027161131   -2.7392107381    0.0694542464
 N    0.0188113317   -2.0832047696    1.2226544854
 C    0.0426799818   -0.7452441186    1.1756885690
 C    0.0606036452   -0.0056321062    2.4062436369
 N    0.0766207141    0.6963632014    3.3279166246
 H    0.0853371606    1.6971231524    0.8430518170
 H    0.0406274908   -0.1660462112   -2.1591377496
 H   -0.0042794158   -2.6795055365   -2.0871412060
 H   -0.0165327506   -3.8231086766    0.1317514721