24

 C    0.3297475848    1.9213098629   -1.5348231247
 C    0.5533686862    0.5733347664   -0.8438766553
 C    0.5559569433   -0.6013870772   -1.8337438964
 C    0.8393989891   -1.9546056847   -1.2043821371
 C   -0.1953304438   -2.4692694069   -0.2259504448
 O   -1.4382304132   -2.5652901151   -0.8920693488
 C   -2.4751609158   -3.0107417706   -0.0527394077
 C    1.6286721018   -2.9501954872   -1.9722912593
 N    2.2167397880   -2.2872613263   -0.7908969274
 H    1.1151520680    2.1249434794   -2.2715802990
 H   -0.6296365038    1.9390892279   -2.0637358956
 H    0.3283451158    2.7445808316   -0.8137854495
 H    1.5040134776    0.5936388672   -0.2951042296
 H   -0.2289514474    0.4188752552   -0.0915332224
 H   -0.4152724471   -0.6515933062   -2.3399383107
 H    1.3062570465   -0.4122370991   -2.6134369542
 H    0.1247856170   -3.4488971516    0.1612074926
 H   -0.2768903452   -1.7923186878    0.6413935574
 H   -2.2725757834   -4.0161704793    0.3494865175
 H   -2.6346755501   -2.3297970969    0.7988950756
 H   -3.3892618605   -3.0479790146   -0.6505810200
 H    1.4342549024   -4.0123273426   -1.8498240309
 H    1.9845531122   -2.6674853912   -2.9595432217
 H    2.8500519778   -1.5504068332   -1.0935748881