11

 C   -0.0339776031   -1.1883003649   -0.0036703642
 C   -0.0340961967    0.0133886323    0.0030504783
 C    0.0041871990    1.4239766705    0.0104485627
 N   -1.0693233901    2.1798853624    0.0279351916
 O   -0.6161679774    3.4630770832    0.0295110927
 N    0.7429479399    3.5299440223    0.0130693251
 C    1.1598304761    2.2848791367    0.0009335694
 C    2.5222266316    1.9177304950   -0.0179836759
 C    3.6734684769    1.5735171453   -0.0341128290
 H   -0.0416384834   -2.2509173720   -0.0095280828
 H    4.6936976272    1.2765580893   -0.0481019979