23

 C    0.1484389432    1.5669885694    0.0090593799
 C   -0.0281291223    0.0686394112    0.0095589659
 C   -1.2134204650   -0.5644437012   -0.0059951213
 C   -2.5586202488    0.1199214659    0.0528798039
 C   -1.3182407697   -2.0850722824   -0.0468889201
 O   -2.3549557174   -2.5148725631   -0.9355339656
 C    0.0035893391   -2.7801060296   -0.3758883990
 C    1.1516912082   -2.1568004215    0.4144595732
 C    1.2915332739   -0.6795145426    0.0404004334
 H    0.8627527251    1.8603504440   -0.7713808365
 H   -0.7738614816    2.1210436833   -0.1650886540
 H    0.5772578295    1.9111312729    0.9598036622
 H   -2.4884800149    1.1884247017    0.2565861905
 H   -3.1233341449   -0.0197618557   -0.8745326912
 H   -3.1717807074   -0.3307295658    0.8435193999
 H   -1.6707280578   -2.4313824212    0.9359755708
 H   -2.0929311629   -2.2503754731   -1.8248273156
 H   -0.0932783391   -3.8534129946   -0.1851304751
 H    0.2005032767   -2.6649302324   -1.4521167273
 H    0.9460513721   -2.2454569792    1.4892164551
 H    2.0904219369   -2.6896215865    0.2288254026
 H    1.7789395266   -0.5877961275   -0.9431903380
 H    1.9682121605   -0.1724539322    0.7413590264