21

 C   -0.0701036245    1.4449321358   -0.1749097781
 C    0.0357886440   -0.0473836632    0.0191347782
 N    1.3949270863   -0.6282663905   -0.0393317372
 C    0.6540701714   -0.6620124861    1.2195470790
 C    1.1163611356   -0.0023685365    2.5270474287
 C    0.4516324524   -1.1741401720    3.3201085018
 C    0.1767248702   -1.8875770392    1.9891139141
 C   -0.8312177019   -2.9007637680    1.6140006482
 N    0.5945243135   -3.2691363036    1.7460595090
 H    0.7666916333    1.9564886778    0.3074321581
 H   -0.0514774696    1.7009267080   -1.2397105813
 H   -1.0046529170    1.8291469648    0.2486586982
 H   -0.7635672851   -0.6251605850   -0.4453265736
 H    1.3808506598   -1.5408916051   -0.4927212854
 H    2.2044819567    0.0269627811    2.6189206323
 H    0.7182695096    0.9956700822    2.7242334394
 H    1.1075740980   -1.7254156341    3.9961889185
 H   -0.4546922022   -0.8835870025    3.8575027155
 H   -1.4842790878   -3.3275416464    2.3711627972
 H   -1.2705176409   -2.8509356181    0.6196967558
 H    1.0215575581   -3.3561282296    0.8249494615