17

 C   -0.1809749165    1.5939736493    0.0103564166
 C    0.0271581719    0.0763600963   -0.0382914471
 C    0.8850102247   -0.4778067737   -1.2151947013
 N    1.4767267254   -1.7374703848   -0.7524040799
 C    1.7988005001   -1.5378185052    0.6600088155
 C    0.8779503649   -0.4261177243    1.1829484237
 O    0.8367118778    0.0327877005    2.2873944815
 C   -1.2465222000   -0.6433461907    0.0017621601
 N   -2.2369585770   -1.2413231366    0.0221498608
 H    0.7834680949    2.1011851516   -0.0842959296
 H   -0.8336909238    1.9286073029   -0.7994480064
 H   -0.6250348439    1.8802558941    0.9663087248
 H    0.3117801760   -0.6291709629   -2.1306312770
 H    1.6831582285    0.2452162332   -1.4260783190
 H    0.7914987368   -2.4799578324   -0.8450135987
 H    1.6887674279   -2.4497334053    1.2518192709
 H    2.8358480623   -1.1953481621    0.7838904451