18

 C   -0.0282465299    1.5096181047    0.0850368647
 C    1.5165257798    1.3683880824   -0.0051361574
 C    1.7815819555    0.6558866190    1.3274359110
 C    2.0386654577   -0.8612055816    1.2676208423
 C    2.5496597140   -1.4742081097    0.0345566366
 C    2.0963124311   -0.9553396200   -1.1083461123
 C    1.1589148414    0.1757860636   -0.9579929327
 N   -0.0539808039   -0.0142356157    0.0043847037
 C    0.6216951166   -0.3050799700    1.2920856437
 H   -0.4587579235    1.9187585228    1.0029852508
 H   -0.5050754450    1.9498098200   -0.7950478378
 H    2.1939745156    2.1702899469   -0.3045576688
 H    2.0997768787    1.2169213287    2.1971635233
 H    2.3610357028   -1.2929291129    2.2097067771
 H    3.2428102173   -2.3065621757    0.0882996903
 H    2.3778510474   -1.3134968620   -2.0913484013
 H    0.7574697044    0.5283311686   -1.9082807984
 H   -0.0372163598   -0.5325603893    2.1202453452