16

 O    0.1710555718    1.3433360751   -0.1034513837
 C    0.0932242841   -0.0447791556   -0.0542180666
 C    1.0198996420   -0.5990719232   -1.0260877751
 C    1.7961428158   -1.0216449867   -1.8392134372
 C    0.0371544986   -0.6550914871    1.4323681404
 N   -1.3539825056   -0.0837688376    1.4431598500
 C   -1.4039449973   -0.6236582972    0.0403725215
 C   -1.1307888811   -2.1143953341    0.2017443366
 C   -0.1671145856   -2.1354153132    1.1325882815
 H   -0.4670447463    1.6419022941    0.5638988303
 H    2.4818252438   -1.3983047205   -2.5573637332
 H    0.7331275573   -0.3314574966    2.2055924724
 H   -1.9729550255   -0.5957635898    2.0724082796
 H   -2.1931537172   -0.2676298226   -0.6209796009
 H   -1.5576013962   -2.9179354748   -0.3802247596
 H    0.4109155412   -2.9608745001    1.5212183840