14

 O    0.3184507814   -0.1335877675   -0.1044315472
 C    0.0979817287    1.0402612048    0.0004491426
 C    1.2011421649    2.1039663737    0.1158699553
 O    2.4725344542    1.5344342832    0.3113743916
 C    3.2372852459    1.6031933407   -0.8890140286
 C    2.4875022927    2.5553268029   -1.7715311576
 C    1.3222984054    2.8720523776   -1.1998063765
 C    0.3141006278    3.7356700209   -1.6949027323
 N   -0.5311114556    4.4377627668   -2.0618349324
 H   -0.9344671456    1.4571353581    0.0066056895
 H    0.9524740156    2.7652767474    0.9596979348
 H    4.2492984864    1.9546605888   -0.6483801174
 H    3.3303325524    0.6100648533   -1.3550188337
 H    2.8480912958    2.9119238994   -2.7269394281