19

 C   -0.3074550009    1.2861724131    0.4289688541
 C    0.1363025577   -0.1035971217    0.0898875073
 C    0.6466335815   -0.6154489259   -1.2661422626
 C    1.5524629546   -1.6406325666   -0.4988947354
 C    0.9896027567   -1.0882759106    0.8176740642
 C    1.7135541568   -1.0175280860    2.1344538794
 O    0.9482379027   -0.3793035583    3.1534932457
 N   -0.4795696870   -1.2990871553    0.7443895879
 H    0.3939051294    2.0285135680    0.0320525552
 H   -1.2942610658    1.5022748660    0.0013121200
 H   -0.3615516335    1.4198497985    1.5132167647
 H   -0.1177093071   -1.0376480387   -1.9233192192
 H    1.2299311881    0.1293671656   -1.8134492233
 H    1.3576624097   -2.7007519657   -0.6800953392
 H    2.6184393157   -1.4368783556   -0.6313005526
 H    2.0206673430   -2.0280086018    2.4458228617
 H    2.6317598919   -0.4289294294    2.0191262379
 H    0.4142081299   -1.0505123301    3.5876749048
 H   -0.8475444935   -0.9489947859    1.6313285794