16

 C    0.0497483898    1.4491196418    0.0201455744
 N    0.0146360347    0.0044689890   -0.0185786822
 C    0.0780643453   -0.7943439311   -1.1746912974
 C    0.0716388072   -2.1040639356   -0.8917936450
 C   -0.0172776217   -2.2264183870    0.5802311779
 C   -0.6711098644   -3.2937922248    1.3632687022
 O    0.7432857064   -3.1898682568    1.3174358430
 C   -0.0226703739   -0.7945946903    1.1110689338
 O   -0.0663449980   -0.4218810574    2.2611244583
 H    0.9733846331    1.8384568375   -0.4227335419
 H   -0.8059479833    1.8821687558   -0.5093667664
 H    0.0063279285    1.7435865811    1.0702164368
 H    0.1181119681   -0.3068692749   -2.1389548756
 H    0.1145856251   -2.9224456536   -1.5921583561
 H   -1.1281825610   -3.0234383940    2.3139195371
 H   -1.1035336960   -4.1430818195    0.8361178211