16

 C   -0.1410340751    1.5585410489    0.0194685150
 C   -0.0266473524    0.0475967339    0.1143788506
 O   -1.2935519938   -0.4719142529    0.3554130623
 C    0.8508769599   -0.6240879708   -1.0392593791
 O    1.8784368501   -0.9210391208   -0.0574348810
 C    1.1150721084   -0.4588126908    0.9989728026
 N    1.3171520469   -0.4838898642    2.2315021801
 C    0.2221802595   -1.8764594565   -1.6045137138
 O   -0.0919979456   -2.8087324112   -0.9059090177
 H    0.8245271535    2.0156938530   -0.2101432261
 H   -0.8603308222    1.8263378089   -0.7596876145
 H   -0.4975514537    1.9504627463    0.9750256606
 H   -1.2097956533   -1.4191536320    0.5279922262
 H    1.2279428564    0.0433208685   -1.8178638892
 H    2.2010422733   -0.9369924166    2.4692531411
 H    0.0146201282   -1.8720002838   -2.6951232171