14

 N   -0.1533544428    1.3418265457   -0.0384741630
 C    0.1330087578    0.0175602214   -0.0357593688
 O    1.2449526825   -0.4605660777    0.0151858673
 O   -1.0316348801   -0.6891429938   -0.1206050928
 C   -1.0368104215   -2.0570659226   -0.1663336241
 C   -2.1207854199   -2.8870114037   -0.2440941509
 N   -1.6902442465   -4.1954195284   -0.2692624945
 C   -0.3808806790   -4.1424389117   -0.2078813989
 N    0.0773989414   -2.8563627791   -0.1433371576
 H    0.6006383055    1.9814065446    0.1372786594
 H   -1.1037460835    1.6579955302    0.0392520333
 H   -3.1639342807   -2.6181749476   -0.2831813317
 H    0.2908558143   -4.9872029329   -0.2059590088
 H    1.0158567025   -2.4919136242   -0.0847628690