25

 C   -1.6882351961   -0.3323725565   -0.8419933118
 C   -0.2338599191   -0.1991956224   -0.3776562519
 C    0.8226833413   -0.6239825565   -1.4190681443
 C    2.2631055135   -0.2719509459   -0.9624097562
 C    2.5610103359    1.2278528533   -0.9087834894
 O    2.5917762917   -0.9065706811    0.2746031079
 C    0.7442058445   -2.1073298894   -1.7447062602
 C   -0.1718816700   -2.6449197675   -2.8155166988
 C    1.3202644660   -2.6367771893   -3.0349659219
 H   -1.8685187610    0.2528381392   -1.7509664476
 H   -1.9499069980   -1.3710059719   -1.0581882803
 H   -2.3757165620    0.0330448233   -0.0723040007
 H   -0.0583465820    0.8444830172   -0.0889091799
 H   -0.0936079028   -0.7987922158    0.5315383904
 H    0.6366346101   -0.0615650249   -2.3467853226
 H    2.9482842805   -0.7292329125   -1.6853213995
 H    1.9359963728    1.7432276765   -0.1704328203
 H    3.6063587660    1.3878542311   -0.6303376279
 H    2.3854179727    1.7010851889   -1.8805385854
 H    2.1184895334   -0.4436170803    0.9737075936
 H    0.8897150132   -2.7441511669   -0.8763346411
 H   -0.6654981225   -3.5962781889   -2.6476156873
 H   -0.7653892943   -1.9346138554   -3.3815966443
 H    1.7188062960   -1.9196132392   -3.7463261458
 H    1.8532164102   -3.5808440350   -3.0158929148