16

 N   -0.1254579840   -1.1386970221   -0.1423608974
 C   -0.0467751069    0.0125759192   -0.0966196587
 C   -0.0091371563    1.4797240246   -0.0093870038
 C   -0.7221553680    1.9677152523    1.2840945386
 C   -0.6227727184    3.4800017944    1.3126367518
 C    0.3205762710    4.1986832660    2.2243740362
 N    0.6318076657    4.0323426184    0.7992448965
 C    1.5955695092    3.1061627595    0.3927497303
 N    1.3800084823    1.9393626764   -0.0712061073
 H   -0.5594578373    1.8654278147   -0.8795833325
 H   -1.7640550908    1.6410730182    1.3000749655
 H   -0.2166444911    1.5120165490    2.1396793862
 H   -1.5002762253    4.0245168029    0.9725819644
 H    0.1008148141    5.2150465690    2.5364221862
 H    0.8878398258    3.6035440441    2.9356461037
 H    2.6191514101    3.4785973833    0.4304053004