21

 C   -0.0250372306    1.5669601364   -0.0213196534
 C    0.0496710181    0.0386768320   -0.0249512293
 C    0.6890839676   -0.5228140957   -1.3050788397
 C    0.7576160399   -2.0564544472   -1.2728453328
 C    1.4630738041   -2.5402625466    0.0026797147
 N    0.8925544822   -1.9954343462    1.2419189303
 C    0.7810390979   -0.5328357339    1.2260564816
 C    2.1303108765    0.0521413384    1.3606177183
 N    3.1791997927    0.5299983395    1.4446176759
 H    0.9725170446    2.0128402545   -0.0856925069
 H   -0.6085910379    1.9233885747   -0.8759190062
 H   -0.5023675054    1.9438135664    0.8899683308
 H   -0.9727713299   -0.3603092433    0.0467326152
 H    0.1220217140   -0.1796918748   -2.1776702611
 H    1.7020221480   -0.1106334366   -1.4095356171
 H   -0.2595682893   -2.4714150803   -1.3047838578
 H    1.2812922326   -2.4366152128   -2.1575116160
 H    1.4392768930   -3.6316735230    0.0771505795
 H    2.5204315151   -2.2481184526   -0.0287310306
 H   -0.0363508706   -2.3784024530    1.3894546308
 H    0.2252848276   -0.2350383058    2.1236923439