13

 N   -0.0734383883    1.2386411174    0.3357339649
 C   -0.0166832249    0.0238831992    0.0114173949
 O    1.1210803258   -0.6894362178   -0.2603945821
 C    0.8265798802   -1.9514932490   -0.8739791354
 C   -0.6752274581   -2.1360276485   -0.7114375870
 O   -1.0777282301   -2.0661894158    0.6540270956
 C   -1.1973822535   -0.8771709863   -0.1427711630
 C   -1.4079863657   -3.0092805535   -1.5900259506
 N   -1.9594612915   -3.7208878207   -2.3141507110
 H    0.8562881502    1.6617141198    0.3505246512
 H    1.1078143066   -1.9231883878   -1.9320619274
 H    1.3952990976   -2.7315631403   -0.3614943389
 H   -2.1939752582   -0.4843373467   -0.3005607812