20

 C    0.1067981297    1.4171154219   -0.4965053596
 C    0.0718163902   -0.0095190969    0.0163495943
 O    0.7785370935   -0.9597060725   -0.8307965386
 C    1.2752011039   -1.6704600683    0.3175249032
 C    2.7101391868   -1.2944264886    0.7557478892
 C    3.4763123464   -0.1964238612   -0.0203564367
 C    2.9750865252    0.7939540309    1.0714077582
 N    2.1619461515   -0.2794473972    1.7315030236
 C    0.7595720918   -0.5762918569    1.2910055668
 H    1.1116895372    1.7379985953   -0.7702130141
 H   -0.5215325186    1.4972152443   -1.3896410432
 H   -0.2931254932    2.1031996895    0.2575008878
 H   -0.9840229108   -0.3202525942    0.0828572368
 H    0.9815743659   -2.7235121941    0.3216038372
 H    3.3030105963   -2.1102630573    1.1832432618
 H    4.5583465321   -0.3279566343   -0.0795279717
 H    3.0754270584   -0.0204431188   -1.0198714833
 H    3.7652680966    1.1261437383    1.7531166314
 H    2.4247351740    1.6767488071    0.7464428813
 H    0.0903188231   -0.7395742071    2.1377174254