17

 C   -0.0290566598    1.4182512373   -0.2977581698
 C   -0.0936239430   -0.0510388080   -0.0796676851
 C   -1.1144748691   -0.9569738233   -0.0321523021
 C   -2.5976852996   -0.7043748887   -0.1837107035
 C   -2.9731423352    0.0386125643   -1.3859108134
 C   -3.2898436130    0.6540279601   -2.3686316477
 C   -0.5054700770   -2.2309751766    0.2331863866
 C    0.8280193475   -2.0055166589    0.3251822391
 O    1.0956065438   -0.6863328818    0.1367866733
 H    0.7224225944    1.6682482177   -1.0542867458
 H   -0.9962964954    1.7873447039   -0.6428418305
 H    0.2406547860    1.9530992051    0.6211052026
 H   -3.1164879568   -1.6703966824   -0.1906344978
 H   -2.9860924462   -0.1718522676    0.6956257380
 H   -3.5677867437    1.1895793470   -3.2422609286
 H   -1.0090502554   -3.1804960407    0.3332379077
 H    1.6818055824   -2.6374016874    0.5049082471