16

 C   -0.0676444857    1.5667532611    0.1252713644
 C   -0.0212811850    0.0417339739    0.0233128190
 O    0.6611138926   -0.4279836299    1.1710255422
 C   -1.3970128420   -0.5096193698   -0.0060968196
 N   -2.4519413250   -0.9805426443    0.0101249175
 C    0.7107670809   -0.4426445275   -1.2806955993
 O    0.0046661717   -0.0467065850   -2.4426575494
 C    2.1052602527   -0.0065724722   -1.2948483029
 C    3.2389375203    0.3870761970   -1.3578779293
 H    0.9538096951    1.9518428891    0.1574918118
 H   -0.5968172542    1.9913674874   -0.7303257335
 H   -0.5874014085    1.8586905000    1.0393945049
 H    0.6193697126   -1.3914070242    1.1901103220
 H    0.6758437336   -1.5401022162   -1.2722180283
 H    0.3312981906    0.8188313366   -2.7107750543
 H    4.2474200805    0.7187296841   -1.4048613052