19

 C   -0.0007106201    1.5081484534    0.0406068258
 C   -0.0020286859    0.0117820632    0.0018741456
 C   -0.0054420330   -0.7678862547   -1.0841000991
 C    0.0174701936   -2.2527625076   -0.7933367101
 C    0.0487078911   -2.3123945269    0.7497938835
 C    1.4122543679   -2.4869448152    1.4520275659
 O    2.3197874696   -1.5262572676    0.9034915584
 C    1.4161465152   -1.0923815118    1.9226041045
 C    0.0356009200   -0.8238307231    1.2527028034
 H    0.9011041789    1.8908419162    0.5354918078
 H   -0.0402472023    1.9376797316   -0.9641330857
 H   -0.8563088650    1.8941196284    0.6098900256
 H   -0.0119909821   -0.3876485766   -2.1017394650
 H   -0.8605029206   -2.7625115862   -1.2102069660
 H    0.8983113289   -2.7333681886   -1.2379309277
 H   -0.7277808881   -2.9408597861    1.1891936497
 H    1.8464529235   -3.3819941964    1.8839602613
 H    1.8498294618   -0.6416058729    2.8083364620
 H   -0.7349711534   -0.5799996593    1.9914381600