19

 C    0.1136812158    1.3917528137   -0.1772334809
 N    0.0493689934   -0.0360483561    0.0968519908
 C    0.6095887014   -0.3351815434    1.4124955568
 C   -1.3010594813   -0.5884039851   -0.0509506221
 C   -2.0501344218   -0.1749604206   -1.2987413288
 C   -2.3879852271   -1.2671923959   -1.9875891811
 N   -1.9365620749   -2.4329325299   -1.3554465787
 C   -1.2503890171   -2.1411363357   -0.1939864784
 O   -0.7315161973   -2.9543887060    0.5357012618
 H    1.1459233706    1.7284557269   -0.0425421302
 H   -0.1735371833    1.5998750894   -1.2103357139
 H   -0.5259965815    1.9988045141    0.4935201544
 H    0.0692688372    0.1857310736    2.2276268562
 H    0.5653765913   -1.4076558687    1.5991965342
 H    1.6548320245   -0.0124995780    1.4390966942
 H   -1.9229189126   -0.3627866391    0.8422592125
 H   -2.3296510754    0.8353735288   -1.5499735376
 H   -2.9590371197   -1.3489296546   -2.9016049436
 H   -1.9984390322   -3.3672858735   -1.7243453256