12

 O   -0.1279001477    0.0019573617    0.0009822210
 C   -0.0158649449    1.2021265774    0.0098389653
 C    1.2579217499    1.9335195023    0.0009308364
 C    1.4194136752    3.2899080101    0.0104052221
 O    2.7384536800    3.5660309889   -0.0028357651
 C    3.3461340125    2.3294488662   -0.0203872807
 N    2.5108910580    1.3381292777   -0.0189474583
 C    4.7551029334    2.3016677282   -0.0372940143
 C    5.9568984767    2.2847299808   -0.0516484210
 H   -0.9048499094    1.8720158442    0.0260166529
 H    0.7449667598    4.1300990641    0.0254268861
 H    7.0192238762    2.2604486982   -0.0644240444