21

 C    0.0507494169    0.3752578612    1.4000190605
 C   -0.1871015010   -0.2132414266    0.0198605376
 O   -1.4159849249   -0.9112299680    0.0336130637
 C   -1.7418724523   -1.4942879452   -1.2019537474
 C   -3.0738526832   -2.2482238499   -1.0568939570
 O   -3.5330221216   -2.6584548892   -2.3442625504
 C   -2.9754595994   -3.3703846185   -0.1245319205
 C   -2.8782773927   -4.3309049425    0.5957195082
 C   -2.7733224615   -5.4780479014    1.4853648121
 H    0.9984697514    0.9214787153    1.4236472543
 H   -0.7550189941    1.0649378052    1.6668248985
 H    0.0861622304   -0.4171724749    2.1528731845
 H   -0.2113901965    0.5837817036   -0.7427796542
 H    0.6334131460   -0.8968830256   -0.2570987937
 H   -1.8673507666   -0.7325710307   -1.9878791594
 H   -0.9565667395   -2.1951123765   -1.5335939528
 H   -3.8181235402   -1.5308934332   -0.6910493395
 H   -3.1006245940   -3.4946796251   -2.5474519153
 H   -3.5190443060   -6.2417228850    1.2385216471
 H   -1.7843260248   -5.9451245175    1.4232802709
 H   -2.9355464864   -5.1820595254    2.5275917628