17

 O    0.0849009996    1.2657036465   -0.3279325945
 C   -0.0209314525   -0.1361951949   -0.1235373535
 C   -1.4837077051   -0.4784276330    0.1521254687
 C   -2.3817785650   -0.1400745723   -1.0723560824
 C   -2.6445179154   -1.4851928085   -1.7038573863
 C   -2.2522732990   -2.4929033526   -0.9272175917
 C   -1.6488203021   -2.0100840175    0.3704919195
 H    0.9871163526    1.4641847066   -0.5938570038
 H    0.3217138129   -0.6960142107   -1.0095626081
 H    0.5968582209   -0.4578470471    0.7303406838
 H   -1.7922858299    0.0890033910    1.0345879490
 H   -3.3225732655    0.3375942622   -0.7667309324
 H   -1.8868231944    0.5702826123   -1.7429334218
 H   -3.1244892853   -1.5921585871   -2.6708763183
 H   -2.3643751068   -3.5463485111   -1.1600694657
 H   -0.6919895344   -2.4984235137    0.5990935871
 H   -2.3093071606   -2.2329629302    1.2193934803