19

 C    0.0898789029    1.0728887810    0.6395737621
 O   -0.1593732734    0.1645736000   -0.4197108494
 C   -1.3700458749   -0.4854264838   -0.3044949213
 C   -1.5215214680   -1.7846360755   -0.9924349058
 O   -0.4424663546   -2.2631964081   -1.7052356848
 C   -0.4631581124   -3.6706807349   -1.8720282565
 C   -1.4823433893   -1.7686717091    0.5563234049
 C   -0.2814221003   -2.2767083889    1.2511901396
 O   -0.3154548719   -2.8403518039    2.3224103021
 H    1.0441260171    1.5567052026    0.4230382739
 H   -0.6966479897    1.8387405900    0.7040636216
 H    0.1557300479    0.5558272063    1.6069213924
 H   -2.2423948217    0.1700977862   -0.2675422265
 H   -2.4972271986   -2.0153634479   -1.4246777319
 H    0.4045417896   -3.9294385469   -2.4816955791
 H   -0.3978269631   -4.1920107967   -0.9069420655
 H   -1.3772997632   -3.9996741380   -2.3872180156
 H   -2.4138855640   -1.9401794667    1.0852440548
 H    0.6753980076   -2.1061352359    0.7190139748