13

 N    0.2367613393    1.2682865474    0.0041055742
 C    0.0552299904    0.0040144701    0.0014257303
 N   -1.1884486382   -0.5650097319    0.0112106931
 C   -2.3953773421    0.1149385566    0.0251413454
 C   -2.6817090187    1.4623097408    0.0325074055
 N   -4.0406662451    1.4746365026    0.0456948809
 N   -4.5614222023    0.2417647038    0.0462932517
 N   -3.5584167276   -0.5936515176    0.0338497371
 H    1.2316129597    1.4778355421   -0.0045953653
 H    0.8463034600   -0.7536237479   -0.0087068194
 H   -1.2679446596   -1.5688162998    0.0086279184
 H   -2.0549964902    2.3328907883    0.0295004687
 H   -4.6598082855    2.2691051155    0.0544470793