21

 O   -0.3606823852    0.0427290670   -0.3326869332
 C   -0.1925766804    1.1867410515   -0.0243475957
 C   -1.1265889347    2.3058199814    0.4589436366
 C    0.1496166723    3.1662097630    0.7760725485
 C    1.0471208622    2.0840686106    0.1003503525
 C    0.1648162575    4.5907571223    0.2096068668
 C   -0.5872542174    5.4433662740    1.2602763527
 C   -0.4955431704    4.6418194900    2.5947158011
 C    0.3763548779    3.4085667745    2.2750769878
 H   -1.7487801930    2.7016526956   -0.3516003797
 H   -1.7798950793    2.0419734222    1.2961865591
 H    1.8700400483    1.6725412289    0.6929284106
 H    1.4416911120    2.3780574872   -0.8790224139
 H    1.2055539488    4.9272073126    0.1237169643
 H   -0.2748988250    4.6555891194   -0.7908308224
 H   -0.1544221875    6.4433937669    1.3478393934
 H   -1.6328911048    5.5814722248    0.9696495989
 H   -0.0789853829    5.2351017846    3.4128677655
 H   -1.4936038557    4.3263567101    2.9147868465
 H    0.1344287608    2.5381754615    2.8936477840
 H    1.4365014666    3.6375196820    2.4420517964