15

 N   -0.4849922007    0.6577121852   -1.2452678193
 C   -0.2094059946   -0.3732783133   -0.3447550626
 C   -0.9590068847   -1.2746564428    0.3825131415
 N   -2.3484102009   -1.4408776032    0.5250597874
 C   -3.3579513810   -0.9073929188   -0.2001820479
 O   -3.2549729067   -0.1079391982   -1.1163390538
 N   -0.1569425411   -2.1487446936    1.0759472890
 C    1.0732890302   -1.7974479234    0.7885256275
 N    1.0964573642   -0.7396643679   -0.0703701749
 H   -1.4804347348    0.6366977125   -1.4673694974
 H   -0.2508510427    1.5718629527   -0.8686287909
 H   -2.5893110172   -2.1314378441    1.2216788762
 H   -4.3389384324   -1.2838215386    0.1418229159
 H    1.9700989002   -2.2542558994    1.1769590920
 H    1.9019337320   -0.3231395470   -0.5071590526