18

 C    0.4396058469    1.3436461368   -0.1121273021
 O    0.6345885525   -0.0734330550   -0.0389481071
 C    0.2864739199   -0.6350892974    1.1315412539
 O   -0.1665228175   -0.0209477003    2.0702658563
 C    0.5141289208   -2.0991203789    1.1330106073
 C   -0.3416408728   -2.9969979022    2.0042850632
 C    1.1291995039   -2.9405675591    2.2627097004
 C    1.8854609417   -3.6992688314    1.1707544269
 N    1.2849108498   -2.8185662612    0.1205522729
 H    1.0444541297    1.8557221311    0.6406233155
 H    0.7529054608    1.6336462935   -1.1150488086
 H   -0.6105911456    1.5990956964    0.0514446121
 H   -0.9592556898   -2.4666965740    2.7200113861
 H   -0.7887131297   -3.8812299394    1.5550060550
 H    1.5423916513   -2.5723012082    3.1918269939
 H    2.9721691725   -3.5786620349    1.2099149647
 H    1.6481156592   -4.7668773154    1.0887904963
 H    0.7089466264   -3.3075599604   -0.5601542270