21

 C    0.0785901849    1.5141896774    0.2666707418
 O    1.4933125474    1.4173995663   -0.1052178230
 C    1.1482486282    0.2496925409   -0.9020597099
 C    0.6300229605    0.6404633780   -2.3210207893
 C   -0.7702283331   -0.0392510661   -2.3942952119
 C   -0.7741268509   -0.8909341455   -1.1142933740
 C    0.4085261185   -1.9426005575   -1.2339466862
 C    1.7668492293   -1.1374325208   -0.9860072864
 C   -0.1010108230    0.0080993508   -0.0731741223
 H   -0.0390619246    1.7986335394    1.3151817576
 H   -0.4572975573    2.2254487202   -0.3729727475
 H    0.5737776008    1.7260379607   -2.4188656775
 H    1.3072259380    0.2801458873   -3.0998257252
 H   -1.5760588999    0.7017577386   -2.3737418926
 H   -0.9075297149   -0.6434648654   -3.2959219337
 H   -1.7297408181   -1.3623166718   -0.8766300537
 H    0.2953957894   -2.7283460745   -0.4827377808
 H    0.3982933928   -2.4267245333   -2.2143519565
 H    2.4859155534   -1.2817746360   -1.7971095052
 H    2.2354698313   -1.4375778454   -0.0455705340
 H    0.1394510772   -0.5569400432    0.8319553604