19

 O    0.2624628574    1.2054978974    0.2267741907
 C    0.0015054279   -0.0512179589   -0.3209666651
 C   -1.4503553229   -0.4523592769   -0.0353610170
 O   -2.1742272399    0.3056528847    0.5943788006
 N   -1.8478109900   -1.6565144178   -0.5128406093
 C   -3.1792439651   -2.2038620324   -0.2901405075
 C   -3.1195611854   -3.6322351574    0.1926965414
 C   -4.2230911757   -4.5714071267   -0.1115569326
 N   -2.9125778295   -4.7354583711   -0.7676624814
 H   -0.5770344460    1.4650649592    0.6440615264
 H    0.1630060235   -0.0519720251   -1.4113268565
 H    0.6710761847   -0.8178396278    0.1020154295
 H   -1.1768083515   -2.2257422636   -1.0056291954
 H   -3.6580368829   -1.5543612011    0.4472619277
 H   -3.7771933709   -2.1512860770   -1.2121472257
 H   -2.5684772569   -3.7681232229    1.1210175961
 H   -4.4823842341   -5.3504318920    0.5987131451
 H   -5.0577047424   -4.2028499342   -0.7028637830
 H   -2.9732532603   -4.3792494162   -1.7201645840