17

 O   -0.1149406750   -0.0223658773   -0.1178634382
 C   -0.0340500091    1.1737124740   -0.0080787758
 C    1.2762147440    1.9322652815    0.0681305270
 C    1.3575974421    2.8595415629    1.3012700795
 N    2.6743625728    3.4648270318    1.4258704905
 C    3.7242614861    2.4536223059    1.5563535780
 C    3.5788867254    1.1732556083    0.7242411160
 O    4.4531190216    0.3299660412    0.7017730685
 N    2.3953161946    1.0214206113    0.0539875797
 H   -0.9379543391    1.8208404921    0.0227473544
 H    1.2772951747    2.5871038995   -0.8257955583
 H    0.5955942536    3.6416821267    1.2307725247
 H    1.1583296348    2.2767065547    2.2090789762
 H    2.8567276614    4.0481042577    0.6151748129
 H    4.6955456851    2.8956152744    1.3223672283
 H    3.7824264353    2.1227577002    2.6019003589
 H    2.2456889316    0.1185330951   -0.3779778924