18

 N   -0.1429935011   -1.1464207134   -0.2805527079
 C   -0.0925809344   -0.0012443380   -0.1288163278
 C   -0.0258980557    1.4341274434    0.0769473579
 C   -0.0291148717    1.9194814405    1.5517386845
 O    1.3046831334    2.4349181058    1.4375510860
 C    1.3968198278    2.0954137576    0.0332850618
 C    2.5810872975    1.2508827138   -0.3045998859
 C    3.0997818979    1.2434893267   -1.7246405300
 C    3.8929053332    1.9181025533   -0.6395314504
 H   -0.7608439509    1.9249777476   -0.5633727150
 H   -0.7663725004    2.7036476882    1.7599462673
 H   -0.1095325927    1.1318129312    2.3074560662
 H    1.3939984659    3.0043686074   -0.5847587433
 H    2.6334350353    0.3127818576    0.2388181772
 H    3.4547475385    0.3005320836   -2.1229336109
 H    2.5984435745    1.8719516208   -2.4536327727
 H    3.9262928797    3.0024290435   -0.6298377838
 H    4.8015176731    1.4428831004   -0.2887263231