19

 C   -0.3866369640    1.5051268707    0.0716794264
 C    0.1018827993    0.0603464612    0.0027732050
 C    1.1259905609   -0.2185886961   -1.1226748198
 C    1.8143210679   -1.5211879377   -0.7047208563
 O    3.2699517935   -1.4006552283   -0.5015875492
 C    3.1409808972   -1.5584269894    0.8576371844
 O    4.0084112699   -1.5688845949    1.6705246210
 C    1.6149028032   -1.6731829816    0.8210488596
 C    0.8139619107   -0.4361383671    1.2847540045
 H    0.4503531148    2.1919303621    0.2424485766
 H   -0.8796210145    1.8033374622   -0.8593182011
 H   -1.1045769133    1.6431328143    0.8867133871
 H   -0.7654443366   -0.5932025613   -0.1682579646
 H    0.6604290723   -0.2791039208   -2.1098274340
 H    1.8776543386    0.5782108631   -1.1604054637
 H    1.6091512279   -2.3831822979   -1.3403906070
 H    1.2284568421   -2.6230779362    1.1910480390
 H    1.4883388063    0.3403463144    1.6640782129
 H    0.1123888538   -0.6693546767    2.0890694892