21

 C   -0.2913624230    1.2298451790    0.0088224445
 O    0.0490951838   -0.1386289790    0.0363593346
 C    0.7583986312   -0.5664785911    1.1705238011
 C    2.1522360184    0.0546251360    1.2754178406
 C   -0.0050498462   -0.5653193060    2.5456787794
 C    0.2793455756   -2.0853557261    2.6968086060
 C   -0.8291897984   -2.9750205751    2.1169753417
 O   -0.3201348445   -2.8084386223    0.7737039779
 C    0.8450774956   -2.1152302171    1.2457264706
 H    0.5852303121    1.8827939878   -0.1088640848
 H   -0.9476198418    1.3738870637   -0.8529061052
 H   -0.8321573308    1.5387690132    0.9159454023
 H    2.1028353348    1.1224498153    1.5094919389
 H    2.7298971706   -0.4274286892    2.0711978274
 H    2.6922226232   -0.0743148401    0.3319928640
 H    0.4373606267    0.0733640471    3.3136539243
 H   -1.0691095256   -0.3297487263    2.4606390746
 H    0.8164291526   -2.4231332507    3.5811399805
 H   -0.7842635737   -4.0269283431    2.4296672615
 H   -1.8593098788   -2.6120075305    2.2230632784
 H    1.7752804083   -2.5877574055    0.9139882916