23

 C   -0.4872026968    1.4508287437    0.0506319802
 C    0.1499219830    0.0666948433   -0.0618573090
 C    1.1764128383   -0.0970436363   -1.1985079229
 C    1.8910174092   -1.4213756348   -0.8592574481
 C    2.0161910106   -1.4001271461    0.6706518622
 C    3.0914403208   -0.4357131343    1.2522254394
 C    1.9756671532    0.4834416335    1.8225026342
 C    0.8904072307   -0.4483328651    1.1952774058
 O    0.0260242240   -1.0663036847    2.1291494744
 H    0.2649010885    2.2353860797    0.1849658901
 H   -1.0580760219    1.6942691717   -0.8513954493
 H   -1.1830382793    1.5086285951    0.8967686788
 H   -0.6490453261   -0.6696363008   -0.2271907366
 H    0.7108402798   -0.1008624436   -2.1888022640
 H    1.8881990466    0.7391694427   -1.1853535782
 H    1.2668831948   -2.2665361602   -1.1727841325
 H    2.8580843955   -1.5283823157   -1.3614930068
 H    2.0132097911   -2.3921644759    1.1247654458
 H    3.7452828111   -0.8815247781    2.0045946346
 H    3.7220860703    0.0348453578    0.4922428955
 H    1.9185836329    0.4812750017    2.9134101438
 H    1.9897717474    1.5198116842    1.4753767002
 H   -0.5821679537   -0.3964147379    2.4610370225