18

 C   -0.0018103667    1.5003199239   -0.0074050753
 C    0.0261019023   -0.0023982898   -0.0298036048
 C    0.5828535348   -0.9469098164   -1.1230686407
 C    0.0394003070   -1.9016338847   -0.0377534483
 C    0.6153545420   -0.9737639800    1.0643161858
 N   -0.2929284093   -1.0568188538    2.2008632562
 C   -1.5588663807   -0.9463919521    1.6282866779
 O   -2.6202881627   -0.8165229383    2.1875422052
 C   -1.2161464194   -0.9779170243    0.1435533139
 H    1.0088505411    1.9116615728   -0.1059582504
 H   -0.6070614704    1.8977209183   -0.8289552682
 H   -0.4290336741    1.8703632324    0.9314035067
 H    0.0533216006   -0.9484044028   -2.0790141392
 H    1.6673582198   -0.9363142839   -1.2758534392
 H    0.0363202498   -2.9920462065   -0.0277232133
 H    1.6768183411   -0.9791880115    1.3100835366
 H   -0.1008000167   -0.6217966560    3.0901989449
 H   -2.0322554785   -0.9792583473   -0.5761919978