18

 C   -0.0583055849    1.4964763765   -0.1003834897
 C   -0.0439965312    0.0008143764    0.0681901998
 O    1.2268069468   -0.6608718482   -0.1072645872
 C    0.6363520083   -0.6735879337    1.1768040986
 C    1.2212292158   -0.0927454096    2.4677513122
 C    0.3433874745   -1.1222768449    3.2418189357
 C    0.1622241072   -1.9222874446    1.9126841990
 O   -1.1164608737   -2.3773702440    1.5450239985
 H    0.7951718390    1.9578309989    0.4028149662
 H   -0.0134680036    1.7629772386   -1.1615457576
 H   -0.9812241456    1.9192138222    0.3119036302
 H   -0.8748382292   -0.5367394632   -0.3888309391
 H    2.2913428977   -0.3001402865    2.5563293240
 H    1.0496637971    0.9665283551    2.6689346291
 H    0.8015588313   -1.6427416842    4.0846363977
 H   -0.6116754448   -0.6920328354    3.5523072076
 H    0.9156570556   -2.7185862298    1.8276306284
 H   -1.2457003503   -3.2604249338    1.9031449267