18

 C   -0.0529593228   -1.2595966522   -0.0786903760
 C   -0.0319120741   -0.0605430741   -0.0045197028
 C   -0.0040347133    1.3945716373    0.0511839534
 C    1.4236470890    1.9841675752    0.0726130004
 C    1.4049965540    3.5076779494   -0.1085468788
 C    2.7990836692    4.0534314308    0.1719827333
 O    3.2695937200    3.6407857853    1.4641523705
 C    2.8711113461    2.4117158506    1.8707305260
 N    2.0821457916    1.5933278550    1.3181513561
 H   -0.0697714033   -2.3198573073   -0.1275451969
 H   -0.5407953184    1.8026680127   -0.8153075174
 H   -0.5348460131    1.7446488699    0.9452776203
 H    1.9789850288    1.5284123484   -0.7583397916
 H    1.0930478192    3.7891085356   -1.1198425897
 H    0.6904534161    3.9541125771    0.5939562402
 H    3.5134646147    3.6999509203   -0.5828261089
 H    2.8231195536    5.1456023267    0.1811322840
 H    3.3411685827    2.1731089492    2.8233449578