19

 N    0.9790636551   -0.1408010205    0.2796608044
 C   -0.1673767786    0.3427085051    0.0123957638
 N   -1.3087162590   -0.4552781014    0.0524244045
 C   -1.1219009491   -1.8773026785    0.3882919765
 C   -2.4210570744   -2.5628519258    0.7911976551
 C   -3.5146912168   -2.2639575922   -0.2322452821
 C   -3.7680175191   -0.7562436709   -0.2580217661
 C   -2.5245711411    0.1202011990   -0.3268235180
 O   -2.6019115335    1.2846501732   -0.6650883753
 H    1.6856738856    0.5892080795    0.2096491812
 H   -0.4010198383    1.3699490194   -0.2649171826
 H   -0.6777115861   -2.3828639403   -0.4791125783
 H   -0.3748502969   -1.9236246659    1.1830279451
 H   -2.2319059498   -3.6375273132    0.8755336414
 H   -2.7379808206   -2.2141202332    1.7823294170
 H   -3.1963916497   -2.6118138953   -1.2233001481
 H   -4.4409313501   -2.7958552770    0.0065943146
 H   -4.4065441672   -0.4478899457   -1.0895400186
 H   -4.2946559402   -0.4529159963    0.6570205154