15

 O   -0.5990937079    0.2416210132    0.1032874160
 C   -0.2476248656    1.3692933127   -0.1136137262
 C    1.1707341787    1.8675945697    0.0275150696
 C    1.4584822865    2.8022967846    1.2821524421
 C    2.4170037123    1.6970509641    1.7036214624
 C    3.3300181682    0.9964512400    2.4477488383
 N    3.5861415128   -0.1978536404    1.7993835431
 C    2.8544302920   -0.2285772283    0.7009883813
 N    2.1332470504    0.9230996767    0.6145054905
 H   -0.9608520580    2.1587933439   -0.4431073580
 H    1.4984323228    2.3041335878   -0.9236681496
 H    1.9011417278    3.7675750664    1.0282395874
 H    0.5945233478    2.9606115648    1.9328045352
 H    3.8159004815    1.2443609822    3.3774978734
 H    2.8168137209   -1.0295766974   -0.0190803454