15

 N    0.1011465380    1.3660475448   -0.1683087246
 C    0.0476997286   -0.0298385656   -0.0669511152
 N   -1.1460337932   -0.6198097987   -0.0068671465
 C   -1.1667900981   -1.9583057640    0.0385442687
 C   -0.0382384311   -2.7635505584    0.0345564797
 C    1.2077074409   -2.1376675182   -0.0514377877
 O    2.3476600765   -2.8609751725   -0.0942610328
 C    1.2452180591   -0.7484133185   -0.1076590811
 O    2.4786045497   -0.1315174254   -0.1968653210
 H    0.7740834181    1.7898668738    0.4593909177
 H   -0.8197680785    1.7664914203   -0.0379113234
 H   -2.1527998113   -2.4127185106    0.0894988059
 H   -0.1034846329   -3.8432504882    0.0806354997
 H    3.0781639520   -2.2344614017   -0.1938577707
 H    2.3951481721    0.6088846630   -0.8119192586