17

 C   -0.1196579119    1.5008909626    0.0048386781
 C    0.0060700059    0.0028589020    0.0280644767
 O   -1.2792149758   -0.6109938121   -0.0724551085
 C   -1.0887337609   -2.0069723953    0.1585378139
 C    0.2595812911   -2.1193004984    0.8577625458
 C    0.7525004061   -0.7764396711    1.1496246533
 N    1.4771536687   -1.6403444908    0.1031850760
 C    0.9913360370   -0.7092892397   -0.9057851021
 N    1.3822734816   -0.4852066060   -2.0765571690
 H    0.8591496035    1.9701921186    0.1311005787
 H   -0.5326177057    1.8216979549   -0.9544888033
 H   -0.7858523816    1.8375249562    0.8043379860
 H   -1.9004130138   -2.3750123265    0.7952581663
 H   -1.1034849266   -2.5641432334   -0.7879598346
 H    0.4762202614   -2.9687222331    1.4947655536
 H    1.2574524313   -0.4098819737    2.0327303703
 H    2.1123256798   -1.1521804140   -2.3433452711