23

 C   -0.0875458008    1.5722865744   -0.0697793126
 C    0.0621271184    0.0531182153    0.0285419255
 C    0.7134653580   -0.5736366536   -1.2313965852
 C    1.5043617931   -1.7817659641   -0.7070833435
 C    2.0736935869   -1.2427578988    0.6097484037
 C    0.9000146113   -0.4756464271    1.2359430654
 C    1.2287957338    0.4087920600    2.4639663409
 C    0.4614167711   -0.6520232866    3.2714821070
 O    0.0836977705   -1.3556689906    2.0744495048
 H    0.8883548545    2.0699227618   -0.1155350603
 H   -0.6353003140    1.8421544254   -0.9789646345
 H   -0.6388334688    1.9893534610    0.7788775805
 H   -0.9317003755   -0.3858334645    0.1690554660
 H   -0.0251990223   -0.8322753846   -1.9955182264
 H    1.4062396109    0.1474243618   -1.6855683795
 H    0.8290034060   -2.6202273377   -0.5005962875
 H    2.2703418007   -2.1344378075   -1.4032294929
 H    2.4590949784   -2.0074580567    1.2893920296
 H    2.8880583376   -0.5358663563    0.3982949991
 H    2.2919849056    0.5124880841    2.6907333652
 H    0.7690672702    1.3976849404    2.4602654530
 H    1.0804244988   -1.2688993783    3.9364008428
 H   -0.4128321344   -0.3014348779    3.8330168490