21

 C    0.0441277685    1.4322554933   -0.0137964208
 C   -0.0348835967   -0.0671513137   -0.0054772092
 O    0.9680889043   -0.6722925363   -0.8116585208
 C    0.4249532357   -1.9001505277   -1.3092074991
 C   -0.6945242710   -2.2365660138   -0.3299952288
 C   -0.1299606539   -2.2857940224    1.1259411671
 C   -0.4585821684   -0.8017118494    1.2612774616
 C   -1.3139459357   -0.8363896841   -0.0210780415
 C   -2.6994012928   -0.3617464625   -0.3394410979
 H    1.0274668802    1.7624618828    0.3359164298
 H   -0.1053616221    1.8262467396   -1.0241075777
 H   -0.7119306109    1.8678189059    0.6454898347
 H    0.0424571740   -1.7645910581   -2.3337730207
 H    1.2258778848   -2.6471533749   -1.3303999496
 H   -1.3558852323   -3.0455860696   -0.6405259671
 H   -0.7533216095   -2.8997339935    1.7810024073
 H    0.9175199193   -2.5877341050    1.2371692533
 H   -0.6472276188   -0.2657316950    2.1865150655
 H   -2.8610044385    0.6613444805    0.0154980502
 H   -2.8835311864   -0.3666365403   -1.4207916590
 H   -3.4606225100   -0.9969918960    0.1283155828