21

 C    0.0259915098    1.5835183569    0.0347651031
 C    0.0074857490    0.0527165642    0.0058955807
 C   -1.4090652947   -0.5306146222   -0.0006737720
 C   -1.4398523233   -2.0613221294   -0.0353536945
 C   -2.8550862289   -2.6489777663    0.0428151680
 C   -2.8606466247   -4.1737992335   -0.0719381607
 O   -3.5363885394   -2.2219872463    1.2229141028
 H    1.0490726817    1.9726328681    0.0447852366
 H   -0.4807576593    2.0017191523   -0.8421931488
 H   -0.4860896277    1.9676669002    0.9240070828
 H    0.5539760564   -0.3037783001   -0.8777531668
 H    0.5551644555   -0.3362924923    0.8750156060
 H   -1.9583350303   -0.1872186605    0.8836650220
 H   -1.9590277586   -0.1394528402   -0.8683378466
 H   -0.9543110272   -2.4257941679   -0.9506453645
 H   -0.8478772049   -2.4639578741    0.8016174900
 H   -3.4546045095   -2.2291622947   -0.7754835313
 H   -2.2609803741   -4.6251347914    0.7290267145
 H   -3.8812210077   -4.5577668168    0.0087235667
 H   -2.4383688225   -4.5027573013   -1.0270950591
 H   -3.0706502597   -2.6010250750    1.9770463908