16

 O   -0.0248656452   -0.0292024481   -0.1157457646
 C   -0.0088936212    1.1572605182   -0.0081580335
 O   -1.1389563445    1.9219990703    0.0604645852
 C   -0.7892323807    3.2571998935    0.4843383745
 C   -0.8478608261    3.3090204147    2.0149113378
 C    0.4336572523    2.5531159622    2.4612047729
 C    1.4049430920    2.7293599544    1.2934276012
 C    0.7066558548    3.3690817101    0.1498425041
 N    1.1609119248    1.9850895096    0.0167789479
 H   -1.4454831292    3.9557841703   -0.0333919556
 H   -0.7965461671    4.3550091841    2.3371725831
 H   -1.7730245005    2.8759020324    2.4024404762
 H    0.8600139775    2.9751735335    3.3744468911
 H    0.2363941193    1.4951557803    2.6625968325
 H    2.4603496651    2.8800795734    1.4913764725
 H    1.1141137087    4.1167316411   -0.5205095352