20

 C    0.0078286140    1.4759449906   -0.0609998846
 N   -0.0758194804    0.0262704696    0.0406423539
 C    0.7637731909   -0.5112605160    1.1045645326
 C   -1.3926884578   -0.4774225063    0.0270715475
 C   -2.4965478309   -0.1631269942   -1.0045649222
 C   -3.1696720743   -1.2087869941   -0.0939740501
 C   -1.8365090908   -1.9783085688    0.1395884413
 O   -1.9588506109   -1.9870599279    1.5907573197
 C   -2.4794924011   -0.6817842651    1.1948577050
 H    1.0525095407    1.7672982234   -0.2086900201
 H   -0.5669444187    1.8249665004   -0.9226996266
 H   -0.3651205537    1.9986601679    0.8387316156
 H    0.4765740583   -0.1488187211    2.1064375428
 H    0.7004636763   -1.6007950575    1.1163197817
 H    1.8031869074   -0.2201427665    0.9214052645
 H   -2.9221535497    0.8439806210   -0.9827050492
 H   -2.2924835250   -0.4699599240   -2.0346024256
 H   -4.1621233792   -1.6498318432   -0.1545974971
 H   -1.4448244885   -2.8636586588   -0.3622387545
 H   -2.8587732566   -0.0138808995    1.9678586355