15

 O    0.5256422678    1.0411592760   -0.2993959248
 C    0.1408398949   -0.2188428138    0.1165289551
 C   -0.5585088449   -0.4448162628    1.4548460074
 O   -1.0433545037    0.7121542784    2.1034532925
 C   -2.2241873332    1.1044223857    1.4349808604
 O   -2.1603957115    0.5733206203    0.1138156357
 C   -1.3304223353   -0.5765086982    0.1741203717
 C   -3.4510397590    0.5436933807    2.1596922577
 O   -4.3369690077    1.2306481468    2.5902705940
 H   -0.2796950918    1.5181236234   -0.5395690240
 H    0.8302717882   -0.9998400575   -0.1946028488
 H   -0.3059975280   -1.2667694852    2.1146653593
 H   -2.2824588495    2.1952326453    1.3859127519
 H   -1.7700182031   -1.4811032409   -0.2299750036
 H   -3.4511854833   -0.5647087881    2.2598256955