18

 O   -0.6257868533    0.0413698749   -0.3450165480
 C   -0.1764797212    1.1378194289   -0.1407193152
 C    1.2089136474    1.5920964124   -0.5732620238
 N    1.1883231086    2.9924103729   -0.9693171822
 C    2.4503827243    3.6797695859   -0.9827645063
 C    3.6370035937    3.2078652519   -1.8277725259
 C    2.8870379855    4.4315546728   -2.2318339629
 C    2.7973401151    4.3505793587    0.3077754424
 O    3.8463770365    4.9042851681    0.5311103364
 H   -0.7497386318    1.9236485035    0.4005861004
 H    1.8544059445    1.4970653990    0.3118782543
 H    1.5949170641    0.8891454297   -1.3269134813
 H    0.6795401956    3.1234221932   -1.8335145361
 H    4.6169607389    3.3383339591   -1.3832962386
 H    3.4915210077    2.3006651392   -2.4028250275
 H    2.2236532139    4.3763008451   -3.0890909053
 H    3.3549180518    5.3956868672   -2.0696735516
 H    1.9796502286    4.3044382775    1.0604459912