12

 O   -0.0833410990   -0.0115193824   -0.0014197948
 C    0.0076694506    1.1845759134    0.0060806903
 C    1.3109544137    1.9242989897   -0.0018280102
 N    2.4660780872    1.3712919511   -0.0191400065
 C    3.4340011686    2.4669641037   -0.0201375127
 C    2.6312706381    3.7758859288   -0.0011286936
 O    2.9960006549    4.9221161427    0.0058124534
 N    1.3117433776    3.3187646660    0.0101328389
 H   -0.8891111243    1.8441529184    0.0197399661
 H    4.0943755747    2.4016700589    0.8519049639
 H    4.0761668267    2.4161835439   -0.9066103371
 H    0.5083081012    3.9267844658    0.0249318122