21

 C    0.1872620978    1.7092146561    0.3341840183
 C    1.3508997985    0.7894643222   -0.0117634109
 C    2.3256276127    0.4589135076    1.0541982440
 C    2.0151440412   -0.2437451273    2.1472165629
 C    0.6564534002   -0.8111031287    2.3937691752
 C   -0.3589252703   -0.0456620099    3.3089753259
 C   -1.4702589931   -0.3004656671    2.2528189810
 C   -0.3834016945   -0.7393782445    1.2247525455
 C   -0.0559432048    0.2394202228    0.1110203947
 H    0.1641081511    2.1027659877    1.3442347782
 H   -0.1641404685    2.4011566499   -0.4243386909
 H    1.7645458223    0.8953634375   -1.0100667869
 H    3.3362424241    0.8388610143    0.9254761176
 H    2.7771855969   -0.4294559169    2.9009693643
 H    0.7510879496   -1.8433067699    2.7506631406
 H   -0.5195856963   -0.4564792266    4.3090675130
 H   -0.1036504739    1.0122035022    3.4109171932
 H   -2.1388875463   -1.1192050478    2.5322442750
 H   -2.0798084416    0.5604326404    1.9680102127
 H   -0.5719028382   -1.7134744145    0.7649839883
 H   -0.5431025469    0.0064775323   -0.8316854717