18

 C   -0.0447048473    1.5929472350    0.0223255977
 C    0.0498669516    0.0842519699    0.0372511588
 O   -1.1565047292   -0.5587402680   -0.3087447777
 C    1.2960516952   -0.6864248309   -0.3558872651
 C    2.6437859495    0.0080951232   -0.3008913753
 O    2.7084580418    0.6682373744    0.9630924165
 C    1.8690496748   -0.0151559350    1.8943184051
 C    0.7918952490   -0.7044884975    1.0797035346
 H    0.8868693424    2.0605344854    0.3442942467
 H   -0.2726159407    1.9505605017   -0.9900624252
 H   -0.8552575370    1.9213887061    0.6807561717
 H   -1.3617248331   -0.3219853031   -1.2202751317
 H    1.1732350471   -1.5502725227   -0.9987407779
 H    3.4486002266   -0.7380338491   -0.4000074897
 H    2.7964375091    0.7747832686   -1.0689025591
 H    2.4387300415   -0.7675250503    2.4624515596
 H    1.4976179464    0.7351973856    2.6008544256
 H    0.2970457322   -1.5767215332    1.4894123053