19

 O    0.5830021368   -0.0155670627    0.8921181218
 C   -0.1382613962    0.1235856272   -0.3213263454
 C   -1.5107638093   -0.4830882919   -0.2098562893
 C   -2.6910721907   -0.5214784611   -1.2316156243
 C   -3.2519095889   -1.2319378953    0.0397052497
 C   -1.8793848368   -1.9683244015    0.1608347389
 O   -1.5382673115   -3.0301132882   -0.6808966540
 C   -2.5823418747   -0.0628907305    0.8258519545
 O   -2.1807895505   -0.2195286639    2.1704991055
 H   -0.0295846908    0.1610183435    1.6163174120
 H   -0.2227456131    1.1820944504   -0.6237807506
 H    0.4460603678   -0.3880725452   -1.0954530407
 H   -3.1396612539    0.4394983300   -1.4997365671
 H   -2.5591894374   -1.1276196659   -2.1306393775
 H   -4.2534218071   -1.6420574474    0.1766641367
 H   -1.5990334101   -2.2768453491    1.1652006171
 H   -1.7823656762   -2.8199211134   -1.5875736061
 H   -3.0329477915    0.9230170363    0.6567140947
 H   -2.9245275759   -0.0198606414    2.7469374640