20

 C    0.4026915327    0.8688571856   -0.7658864587
 C   -0.0848026145    0.1060023520    0.4654614954
 O    0.0612767032    0.8916578996    1.6554801941
 C   -1.4903363062   -0.4170304935    0.3584969489
 C   -2.3294689851   -0.3890550046   -0.6818954929
 C   -3.5991929940   -1.0905618904   -0.3502794606
 C   -3.4604801464   -2.5366212031   -0.0109117610
 N   -3.4979199074   -1.5394340616    1.0615543438
 C   -2.1670539591   -1.1018173086    1.5375603705
 H    1.4134178708    1.2437148300   -0.5872908915
 H    0.4200407963    0.2260157408   -1.6512135068
 H   -0.2492875425    1.7235266820   -0.9794978670
 H    0.5890052573   -0.7447027710    0.6389336069
 H   -0.5385614647    1.6423236860    1.5758239193
 H   -2.1350317983    0.0501008997   -1.6523318760
 H   -4.5522653213   -0.6907773491   -0.6871938763
 H   -4.3266235775   -3.1926676220   -0.0417550127
 H   -2.5113269957   -3.0114762351   -0.2530076761
 H   -1.5917178151   -1.9581760708    1.9130408798
 H   -2.2891994025   -0.4146700059    2.3827060811