18

 O    0.3081368081    1.3296712486    0.0721987898
 C    0.0501280159   -0.0246339647   -0.0404474015
 C   -1.3390860145   -0.6661040384    0.0230078494
 C   -2.5607685521    0.1662887126   -0.2662808598
 N   -2.2916386217    1.6016960944   -0.5742576383
 C   -2.5140389427    0.6406775977   -1.6767696655
 C   -1.2403402716    0.1182232479   -2.3287893766
 C   -0.5041988859   -0.7114460563   -1.2593286595
 O    0.0545289555   -1.9242134560   -1.6763872307
 H   -0.5370022673    1.7828192826   -0.1225303689
 H    0.8151892602   -0.6121352591    0.4644486858
 H   -1.4626969328   -1.5510613437    0.6362031425
 H   -3.4930092872   -0.0733838433    0.2320293699
 H   -3.1273545865    2.1567983307   -0.4159307397
 H   -3.4099301903    0.7645701600   -2.2757624057
 H   -1.4940171726   -0.5575698644   -3.1506919780
 H   -0.6247643959    0.9305675387   -2.7305872816
 H    0.9738501613   -1.7615037974   -1.9142387817