11

 O    0.0703411704    1.3772537369   -0.0333026059
 C    0.0647905858    0.0394664184   -0.0966556294
 C    0.0077242219   -0.7655546392   -1.1980644299
 N    0.0325290815   -2.0343794161   -0.6637287507
 C   -0.0056125958   -3.2531809775   -1.3770281653
 O    0.0177070382   -4.3344110368   -0.8731420380
 N    0.1010850709   -1.9883994540    0.6926760583
 N    0.1202714229   -0.7392971061    1.0283491421
 H    0.1180055957    1.6174560245    0.9015407265
 H   -0.0452805264   -0.5696417018   -2.2538240187
 H   -0.0604144152   -3.0616393883   -2.4635715389