20

 C    0.0191524411    1.6336728890    0.0153190628
 C    0.0502550896    0.1143152605   -0.0088886636
 C    0.7576522345   -0.6514794682   -1.1593391201
 C    2.2515305103   -0.2921370576   -1.0434174704
 C    2.6212609746   -1.5325947023   -0.3257908541
 N    2.4491532352   -0.2666162740    0.4496916796
 C    1.0406888599   -0.6651838322    0.8778536478
 C    1.1048984027   -1.8365116826   -0.1568468459
 C    0.4000621352   -3.1570844209   -0.0936428142
 H    1.0274815326    2.0460888012   -0.0831357641
 H   -0.5934927196    2.0301892178   -0.8019529939
 H   -0.4025705374    2.0044555850    0.9559707471
 H   -0.9534641693   -0.3052557452    0.1350895008
 H    0.3183076069   -0.8001725580   -2.1450949888
 H    2.8528816180    0.3822679238   -1.6398840924
 H    3.5272428488   -2.1276743877   -0.3004357211
 H    0.9383249106   -0.7689114773    1.9583771053
 H   -0.6804534531   -3.0245023183    0.0323190291
 H    0.5581953741   -3.7363501686   -1.0108101800
 H    0.7613438554   -3.7603143547    0.7474698662