17

 C   -0.0837821845    1.4903775998   -0.0745839049
 C    0.0417222960   -0.0154013644   -0.0195266182
 C    1.3782773561   -0.6843199013   -0.1951480766
 C    0.7141067088   -0.6782068301    1.1550937205
 C    1.1699818136   -0.1161345712    2.4977000604
 O    0.6453768628   -1.3194078568    3.1499850653
 C    0.2321245159   -1.8487521013    1.9373616032
 N   -0.3399134927   -2.9304925545    1.6624948277
 H    0.8043799047    1.9799434146    0.3391144244
 H   -0.1982025187    1.8335529949   -1.1081595285
 H   -0.9534646094    1.8405894185    0.4916630697
 H   -0.8119952155   -0.5668289579   -0.4046558343
 H    1.4239873509   -1.6365502982   -0.7120150298
 H    2.2511735819   -0.0503464938   -0.3199329456
 H    2.2484894953   -0.0277191989    2.6545018554
 H    0.6551194622    0.7784188914    2.8590986256
 H   -0.5142362776   -3.4886243507    2.4988406959