18

 C    0.1679728914    1.4779037052    0.0976779012
 C   -0.0319349378   -0.0329217199   -0.0196393121
 C    0.6820055359   -0.6236598930   -1.2994328062
 C    1.9018260078   -1.2595852210   -0.6975114889
 C    1.7533546777   -1.2639131519    0.6460507581
 N    0.5672313467   -0.7536467768    1.1596008836
 O    2.7518935551   -1.8797204772    1.2938907034
 C    3.6124233181   -2.3019188049    0.2871512051
 C    3.1305061314   -1.9571459362   -0.9401316644
 H    1.2352045561    1.7252490505    0.1002884457
 H   -0.3001541236    1.9946131363   -0.7464746334
 H   -0.2814532831    1.8690673579    1.0173360328
 H   -1.1021750821   -0.2559384138   -0.0455370812
 H    0.0332618881   -1.3530811838   -1.8005132428
 H    0.8851452989    0.1717876632   -2.0261979108
 H    0.6725762735   -0.1542555208    1.9719551701
 H    4.5018422382   -2.8017000603    0.6292547390
 H    3.6115746776   -2.1715358636   -1.8823433392