20

 C   -0.1824339458    1.6579535390   -0.0138697369
 C    0.0175976468    0.1509968902    0.0154096935
 C    1.1979478138   -0.5748881225   -0.7014055968
 C    1.4280464454   -0.8134399047   -2.1612018046
 C    2.1810023666   -0.0716234794    0.3870200198
 C    0.8911939309   -0.5809818081    1.0807756082
 C    0.6201785914   -0.8294492718    2.5318681546
 O    0.9234901098   -1.7533178183    0.1648310892
 H    0.7410139267    2.2203893587    0.1472729277
 H   -0.5965956765    1.9712278950   -0.9787380023
 H   -0.8961165213    1.9652151460    0.7587148495
 H   -0.9234534975   -0.3838460532   -0.1483997286
 H    1.6093596840    0.1348882544   -2.6774472937
 H    2.2969824693   -1.4607749197   -2.3143953333
 H    0.5544472167   -1.2922934475   -2.6143146944
 H    3.0551903718   -0.7082521765    0.5353139928
 H    2.4271768280    0.9914850003    0.4330208708
 H    0.6170007169    0.1152735314    3.0852216153
 H   -0.3539670536   -1.3105848128    2.6635364205
 H    1.3887637565   -1.4785048205    2.9626396886