17

 O   -0.1737804673    1.4031166063    0.0234789447
 C   -0.0667907105    0.0069382813    0.0626886390
 C   -0.4357241655   -0.8055218636    1.2719224518
 C   -1.3026048530   -0.8206329021   -0.0031269181
 C   -2.4621743876   -0.1258251280    0.7487453966
 C   -3.6340370173   -0.9620957287    0.8987199091
 C   -4.5749479898   -1.6941872355    1.0675043953
 C   -1.5567665225   -0.0994690190    2.0579787731
 O   -2.0500610653   -0.7824396435    3.1719077151
 H    0.5330428621    1.7732219956    0.5627978473
 H    0.7656873997   -0.3965896955   -0.5149503003
 H    0.2104659877   -1.5683953302    1.6906953604
 H   -1.4471566093   -1.5973435650   -0.7439045659
 H   -2.7307601402    0.8602488523    0.3601004095
 H   -5.4288071279   -2.3143895869    1.1881084192
 H   -1.3095536402    0.9110895688    2.3926273928
 H   -2.6096702629   -1.5066779165    2.8605556005