22

 C   -0.0163392532    1.5978170085   -0.1332118143
 C   -0.0115450779    0.0663740920   -0.0659142673
 C   -1.4286637663   -0.4963657895    0.0566581991
 O   -1.9964599871   -0.0048563385    1.2617933343
 C    0.6808747687   -0.5599917155   -1.2724907681
 O    2.0505906016   -0.1360615534   -1.2613098791
 C    2.8307570899   -0.5720555251   -2.2704108904
 C    4.2306411347   -0.0349841989   -2.1094094548
 N    2.3691009067   -1.3254095160   -3.1832839170
 H    1.0035574545    1.9868061006   -0.1761464635
 H   -0.5479815794    1.9440722582   -1.0284826902
 H   -0.5193261240    2.0156606879    0.7410634945
 H    0.5358485420   -0.2458364588    0.8331687872
 H   -2.0259408636   -0.1884295703   -0.8180718772
 H   -1.3930896456   -1.5978229537    0.0586822191
 H   -2.9087967649   -0.3039708246    1.3079989706
 H    0.6467164902   -1.6548686838   -1.2415378705
 H    0.2165795746   -0.2484120288   -2.2158605881
 H    4.8788816200   -0.3829998067   -2.9150619120
 H    4.2164574721    1.0592278545   -2.1076884805
 H    4.6482923298   -0.3535708202   -1.1494989419
 H    3.0962598772   -1.5533407782   -3.8573031500