20

 C   -0.0461561621    1.5071653258    0.0415577717
 C   -0.0236453514    0.0016458489   -0.0219523241
 C   -0.0834129070   -0.6874798687   -1.2304624202
 C   -0.0580115786   -2.0777194450   -1.2102776267
 C    0.0256774035   -2.7591327436   -0.0009106830
 C    0.0550685208   -4.2646796610    0.0525363169
 C    0.0816444852   -1.9772122944    1.1705491137
 C    0.1736492796   -2.6230842564    2.5300673342
 N    0.0572762988   -0.6422232932    1.1516501038
 H    0.8570431697    1.8829259925    0.5332537725
 H   -0.1123425154    1.9531415293   -0.9540343179
 H   -0.8982269935    1.8523488908    0.6361719903
 H   -0.1485287327   -0.1469797522   -2.1685749230
 H   -0.1035136124   -2.6373851470   -2.1406189451
 H    0.9704216780   -4.6369043196    0.5277156956
 H   -0.7841735341   -4.6674583726    0.6318982215
 H    0.0028952905   -4.6933554126   -0.9518600324
 H    1.0709859252   -3.2471646494    2.6194930359
 H    0.2057144177   -1.8486892736    3.2970815928
 H   -0.6845888918   -3.2777546181    2.7237684136