18

 O    0.0207200623   -0.0473241992    0.1874857710
 C   -0.0145611499    1.1549936690    0.0204633199
 C   -1.3291693164    1.9275121766   -0.0575322208
 C   -1.2297817884    3.1322899502   -1.0023488034
 C   -0.0509370495    4.0237317906   -0.6487054511
 C    0.0363960807    5.3747384181   -1.2705525520
 N   -0.2467079331    5.2597567779    0.1632477635
 C    1.1908561522    3.2876839495   -0.3129442491
 C    1.2158019051    1.9728499120   -0.0532673886
 H   -2.1206213819    1.2354950560   -0.3543210842
 H   -1.5601611547    2.2676068343    0.9616963102
 H   -1.0960753831    2.7682748010   -2.0292993689
 H   -2.1589744525    3.7135625290   -0.9950834054
 H    1.0052963943    5.8026428526   -1.5147900684
 H   -0.7665521107    5.6595755309   -1.9467640133
 H   -1.2412812163    5.3926593269    0.3341967427
 H    2.1067494574    3.8727416291   -0.2815709307
 H    2.1441291045    1.4497644155    0.1533164885