18

 C   -0.0173536637    1.4878626059   -0.1460470198
 O    1.2350374703    1.6126192781    0.5568389682
 C    1.4606332095    0.1894322642    0.4960824342
 C    0.0239452015   -0.0568348139   -0.0137349210
 C   -0.9739502265   -0.7129914429    0.9461508303
 C   -2.0382311581   -1.2591384925   -0.0145785182
 C   -1.1693717127   -1.6885954215   -1.2000726459
 O   -0.0760413482   -0.7678812319   -1.2355434643
 H   -0.8317988974    2.0222055963    0.3586046051
 H    0.0555052167    1.8201322762   -1.1895511652
 H    2.2258144552   -0.0826723469   -0.2421727108
 H    1.7234065933   -0.2305315592    1.4746402957
 H   -0.4841999035   -1.5372855058    1.4783759195
 H   -1.3604543557   -0.0166985403    1.6933015184
 H   -2.6259794507   -2.0798294836    0.4030536410
 H   -2.7293605615   -0.4643380274   -0.3155754731
 H   -0.7882276375   -2.7113587330   -1.0613324165
 H   -1.6888405010   -1.6478744017   -2.1625708276