20

 C   -0.2636064704    1.5170360037    0.0503615071
 C    0.0387744245    0.0140758706    0.1069811262
 C    0.6271142188   -0.4936295080   -1.2178622202
 C    1.1401548801   -1.9267453885   -1.1669799622
 O    1.2500599841   -2.6040172626   -2.1618017507
 C    1.4979146550   -2.5056857748    0.2089977264
 N    1.6380936137   -1.6053470547    1.3481191610
 C    2.4193106794   -0.3811839967    1.1712247929
 C    0.9328316112   -0.3239171802    1.2902068108
 H    0.6551605361    2.0931559646   -0.1052105617
 H   -0.9503634982    1.7483731178   -0.7702505338
 H   -0.7239614859    1.8640589333    0.9809434823
 H   -0.9135802982   -0.5117576745    0.2720142193
 H   -0.0991482852   -0.4250383308   -2.0335990658
 H    1.4740282910    0.1390604013   -1.5186106858
 H    0.7037631999   -3.2274092709    0.4469481902
 H    2.4145861788   -3.0936522451    0.0961075642
 H    3.0463339272   -0.1064732532    2.0151849595
 H    2.8723891418   -0.1851294820    0.2018391184
 H    0.5177113365   -0.0182954190    2.2503678118