21

 C    0.0197467872    1.5451593970   -0.1210670216
 C   -0.0076857252    0.0337926694    0.0109195374
 O    0.6893105746   -0.5112989122   -1.1196395391
 C    0.7579619213   -1.8555186059   -1.2047832581
 N    0.2621074806   -2.6098066466   -0.3151881160
 C    0.3537118241   -4.0556418485   -0.5056072443
 C    0.6839348262   -4.4838012423   -1.9406996857
 N    1.7855671601   -3.7068595612   -2.5164711770
 C    1.4741985359   -2.2805746882   -2.4736029160
 H    1.0480588205    1.9180142427   -0.1322911784
 H   -0.4707224510    1.8658732642   -1.0446915579
 H   -0.5033355035    2.0028957808    0.7239853474
 H    0.4790200517   -0.3065599215    0.9311292359
 H   -1.0297658770   -0.3598184226    0.0258918324
 H    1.1157915507   -4.4453702040    0.1861768904
 H   -0.5962631473   -4.5022060624   -0.1846325324
 H    0.9365851843   -5.5486899610   -1.9782296313
 H   -0.1948908577   -4.3374516941   -2.5825532576
 H    2.6238896505   -3.8753781209   -1.9675704397
 H    0.8406610923   -2.0143940321   -3.3317840369
 H    2.3917623217   -1.6940974305   -2.5797842415