18

 C   -0.1720888714    1.4556908454   -0.0866289975
 N    0.1120067158    0.0326801573    0.0357115542
 C    1.4352115198   -0.5163206224   -0.1662460743
 C    2.5657095510    0.3295055941    0.3896819741
 C    3.2114799877   -0.3818740286    1.5416115313
 C    1.8811773037    0.3110079268    1.7827469027
 C    1.7302614117    1.3707562495    2.7231480042
 C    1.5898886368    2.2564045670    3.5266262019
 C    0.7599954746   -0.5431322060    1.1922172843
 H    0.6074029652    2.1134987240    0.3176351367
 H   -0.3148166691    1.6901277129   -1.1462277195
 H   -1.1074445925    1.6711782371    0.4384347003
 H    1.5555061250   -1.3286342608   -0.8751881648
 H    3.0272607794    1.1877830252   -0.0834340389
 H    3.2511126376   -1.4678962583    1.5567763015
 H    4.0727356089    0.1078577481    1.9858825525
 H    1.4640423813    3.0380945488    4.2338276908
 H    0.2755157444   -1.3673315701    1.7049384506