21

 C   -0.1596949122    1.2795039919    0.9018833222
 C   -0.1501845020   -0.1203793186    0.2761277094
 C    0.5243150185   -0.1851318907   -1.1038379051
 C    2.0146819070    0.2246257443   -1.0177242636
 O    2.7808649545   -0.1500514476   -2.1490587300
 C    0.4225135191   -1.5805109524   -1.7727013243
 O    1.3329604426   -2.5229966134   -1.1883057827
 C   -0.9423484989   -2.1047080349   -1.8150831148
 C   -2.0614484834   -2.5444503590   -1.8324123762
 H    0.8498795905    1.6457643134    1.1117095385
 H   -0.6441520027    2.0029752485    0.2366312475
 H   -0.7104355878    1.2780241779    1.8474809065
 H    0.3574612289   -0.8160210327    0.9601743846
 H   -1.1807097291   -0.4781296673    0.1816409049
 H    0.0047168883    0.5083033104   -1.7791429991
 H    2.0907410736    1.3131704256   -0.9435149867
 H    2.4470767773   -0.1960532258   -0.0981572423
 H    2.9325934258   -1.0989110822   -2.0682547842
 H    0.7835928645   -1.4665645094   -2.7993479257
 H    0.9746229071   -2.7960627260   -0.3369649518
 H   -3.0476677817   -2.9379216518   -1.8633445072