16

 C   -0.0924877958    1.6055266353    0.1112451811
 C    0.1639534420    0.1061698481   -0.0233267060
 C    1.1783109451   -0.3430462935   -1.0804845877
 O    1.6529962507   -1.6232669860   -0.6302504971
 C    1.7998524207   -1.5623922885    0.7694929870
 C    3.1516192704   -1.1362397787    1.1737727741
 N    4.2092108297   -0.7777360349    1.4707872595
 C    0.7404139250   -0.5184965273    1.2473264199
 O    0.4589623203   -0.2786544166    2.3847839689
 H    0.8453786965    2.1531316543    0.2467981771
 H   -0.5930934566    1.9991230480   -0.7775226420
 H   -0.7245716124    1.7999674026    0.9811834573
 H   -0.7834790941   -0.4206593834   -0.2065727070
 H    0.7540678536   -0.4941596173   -2.0738013561
 H    2.0124826574    0.3699042664   -1.1550665333
 H    1.5870559774   -2.5453921485    1.2007692244