21

 C    0.2360221573    1.5271697193    0.1799739259
 C   -0.0010912223    0.0201818928    0.0053787288
 C    0.4620222496   -0.7512054481    1.2496479522
 O   -1.3938833659   -0.2275166707   -0.2279458017
 C    0.7215067576   -0.4952459741   -1.2451363719
 C    0.4269576422   -1.9621246723   -1.6978700087
 C    0.2600675323   -1.4236245829   -3.1249946446
 O    0.2563512672   -1.9325780690   -4.2082380995
 C    0.2293658000    0.0294554767   -2.6329211768
 H    1.2991455803    1.7493227199    0.3178565449
 H   -0.1234380736    2.0779459674   -0.6932082999
 H   -0.2972147161    1.9009378845    1.0620407185
 H   -0.0691963092   -0.3978277058    2.1412852297
 H    0.2632390796   -1.8202215690    1.1369385577
 H    1.5335241484   -0.6135246151    1.4271942133
 H   -1.8849870916    0.0838384594    0.5389795243
 H    1.7955628739   -0.3312731521   -1.1228501623
 H    1.1927893897   -2.7268307127   -1.5493014522
 H   -0.5286482412   -2.3209607644   -1.3026903359
 H   -0.7987475057    0.4014594755   -2.5808751927
 H    0.8483604175    0.7448045705   -3.1792432092