21

 C    0.2750914254    1.4720158295   -0.1798305891
 O   -0.1418532680    0.1346662760   -0.4069582133
 C    0.7153050983   -0.5810545101   -1.2653878998
 C    1.9577754431   -1.2419669115   -0.5597330198
 O    1.8698971789   -1.1759672258    0.8432611313
 C    1.5474654548   -2.6111185427   -1.1874909197
 C    0.2139663172   -1.9820113703   -1.6156718496
 C   -1.1622610481   -2.4876664593   -1.2879611680
 C   -0.7163164832   -2.3709312355   -2.7253037075
 H    1.2527390016    1.5104483505    0.3172114529
 H    0.3322032043    2.0339694517   -1.1232470098
 H   -0.4739720320    1.9360707816    0.4660051470
 H    0.9816806952    0.0301568220   -2.1399938976
 H    2.9423330833   -0.8667357568   -0.8527731717
 H    0.9511112478   -0.9513924006    1.0458185762
 H    2.1856572459   -2.9127102833   -2.0242509970
 H    1.4927302832   -3.4291159419   -0.4648392564
 H   -1.2450403322   -3.4788614645   -0.8536209551
 H   -1.8791648156   -1.7651435416   -0.9148580209
 H   -1.1481112022   -1.5802083972   -3.3314059979
 H   -0.4978415178   -3.2831745201   -3.2715312542