15

 N    0.0397401455    1.0492758284   -0.8963728613
 C    0.0759002950    0.0356066214   -0.1479578021
 O    1.2406935188   -0.5606061034    0.2573255725
 C    1.1012888567   -1.5682718194    1.2768506549
 C    0.1199878972   -2.6137423788    0.8058961242
 C   -1.1762780803   -2.8252763786    1.5347385615
 N   -1.1198540801   -2.0183452628    0.3288098903
 C   -1.2126269333   -0.6210328780    0.3462364679
 O   -2.1955047503   -0.0089947331    0.6701863696
 H    0.9883409151    1.3499970768   -1.1343158819
 H    2.1034367338   -1.9683222561    1.4355820722
 H    0.7591690350   -1.1005105796    2.2092129277
 H    0.5153145569   -3.4146494889    0.1856952519
 H   -1.6908520607   -3.7758973314    1.4376166318
 H   -1.3329253192   -2.3055103764    2.4763578208