14

 C   -0.0523311471    1.5469919018   -0.0040369904
 C    1.4463019437    1.9002977925   -0.0327734276
 O    2.1661364914    1.4669752554    1.1185233113
 C    2.2837488751    0.6746834933   -0.0799748034
 C    1.3183449912   -0.4497155476   -0.0584070715
 N    1.3991698170   -1.7496696600   -0.0874065661
 O    0.0643184909   -2.1693278667   -0.0030713603
 C   -0.7504788459   -1.0897454774    0.0741197816
 C   -0.0137703810    0.0427644903    0.0340949727
 H   -0.5379612290    1.9982830725    0.8672243443
 H   -0.5543211115    1.9319288733   -0.8987963235
 H    1.7726351126    2.8461121680   -0.4572542226
 H    3.2704183107    0.6139455794   -0.5245846796
 H   -1.8032290480   -1.3159986047    0.1389482452