16

 N    0.1733168759    1.2238580134   -0.2433987497
 C   -0.0328263215    0.0249429949    0.3606402015
 O    0.6573959087   -0.3632929243    1.2884964138
 C   -1.2277016273   -0.7763216522   -0.1646139036
 C   -0.9764006559   -2.2521367105   -0.2389656508
 C   -1.4383534508   -3.2107032253   -1.1225205238
 C   -0.8960833858   -4.4226977182   -0.6462786596
 N   -0.1537386654   -4.2402508448    0.4429344064
 N   -0.2291152841   -2.9178494556    0.6755707549
 H    0.9346280928    1.7975964535    0.0821856777
 H   -0.3559422279    1.5269867159   -1.0410779545
 H   -2.0535814580   -0.5646436683    0.5303765070
 H   -1.5516583295   -0.4157933501   -1.1449529297
 H   -2.0745552985   -3.0524371493   -1.9787606787
 H   -1.0142834391   -5.4162660248   -1.0534284301
 H    0.3116018764   -2.4734944145    1.4032312492