17

 O   -0.0019764051    1.4058249021    0.0571446440
 C    1.2381957297    2.0501086355   -0.0305456942
 C    2.3394217951    1.6052419359   -0.9394472862
 C    2.4849373132    1.5369478923    0.6167645532
 C    2.5107204047   -0.0087414631    0.5362066316
 C    1.1745175459   -0.7837424276    0.6374546382
 C    0.0862374784    0.0100442101   -0.0123578745
 C    1.0290046405   -0.7154491040   -0.9187572530
 C    2.3671142301    0.0586554861   -0.9995917769
 H    1.0828926561    3.1216257532    0.0309994306
 H    2.8064647999    2.2742420680   -1.6527477232
 H    3.0813173758    2.1452483835    1.2866817478
 H    3.3842576696   -0.4981992465    0.9626568286
 H    0.9668083000   -1.5994535926    1.3200674761
 H   -0.9109954601   -0.4094581882    0.0624766046
 H    0.6919533549   -1.4704580037   -1.6193612259
 H    3.1426552514   -0.3848079110   -1.6211804609