21

 C   -0.0577303164    1.5553906721   -0.0463033438
 C    0.0437827192    0.0331197822    0.0010440232
 C    0.6606814880   -0.6172306128   -1.2390842634
 N    2.0619278478   -0.2267153574   -1.4907653962
 C    1.7663566433   -1.4959570991   -0.7874532701
 C    1.8367426569   -1.4175331536    0.7284166229
 C    2.0028736270   -2.7145057893    1.4820517598
 C    2.2241478593   -0.0979832795    1.2939853560
 N    0.7986731411   -0.4651894933    1.1824428726
 H    0.9153029706    2.0056470766   -0.2569693924
 H   -0.7523610057    1.8683518253   -0.8326557425
 H   -0.4259385066    1.9423094068    0.9079595563
 H   -0.9674280735   -0.3814786626    0.1088236308
 H    0.0229310550   -0.8653787131   -2.0833476272
 H    2.3012464443   -0.4250016490   -2.4594328092
 H    2.0011735053   -2.4369486547   -1.2739097775
 H    3.0006274629   -3.1383467938    1.3198864612
 H    1.8690398149   -2.5500349938    2.5538278018
 H    1.2642315539   -3.4584370755    1.1609853745
 H    2.5795689205   -0.0359356737    2.3202773852
 H    2.6451976324    0.6280091883    0.6083074580