13

 O   -0.1199393415    1.3367230977    0.0085364287
 N    0.0190699477   -0.0529022168    0.0040497840
 C   -1.1140427364   -0.6482888780    0.0113223937
 C   -1.2361424375   -2.1528086599    0.0085584954
 C   -2.7570061817   -2.3839675389    0.0196527734
 O   -3.3160132843   -3.4545065970    0.0212468604
 C   -3.3957903792   -1.0429704733    0.0278904441
 C   -2.4611970648   -0.0737329613    0.0231128988
 H    0.7958573074    1.6353339038    0.0022113868
 H   -0.7879144352   -2.6131247203   -0.8769716788
 H   -0.7744492334   -2.6174286568    0.8848785772
 H   -4.4704020836   -0.9133081938    0.0364701885
 H   -2.6337489775    0.9934498149    0.0270858179