14

 C    0.1029382872    1.4760984563   -0.0086723596
 N   -0.1666367679    0.0513068896   -0.1475725859
 C    0.5111444317   -0.6876404532   -1.0755632923
 C    0.6808430792   -2.0500330619   -1.1862469386
 O    1.3858109659   -2.2668790692   -2.3282926403
 N    1.6431747847   -1.0276201705   -2.8938399879
 N    1.1348307954   -0.1229701806   -2.1611784501
 C    0.2768828839   -3.1142796778   -0.3766026254
 C   -0.0870333204   -4.0024038670    0.3532026667
 H    1.1189664358    1.6912041941    0.3507966659
 H   -0.0254097179    1.9663948768   -0.9753792586
 H   -0.6185782718    1.8980299788    0.6937585000
 H   -0.3607466771   -0.4444847596    0.7091444218
 H   -0.4075299187   -4.7935712359    0.9852941942