18

 C   -0.4294593994    1.7657486214   -0.6053526725
 O   -0.9273423388    0.4976658664   -0.9882129103
 C   -1.1539312143   -0.3803048291    0.0774904232
 C   -1.3396840722   -1.8175913385   -0.2841889585
 C   -0.1006042838   -1.3786624787    0.4732349614
 C    1.0165701803    1.7559647900   -0.1698775010
 C    1.5511888280    2.8073465026    0.7046190869
 O    1.2850227225    1.5003212748    1.2111942763
 H   -0.5324710057    2.3997626729   -1.4936717624
 H   -1.0388555544    2.2013199957    0.2021991291
 H   -1.7764165344    0.0413009331    0.8671227296
 H   -2.1026375445   -2.3887859399    0.2325329771
 H   -1.2146368298   -2.0690198189   -1.3314022860
 H    0.8313146881   -1.3563745656   -0.0792320897
 H   -0.0003461703   -1.6365915152    1.5214655181
 H    1.7006955540    1.2581493305   -0.8584881101
 H    2.6022708117    3.0833172207    0.6359852267
 H    0.8896600230    3.5931901477    1.0685719321