14

 N    0.1239313446    1.2623541648    0.3495061065
 C    0.0064634298   -0.0757293760    0.0586732520
 C   -1.1915100486   -0.7396718954    0.1235156547
 C   -1.4169731642   -2.0855266821   -0.3299559644
 N   -0.5760193684   -3.0595222037   -0.4277234130
 C    0.7104804232   -2.8703667957    0.0825835401
 O    1.1732156771   -3.5195567323    0.9827813552
 N    1.4912028754   -1.9262231931   -0.6194286730
 C    1.1936274000   -0.6871607213   -0.5566914600
 H    1.0419992087    1.6156638921    0.5677236867
 H   -0.6218568008    1.6965362636    0.8700161529
 H   -2.0737049989   -0.1709275962    0.4087983515
 H   -2.4437644017   -2.3112539680   -0.6282612697
 H    1.8697818738    0.0175340232   -1.0500649194