14

 O   -0.9287554344    1.5624510077    0.1742166665
 C    0.0993612266    1.0779481508   -0.2218570685
 C    1.4031626201    1.8778288690   -0.3395880448
 O    2.4107967756    1.3205369504   -0.6946923662
 C    1.3077011824    3.3390427398    0.0606337882
 C    1.3172195317    3.5267776916    1.6192772723
 N    2.5620078370    4.2573563457    1.8838729818
 C    3.0929511180    4.4743636666    0.7568489542
 O    2.4800577868    4.0419621440   -0.3758598295
 H    0.2043969181    0.0175053979   -0.5308371637
 H    0.4256155933    3.7894481145   -0.4000738171
 H    0.4520794194    4.0994301020    1.9638046201
 H    1.3168512349    2.5753029057    2.1604180876
 H    4.0246151205    5.0000674441    0.5846938390