15

 C   -0.6019122000    1.5788913764   -0.3122234828
 C    0.0039599682    0.2100077010   -0.0876413580
 C    0.9635591279   -0.3819921135   -1.2049848969
 C    2.0004796627   -0.4224609357   -0.1008002501
 N    3.1287823211   -0.8485348633    0.3450992579
 O    3.0447313702   -0.4682897574    1.7375940957
 C    1.8150228598    0.0999296362    2.0532998253
 O    1.4706299596    0.4308301219    3.1490658191
 N    1.1996255874    0.1791694110    0.8118844274
 H    0.1577254322    2.2957865368   -0.6367299364
 H   -1.3792335035    1.5196728707   -1.0805404816
 H   -1.0593467643    1.9524963917    0.6081890098
 H   -0.7466727400   -0.5143094809    0.2393931261
 H    0.6764094287   -1.3514829863   -1.6127660851
 H    1.1822039700    0.3138297815   -2.0169298603