20

 C   -0.0568974351    1.5436743124    0.0156239931
 C    0.0909668263    0.0456168004   -0.0293087041
 N   -0.7873868378   -0.8187165291    0.8165377060
 C    0.6788027444   -0.7898194641    1.0542983469
 C    1.4322146470   -1.9636474946    0.4262402585
 C    0.9707373053   -3.3326381528    0.9579916078
 O    1.6374899884   -4.4194753124    0.3297948236
 C    1.1739181143   -1.7542474371   -1.0561338733
 C    0.4589910988   -0.6553661809   -1.3026450081
 H    0.8282524436    2.0394127724   -0.3971925886
 H   -0.9247384300    1.8729042251   -0.5677688640
 H   -0.1910451940    1.8964222711    1.0435620981
 H   -1.2286478163   -0.2321429915    1.5246864195
 H    1.0406266807   -0.3492790195    1.9779530465
 H    2.5078120055   -1.8786464385    0.6353847052
 H    1.2144827003   -3.4079824386    2.0234057314
 H   -0.1187501016   -3.4071661165    0.8572625409
 H    1.2430269375   -4.5406334921   -0.5387275353
 H    1.5310855963   -2.4487142302   -1.8090007633
 H    0.1519907964   -0.3004040238   -2.2801256107