16

 N    0.0481034166    1.4046480617    0.0692472143
 C   -0.0130482195    0.0225956121    0.0115185101
 N    1.1707866718   -0.6499447010   -0.0689543883
 H    1.9668011162   -0.2411803070    0.3965948519
 H    1.0428686758   -1.6655278432    0.0148591314
 C   -1.1892547370   -0.6802265859    0.0429334005
 C   -1.2846453717   -2.1352523520   -0.0073332365
 O   -0.3323146108   -2.9339794044   -0.0472835268
 C   -2.7221718373   -2.4029262949   -0.0342941792
 C   -3.3719010308   -1.2122881090    0.0216951051
 N   -2.4976268539   -0.1348441033   -0.0081883207
 H    0.8658137370    1.7950456648   -0.3804838475
 H   -0.7944521847    1.8650831267   -0.2460333516
 H   -3.1702554019   -3.3823255996   -0.0970067241
 H   -4.4351115900   -1.0190872197    0.0691863517
 H   -2.7306694798    0.6589425148    0.5736314495