15

 O    0.0091779985    0.0481719743    0.5768603222
 C   -0.0127332145    1.1286555135    0.0720863284
 O   -1.1930231171    1.7475006651   -0.1938211728
 C   -1.1948533538    3.0375097227   -0.8750941992
 C   -0.0560793088    3.8722219487   -0.2868421508
 C    1.0896343803    3.0696222852   -0.9055220888
 O    1.1421997475    1.7803259665   -0.2249251699
 C    0.5985354227    2.8441266058   -2.3253622274
 C   -0.7355937322    2.8253715808   -2.3075923440
 H   -2.2050295934    3.4207256154   -0.7404136813
 H   -0.0755266590    4.8952034024   -0.6673052515
 H   -0.0416330836    3.8791488517    0.8050609499
 H    2.0918702264    3.4811259289   -0.7976453294
 H    1.2503677827    2.6286407288   -3.1618139946
 H   -1.4031549559    2.5913384600   -3.1264706508