17

 N    0.6130847688    1.2297056735    0.6988404149
 C    0.3447139099    0.0453062722    0.3533618747
 O    1.2334949179   -0.9606347682    0.1720399538
 C    0.5343651287   -2.2051428303   -0.0774501883
 C   -0.8970729869   -1.9710043934    0.4152035404
 C   -1.0612770339   -0.4720806179    0.1185897354
 N   -2.0074140434    0.2659560599    0.9192869310
 C   -3.3449923159    0.0826475021    0.7820642787
 O   -3.8523601261   -0.7883945583    0.1043412992
 H    1.6156774133    1.3662248108    0.8294846519
 H    0.5741426129   -2.4154999745   -1.1524473047
 H    1.0688121376   -2.9934682301    0.4554798556
 H   -1.6411173303   -2.5860331334   -0.0891155742
 H   -0.9694465623   -2.1414992518    1.4937103886
 H   -1.3034849373   -0.3536433473   -0.9483095566
 H   -1.6435789901    1.1016850103    1.3587151337
 H   -3.9309493827    0.8107014965    1.3758749559