14

 O    0.0768153785    0.0530831433    0.0022822713
 C   -0.0292582060    1.2362620880    0.0103608896
 C   -1.3053786531    2.1141888866    0.0330277639
 C   -0.7277485029    3.4941951085    0.0325633445
 C    0.6220781856    3.3397751203    0.0128121145
 N    1.2586057686    4.5330143050    0.0103121654
 C    0.2661961768    5.5131321810    0.0290862313
 C   -0.9678398337    4.8995575721    0.0435555453
 O    1.1120181267    2.0645834507   -0.0010479285
 H   -1.9147728603    1.8519272888   -0.8395826210
 H   -1.8901681743    1.8422055141    0.9193879838
 H    2.2507920596    4.6901410687   -0.0026228622
 H    0.5358395759    6.5557213546    0.0306728793
 H   -1.9170491914    5.4121115985    0.0597144828