19

 C   -0.0851004396    1.6641950250    0.0837382778
 C    0.0123236773    0.1475164715    0.0178765366
 O   -1.3380199163   -0.3553976122   -0.1239889804
 C   -1.8855808048   -0.3459816036   -1.3506049936
 O   -3.0124983838   -0.6876139152   -1.5593750028
 C    1.1287234155   -0.5934248490   -0.7956130714
 C    2.1149656535   -0.1857954724    0.3381657300
 C    0.8234552272   -0.6619618475    1.0688153542
 C    0.8158678386   -1.8575987363    0.0672929693
 H    0.8690334336    2.1469531698    0.2949364891
 H   -0.4619896061    2.0660324993   -0.8627877717
 H   -0.7951896153    1.9460334500    0.8667271743
 H   -1.1871907034   -0.0033780864   -2.1374256511
 H    1.3117268532   -0.5465048103   -1.8699826469
 H    2.9800148270   -0.8411428202    0.4544046714
 H    2.4083206460    0.8599690215    0.4222354155
 H    0.6383185164   -0.6912900586    2.1428577205
 H   -0.1325485369   -2.3646421884   -0.0958904274
 H    1.6402450179   -2.5654898672    0.1733806365