17

 N   -0.1632569980    1.3423801919   -0.6516882106
 C   -0.0032243716    0.1704787036    0.2008571042
 C   -1.3349419558   -0.5529364572    0.2951527954
 O   -1.7273893342   -1.3149598032   -0.8583568190
 C   -1.4938761855   -2.0251541693    0.3660011047
 C   -0.3672273558   -3.0320805146    0.3704338380
 O   -0.7918130284   -4.2527678588   -0.2071511095
 C   -2.4108602858    0.2447851055    0.8713753204
 N   -3.2572972119    0.8513877656    1.3716065699
 H    0.6702158560    1.9187185394   -0.6257195360
 H   -0.3030480345    1.0549706927   -1.6151667618
 H    0.7605562652   -0.5445369224   -0.1354741813
 H    0.2792800936    0.5060134915    1.2051207160
 H   -2.4077594898   -2.3924237469    0.8342183633
 H    0.5172502616   -2.6290164078   -0.1387636487
 H   -0.0895887709   -3.2632922957    1.4043716785
 H   -1.0208331142   -4.0758067644   -1.1263843835