14

 N   -0.1888065646    1.4043771053    0.1542965066
 C    0.0859228618   -0.0117519008   -0.0642897943
 C    0.8367548861   -0.5515732743    1.1961642852
 O    0.1412922148   -0.1527305598    2.3519544677
 C    0.9379569535   -2.0102645713    1.1423337024
 C    1.0070155041   -3.2045149903    1.0501622872
 C    2.2085347748    0.0421023735    1.1951943549
 N    3.2405255205    0.5613481038    1.1675340211
 H    0.6046465942    1.9800046103   -0.1076745355
 H   -0.9903663383    1.7130263227   -0.3811947755
 H   -0.8613781953   -0.5538669520   -0.1132369551
 H    0.6679286563   -0.2436599658   -0.9647809420
 H   -0.2003527241    0.7310035774    2.1188313918
 H    1.0757573163   -4.2631223488    0.9886618757