21

 C    0.9705926651   -0.0136519125   -1.1821601793
 C   -0.0414498571   -0.1386419042   -0.0378156440
 C    0.5666801322   -0.6615242708    1.2459772668
 C   -0.2527145864   -1.3933497416    2.2647941419
 C    0.7927349342   -2.1308367959    1.4512499638
 O    1.6404357887    0.1351437514    1.7525521760
 C    1.3207862470    1.3121501903    2.3469866937
 C    2.5740603840    2.0080667834    2.8240909002
 O    0.1989842333    1.7301468719    2.4693265811
 H    1.4156164832   -0.9837861893   -1.4271173625
 H    0.4901388244    0.3754510727   -2.0846794159
 H    1.7852570796    0.6660551204   -0.9158824770
 H   -0.5119607091    0.8284772264    0.1648187645
 H   -0.8466452033   -0.8239830936   -0.3268582081
 H   -0.0344778412   -1.2063978791    3.3093301476
 H   -1.3021269892   -1.5585588885    2.0474981103
 H    0.4668925542   -2.8087852762    0.6699295225
 H    1.7049630593   -2.4241792356    1.9576200911
 H    3.1229302070    1.3631136441    3.5160351065
 H    3.2355712262    2.2102948284    1.9768138956
 H    2.3051305182    2.9418047585    3.3163437954