13

 O   -0.0813667094    1.3551136053    0.0105916250
 C    0.0152623654    0.0052721229    0.0027406786
 C    1.2094129081   -0.6646666289   -0.0075124111
 C    1.2753923449   -2.1056037256   -0.0157655459
 O    2.2769831463   -2.8027801737   -0.0248488711
 N   -0.0021365849   -2.7176983450   -0.0118485499
 C   -1.1858542882   -2.0529572520   -0.0016698676
 C   -1.2279963754   -0.6960332762    0.0058480021
 H    0.8044884898    1.7359996298    0.0077490067
 H    2.1579579166   -0.1388967751   -0.0098812487
 H    0.0236480346   -3.7272956219   -0.0173881157
 H   -2.0791949003   -2.6658201389    0.0000328091
 H   -2.1620946874   -0.1538260405    0.0139765785