19

 C    0.0757712526    1.5283035027    0.1142613213
 C    0.0023725148    0.0142813290   -0.0940038698
 O    0.8334681892   -0.6838860731    0.8274769038
 C   -1.4196961738   -0.4966941647   -0.0451222669
 C   -2.0992811348   -0.9760941650    1.1857646593
 C   -1.8769967077   -1.9797092255    0.0536007579
 C   -2.8600718102   -1.7168320374   -1.0415957832
 O   -3.5367616877   -2.4193230919   -1.7378710657
 C   -2.4859470984   -0.2091527830   -1.1197988596
 H    1.1140014743    1.8667546481    0.0577320541
 H   -0.5054891134    2.0613821593   -0.6441039327
 H   -0.3295907664    1.8030146718    1.0960760046
 H    0.4155756748   -0.2262173356   -1.0825499833
 H    0.7325666433   -0.2672439058    1.6898706798
 H   -1.4624262965   -1.1745284349    2.0415916020
 H   -3.1031221101   -0.6453073745    1.4379818677
 H   -1.2995049886   -2.8802564340    0.2190316727
 H   -3.2547425008    0.5303179674   -0.8774468322
 H   -2.0720324704    0.0134356072   -2.1089624796