20

 C    0.6035122285    1.4667340783   -0.0953037397
 C    0.0679708481    0.0315708451    0.0117293104
 C    0.3578904924   -0.8654971846   -1.2118508710
 C    1.4378938091   -1.8534668076   -0.7302770541
 C    2.8519334254   -1.5358288960   -1.2089128303
 O    3.8048750009   -2.4044062789   -0.6383455118
 O    1.4317321118   -1.7821566072    0.7152066846
 C    0.7122325634   -0.7122840776    1.1689328483
 N    0.6028077104   -0.3893080470    2.3841760561
 H    1.6786425090    1.4784093447   -0.3034780967
 H    0.0971339669    2.0067310575   -0.9012092810
 H    0.4358143893    1.9975410739    0.8446581125
 H   -1.0062873903    0.0837721241    0.2075724718
 H   -0.5382626659   -1.4066804920   -1.5231223501
 H    0.7052822223   -0.2877749533   -2.0733454512
 H    1.2065510362   -2.8921752307   -0.9842638701
 H    2.9052798502   -1.6687670837   -2.2951873302
 H    3.0808427892   -0.4784433582   -0.9916846131
 H    3.6624495156   -2.3759447030    0.3151125599
 H    1.1337900176   -1.0256221439    2.9806467755