20

 C   -1.3109708746    1.0434333638    1.3283407127
 C   -0.8297769899   -0.3852681009    1.2159493986
 C    0.2943563539   -0.7494357757    0.3136852190
 N    0.4625813128   -0.8175019448    1.7663515010
 C    1.3335177251    0.1380958958    2.4919186217
 C    2.2779287789   -0.7273044846    3.3614262465
 O    2.9589869641   -1.6878076290    2.5928606133
 C    2.0810921989    1.0769422968    1.6554775616
 C    2.7005866235    1.8534775086    0.9769757754
 H   -0.5188277803    1.7608083171    1.1006410984
 H   -2.1348875198    1.2137623236    0.6274875242
 H   -1.6896592503    1.2557945721    2.3349445155
 H   -1.6119907412   -1.1272583264    1.3742527893
 H    0.3107044311   -1.7068501913   -0.2010576170
 H    0.7912665641    0.0609155736   -0.2136190108
 H    0.7013487025    0.7174024648    3.1783944477
 H    3.0318124814   -0.0957462678    3.8402042007
 H    1.6635155940   -1.1953406020    4.1461859336
 H    2.2655563351   -2.1855688515    2.1405848637
 H    3.2582187407    2.5359334576    0.3841273049