19

 C    0.0635020890    1.4711539239    0.0405925080
 C    0.0228293055    0.0159626034    0.0164484332
 C   -0.0271780234   -1.1874434244   -0.0118769279
 C   -0.0392023805   -2.6579179298   -0.0501776223
 C   -1.4728683207   -3.1993748017   -0.0229237985
 O    0.5275044252   -3.1324835363   -1.2709473119
 C    0.7882458144   -3.1822194029    1.1688304299
 C    0.8811223490   -4.6336438814    1.2372619479
 C    0.9583814006   -5.8310131225    1.3062562684
 H    0.9318015544    1.8385612123    0.5983110426
 H    0.1208163722    1.8816661043   -0.9734399926
 H   -0.8343816428    1.8832185923    0.5139757611
 H   -2.0218681170   -2.8233133879   -0.8883402546
 H   -1.4475280807   -4.2906823843   -0.0614425510
 H   -1.9870378652   -2.8836129060    0.8881723824
 H    1.3641984264   -2.6740398908   -1.4049482985
 H    1.7933104758   -2.7469197362    1.1066956936
 H    0.3407966808   -2.7874307259    2.0886955436
 H    1.0293194370   -6.8888235563    1.3628103966