19

 O    0.2758680970    1.2961970474    0.3577989737
 C    0.0359522969   -0.0464393866   -0.0492585362
 C   -1.4153737717   -0.4150776917   -0.0155249963
 N   -1.9185736809   -1.6430841431   -0.6896068358
 C   -2.4981001539   -0.3251437059   -1.0464763025
 C   -3.5610514825   -0.0252066011    0.0225463208
 C   -2.4314185992   -0.1041553977    1.0769259417
 C   -2.4072783755   -0.5014048918    2.4962099596
 N   -2.2637685038    0.9189031852    2.1026978356
 H   -0.2660045148    1.8689633653   -0.1962849853
 H    0.4402982096   -0.2440659481   -1.0561898926
 H    0.6070050199   -0.6663681306    0.6520886239
 H   -1.2418435908   -1.8800391134   -1.4181612438
 H   -2.4577719188    0.0369041103   -2.0670934380
 H   -3.9734302670    0.9844923237   -0.0368375201
 H   -4.3642477292   -0.7619755076    0.0939017259
 H   -3.3339219458   -0.7379830618    3.0122025458
 H   -1.5358907483   -1.0378598650    2.8647916762
 H   -1.2868733510    1.2027665625    2.1379965274