18

 O    0.0248784244    1.4395972834   -0.0389388866
 C    0.0341158170    0.0362086167   -0.0173511327
 C    0.0151809609   -0.7077895785    1.3663859558
 C   -1.4277732896   -0.1501052597    1.5491954162
 C   -1.3686872560   -0.6246238215    0.0620234340
 C   -0.6615258899   -1.8822565551    0.6090925317
 O    0.1013572731   -2.6236176157   -0.3286358333
 C    0.5227574140   -3.8447540745    0.0499781576
 N    1.2989882603   -4.5058604327   -0.6938595610
 H    0.9360671357    1.7444018035   -0.0758337723
 H    0.7126175854   -0.3767963394   -0.7671666609
 H    0.8083357468   -0.7711738701    2.1124428581
 H   -2.0914353035   -0.7062437928    2.2168735004
 H   -1.5030693952    0.9240200482    1.6956458008
 H   -2.1608016351   -0.5892890989   -0.6853254460
 H   -1.2795603474   -2.5516475532    1.2162268138
 H    0.1153466220   -4.1666767039    1.0189107792
 H    1.4957493271   -5.4102867257   -0.2702962948