19

 C   -0.0640626481    1.4949549780   -0.0396896696
 C   -0.1215503507    0.0001206756    0.2257944108
 O   -1.3358594574   -0.5015119288   -0.2996646513
 C   -1.4870727743   -1.8798065577   -0.1453250237
 C   -1.8458244576   -2.4885617397    1.2707930238
 C   -3.0783642278   -3.1142978966    0.6116946766
 N   -3.8969748622   -1.9715184440    0.1496806951
 C   -2.7817830334   -2.4625237512   -0.6974833986
 H    0.8640509311    1.9185450111    0.3559002197
 H   -0.1086767358    1.6947467511   -1.1140518614
 H   -0.9089908222    1.9996575812    0.4369558219
 H    0.7355091643   -0.5111075863   -0.2462749613
 H   -0.0597222055   -0.2015156916    1.3075139233
 H   -0.6202428206   -2.4159762833   -0.5637819039
 H   -1.1024968993   -3.2030829807    1.6294370515
 H   -2.0799223469   -1.7582642269    2.0484553482
 H   -3.5222683530   -4.0813827863    0.8103779653
 H   -4.7505083680   -2.3555863094   -0.2561806088
 H   -2.9653431325   -2.7989878445   -1.7105324077