14

 N   -0.1174339469    1.2881804596    0.0222291088
 C   -0.0764465764    0.0343416650    0.0497952911
 C   -1.1117200740   -1.0603464953    0.0229911204
 C   -0.7821820276   -2.0465914169   -1.0933038535
 C    0.0360642644   -2.0576699675    0.1589506651
 N    0.9774854504   -0.9337603230    0.1513631080
 C    2.3134556617   -0.8467468819   -0.1234510365
 O    2.9063777422    0.1986351766   -0.2732830090
 H    0.8263005730    1.6776455624    0.0541152346
 H   -2.0682702920   -1.0429239859    0.5230588622
 H   -1.4990278653   -2.8552591864   -1.1990023377
 H   -0.3447712617   -1.6961415292   -2.0229085310
 H    0.1518580157   -2.8829601568    0.8478054987
 H    2.7998394766   -1.8416205907   -0.1611339312