21

 C    0.1442291504    1.5325138177    0.0239604769
 O    1.1161911280    0.5266869795   -0.2588253489
 C   -0.2309338954    0.1115352107    0.0019944854
 C   -0.4668526084   -0.6695604105    1.2613805826
 C   -1.9381670417   -0.9209606234    1.7207326071
 C   -1.5951657936   -2.4114732344    2.0165719789
 C   -2.0265170861   -3.4048892836    0.9146087539
 C   -0.7436746778   -3.0482303288    0.1030387709
 C   -0.2113277405   -2.2025507812    1.3012655225
 H    0.2617354895    2.0401515965    0.9811151936
 H   -0.1208169669    2.1784343953   -0.8123431914
 H   -0.7547334668   -0.2452440505   -0.8866784561
 H    0.1046827033   -0.1955095063    2.0660389348
 H   -2.2635153486   -0.3231149905    2.5748908522
 H   -2.6800265816   -0.7999203893    0.9237714074
 H   -1.6898144368   -2.7227223407    3.0577827127
 H   -2.0226522326   -4.4428301965    1.2588301547
 H   -2.9909797237   -3.2089146838    0.4352944162
 H   -0.1152692602   -3.9044054697   -0.1510208308
 H   -0.9197472849   -2.4868836907   -0.8180555652
 H    0.7409535146   -2.5292438899    1.7204100728