15

 O    0.0777448488    1.3189238810   -0.0485751974
 C    0.0650691291   -0.0321988774   -0.0643840559
 C    0.0161253239   -0.8329066677   -1.1890983581
 N    0.0235424134   -2.1145051948   -0.6725833833
 C   -0.0049039643   -3.4967950782   -1.1089521362
 C    0.0379998314   -4.2327146650    0.2192486894
 C    0.0838662218   -3.3547725589    1.2375828922
 C    0.0750845715   -2.0128816839    0.6840442736
 N    0.1017506859   -0.7548556458    1.0951926171
 H    0.1147668827    1.5726795594    0.8816834524
 H   -0.0209090912   -0.6053822633   -2.2389944189
 H   -0.9146052879   -3.7228308825   -1.6787520258
 H    0.8558436332   -3.7384320907   -1.7445962123
 H    0.0306528472   -5.3109951941    0.2822207616
 H    0.1212459146   -3.5780235182    2.2936176016