16

 C   -0.0124058993    1.4130082697    0.0493446248
 O   -0.0221690087   -0.0124256046    0.0159412013
 C   -1.2249209330   -0.6194104159    0.0021078185
 N   -2.3274746024    0.1225678561    0.0198577022
 C   -3.4946846785   -0.5334577569    0.0048634567
 C   -3.6159668774   -1.9109623239   -0.0273806379
 C   -2.4355606551   -2.6704620974   -0.0455646985
 O   -2.4370545901   -4.0252808454   -0.0773169257
 C   -1.2133839760   -2.0184937141   -0.0306835495
 H    1.0415734725    1.6954613953    0.0556221840
 H   -0.5125639622    1.8333213512   -0.8278211600
 H   -0.5119881737    1.7917608468    0.9455616140
 H   -4.3875871773    0.0871485911    0.0197010061
 H   -4.5923234108   -2.3844355680   -0.0381634141
 H   -3.3472223039   -4.3406640381   -0.0843905218
 H   -0.2818499543   -2.5684073958   -0.0438714802