19

 C   -0.1134242607    0.7094522901   -2.1175147903
 C    0.0712398174   -0.4144571851   -1.1208559820
 C    1.3506730790   -0.6206489592   -0.3357803295
 C    2.5597697870    0.2786137793   -0.4772513829
 C    0.1141493593   -0.0957235992    0.3551183362
 O    0.0149345613    1.2410653893    0.8678667944
 C   -0.7585485304    0.8091926549    2.0148283910
 C   -0.6759057738   -0.6402934644    1.4994679560
 O   -1.0654613187   -1.7141287330    1.8523251652
 H    0.3024704248    1.6498322274   -1.7509648057
 H    0.3660963896    0.4681747939   -3.0719781031
 H   -1.1779230048    0.8763153960   -2.3096641094
 H   -0.4708333863   -1.3274176491   -1.3567312728
 H    1.5781953249   -1.6576399622   -0.0994278371
 H    2.2779752584    1.3314128204   -0.5392660587
 H    3.2195814680    0.1678657141    0.3889512725
 H    3.1354023990    0.0215611422   -1.3726425227
 H   -0.2470439057    1.0017762990    2.9645602051
 H   -1.7632533985    1.2461304056    2.0340796438