19

 C   -0.0173825910    1.5396839422    0.0647928013
 C   -0.0614075432    0.0333463794   -0.0090833766
 C    0.8801510381   -0.5672343066   -1.0722801698
 C    0.8829039476   -2.0759240210   -0.9678086681
 C    0.1422048282   -2.6533524085   -0.0227589584
 C   -0.6339452099   -1.7164527946    0.8693027739
 O    0.2372119618   -0.6103263810    1.2808315716
 C   -1.4378554985   -0.7072962798    0.0109740200
 O   -2.4514946784   -0.0270484066    0.7036324320
 H    0.9644546578    1.8667287141    0.4225958715
 H   -0.1839387358    1.9763118689   -0.9253941384
 H   -0.7826840123    1.9278481971    0.7402984547
 H    0.5589828285   -0.2481499422   -2.0734461346
 H    1.8951352050   -0.1685683772   -0.9353912809
 H    1.4995674010   -2.6464930559   -1.6559413019
 H    0.0761801899   -3.7273126319    0.1118733410
 H   -1.1340740964   -2.1873573048    1.7185617470
 H   -1.8636954372   -1.0535074255   -0.9324752609
 H   -2.0866718552    0.2216960839    1.5622288367