21

 C    0.0366181939    1.4614786325   -0.0201748209
 C    0.0384403825   -0.0413766529   -0.0586690153
 C    0.5295271494   -0.9753742438   -1.1820960073
 O    1.8845087937   -0.9607729817   -1.5695282690
 C    0.0467460366   -1.9633079425   -0.1020433224
 C    0.0579006339   -3.4663301003   -0.1313778279
 C    0.5549604827   -1.0259852008    1.0653702262
 C   -0.8145104026   -1.0478196123    1.7693161321
 C   -1.1542348061   -1.0153496616    0.2668621164
 H    1.0495496019    1.8541309887   -0.1625939913
 H   -0.5918592599    1.8739253250   -0.8174169990
 H   -0.3402741540    1.8422216849    0.9354221517
 H   -0.0476511171   -0.9568396360   -2.1139520485
 H    2.4256562821   -0.9764670458   -0.7723163082
 H    1.0741643147   -3.8434119684   -0.2910864099
 H   -0.3155813288   -3.8930226454    0.8059713079
 H   -0.5670890176   -3.8478009115   -0.9465828889
 H    1.5478834160   -1.0320163865    1.5228352557
 H   -1.0756371070   -1.9587767725    2.3171534094
 H   -1.0834049725   -0.1648211213    2.3576715993
 H   -2.1309122518   -1.0085451681   -0.2216077401