15

 O    0.0676636053    0.0280511720    0.2037389127
 C   -0.0386799509    1.2055728542   -0.0074667220
 C   -1.3119901984    1.9729724394   -0.3823611102
 C   -0.8101691517    3.3237205580   -0.9276765497
 N    0.6473202678    3.4628490085   -0.6159067896
 C    0.9718855562    3.4294377576    0.8152061655
 C   -0.0376414372    3.5621273302    1.8363046843
 N   -0.8446992625    3.7164175991    2.6505868967
 C    1.1026179719    2.1940938434   -0.0369484636
 H   -1.8751048123    1.3959173145   -1.1188124054
 H   -1.9406284421    2.0696389015    0.5075957873
 H   -0.8865971318    3.3638950415   -2.0164859007
 H   -1.3463809161    4.1833922852   -0.5203410338
 H    1.8947811812    3.9475354654    1.0625075202
 H    2.0960952106    1.8288761397   -0.2746992017