13

 O   -0.0118499062    0.0298707894    0.1122017269
 C    0.0041863889    1.2203051055    0.0129064069
 N   -1.0022696029    2.1811179025   -0.0334121668
 C   -0.1217511844    3.3334362133   -0.0610246872
 C    0.4325111444    3.7670857083    1.3351306184
 O    1.4799080451    2.7760344472    1.2658784494
 C    1.0774310579    2.3503991281   -0.0591232969
 C    0.9682469787    5.1274042210    1.3824615985
 N    1.3638575404    6.2129410890    1.3915806199
 H   -1.9828504998    2.1107013482    0.2026327694
 H   -0.3265180171    4.1011915645   -0.8035668275
 H   -0.2446363383    3.6020724390    2.1799184228
 H    1.8969299433    2.3032523240   -0.7741791136