20

 C   -0.9149919640    1.1665642653    0.1837215511
 C   -0.0121620930   -0.0562105175    0.0706811220
 C    0.7722393873   -0.2467927423   -1.2624791547
 C    0.8881974564    0.9318969447   -2.2423677086
 C    2.1585781316   -0.7495688490   -0.8082056683
 O    2.9924597218   -1.2485136033   -1.5214540783
 C    2.2597875042   -0.5521025280    0.6724770892
 C    2.0395100996    0.8633391104    1.1113106144
 N    0.9611125561   -0.1068792764    1.2066349259
 H   -0.3621554721    2.1014102554    0.0531583761
 H   -1.7055216077    1.1361983180   -0.5720218635
 H   -1.3859208772    1.1877539809    1.1705401718
 H   -0.6339400161   -0.9465331729    0.2153207507
 H    0.3263067876   -1.0798635820   -1.8162274536
 H    1.3219348977    1.8252840205   -1.7839551414
 H    1.5314621285    0.6416291550   -3.0779049036
 H   -0.0909911763    1.2066377796   -2.6447315274
 H    2.8723606498   -1.2298160134    1.2568656185
 H    2.4645742286    1.1783897924    2.0596867971
 H    2.0042811973    1.6401537624    0.3527755926