19

 O    0.0235520338    1.3557580840   -0.1365903515
 C   -0.0166602527   -0.0324699154    0.0187341450
 C   -0.4733482976   -0.8873984031   -1.1404811569
 C   -1.3587720171   -0.7230255417    0.0789556274
 C   -1.3133025607   -1.8190288585    1.1355116642
 C    0.1481305968   -1.8888195415    1.6018141800
 O    1.0009324513   -2.7800486384    0.8328585216
 C    1.9315965547   -1.7060497895    0.5642664820
 C    0.9148430391   -0.6579764460    1.0569695527
 H    0.7447753314    1.5697891644   -0.7381701332
 H   -0.7778459835   -0.3461029717   -2.0301469679
 H   -0.0087591781   -1.8509931697   -1.3178611693
 H   -2.2631437748   -0.1364975098   -0.0359790071
 H   -1.9557842340   -1.5527696458    1.9825162928
 H   -1.6425655491   -2.7967954815    0.7674265223
 H    0.2443688780   -2.1009877252    2.6734389726
 H    2.8303111119   -1.7890467360    1.1895847005
 H    2.2265042614   -1.6678832921   -0.4905795867
 H    1.2651424791    0.1014081273    1.7570739215