16

 C    0.0047065562    1.5532693590    0.0113849265
 C    0.0061159657    0.0179468164    0.0551560475
 O    0.7162715590   -0.4753767940    1.1878529128
 C   -1.3578828133   -0.5187996019   -0.0077487424
 C   -2.4845183153   -0.9477302508   -0.0197838074
 C   -3.8344333852   -1.4416128746   -0.0228141144
 C   -4.3864476255   -2.1847275315   -1.1742060031
 O   -4.0244571309   -2.8662827713    0.0178988154
 H    1.0340653479    1.9164345492    0.0670197729
 H   -0.4552170320    1.9179812011   -0.9116935988
 H   -0.5588867161    1.9599575560    0.8572270585
 H    0.5728470730   -0.3572836620   -0.8055914410
 H    0.1683167981   -0.3171364952    1.9647195442
 H   -4.5370895621   -0.8910779911    0.6019465733
 H   -5.4543503607   -2.1220396731   -1.3801266910
 H   -3.7471448087   -2.3695735062   -2.0352012432