21

 O   -0.0934675111    1.4172431911    0.2782092618
 C   -0.0087750883    0.0295015158   -0.0368260525
 C   -1.4094459270   -0.5325936386   -0.0089609796
 C   -2.3985282094    0.0659868454   -1.0198727796
 C   -3.6741704279   -0.7479348780   -0.6834197689
 C   -3.1254787821   -1.6229479134    0.4398310807
 C   -1.6700154587   -2.0788856765    0.0893068671
 C   -1.3343270618   -2.0486999103    1.6000062157
 C   -2.1736153568   -0.7746681292    1.3449704743
 H    0.7904726443    1.7911337950    0.2203835818
 H    0.4184107092   -0.1196579880   -1.0427203140
 H    0.6462489151   -0.4934148111    0.6746487903
 H   -2.5173766855    1.1414668696   -0.8684416723
 H   -2.0589798953   -0.0842637551   -2.0509946086
 H   -4.5032190632   -0.1176158633   -0.3459779564
 H   -4.0368541507   -1.3404338762   -1.5297237234
 H   -3.7894901521   -2.3453426093    0.9193029235
 H   -1.3844767226   -2.8337880065   -0.6481111156
 H   -1.8063475673   -2.8222348171    2.2127506795
 H   -0.2886749898   -1.9216921507    1.8888678062
 H   -2.4678130690   -0.0083782434    2.0645464801