15

 O   -0.3636392949    0.1334882389   -0.3238602441
 C    0.0941966094    0.9088224418    0.4848253366
 C    1.2410958691    1.7464637958    0.2521683921
 C    2.2040746624    2.4595782901    0.0902813963
 C    3.3186686347    3.3366015171   -0.1456417479
 C    3.9640301530    3.4353614031   -1.5723602928
 C    3.9437029607    4.9893076383   -1.4952467812
 C    3.0451881531    4.8828091925   -0.2574309072
 O    2.3467284702    5.6318797569    0.3469022550
 H   -0.3555378998    1.0283193425    1.4913369573
 H    4.0892570139    3.1954736777    0.6235976893
 H    4.9423291339    2.9662289626   -1.6711548946
 H    3.2960042469    3.0438887426   -2.3399884303
 H    4.9127757253    5.4347833827   -1.2474709539
 H    3.5155600421    5.5388037974   -2.3364625847