25

 C   -0.0153136456    1.5319286451   -0.2387912197
 C    0.0549255886    0.0258065841   -0.0416040769
 O   -1.2107472366   -0.5188768535   -0.3670194945
 C   -1.4129134546   -1.8793805353   -0.0383558823
 C   -0.5230853578   -2.8067739943   -0.8668076197
 C   -1.4299344382   -2.2415809433    1.4803667278
 C   -2.7577403769   -3.0102842879    1.2441087603
 C   -2.9230125286   -2.2780981060   -0.1210646582
 C   -3.9073653444   -1.1133288396   -0.0887012954
 H    0.9513682251    1.9930771458   -0.0141223183
 H   -0.2809381608    1.7694699331   -1.2729795644
 H   -0.7727478355    1.9712283015    0.4166585160
 H    0.8435799586   -0.4008711893   -0.6801587412
 H    0.3188612626   -0.2119889286    1.0010166346
 H    0.5371213214   -2.6741642512   -0.6288440087
 H   -0.7734878039   -3.8543793193   -0.6731703212
 H   -0.6665527648   -2.6110603903   -1.9345449897
 H   -0.5805353143   -2.8046770689    1.8758631682
 H   -1.5788692467   -1.3489972973    2.0932949555
 H   -2.6084869602   -4.0876513429    1.1362440613
 H   -3.5539241788   -2.8456807368    1.9743059303
 H   -3.1552856474   -2.9291158141   -0.9704636696
 H   -3.7170149931   -0.4472741979    0.7581577551
 H   -3.8392601990   -0.5108424118   -0.9983940286
 H   -4.9319320489   -1.4909549912    0.0006352192