17

 C   -0.0361827923    1.5052557386    0.0125482363
 C    0.1113825839    0.0109004173   -0.0013816688
 N    0.2364030434   -0.7268432848    1.0418961528
 O    0.2182317118    0.0374132631    2.2024240850
 C    0.1174156015   -0.6956137904   -1.2921999997
 N    0.0035125420   -0.1122241237   -2.4215178621
 C    0.0573836265   -1.1651296075   -3.4421138757
 C    0.2281541190   -2.4803619123   -2.6389655691
 O    0.2530341676   -2.0455645586   -1.2621686249
 H    0.8261736456    1.9624937283    0.5079445563
 H   -0.1240062694    1.8850507957   -1.0036251531
 H   -0.9189481777    1.7893109714    0.5940771910
 H    0.3186335249   -0.6302714530    2.8901851193
 H   -0.8601836827   -1.1517495290   -4.0403581374
 H    0.8910675829   -0.9776525402   -4.1275582434
 H   -0.6032036258   -3.1801794380   -2.7617451734
 H    1.1649144487   -3.0040091268   -2.8493516431