16

 C    0.3293289650    1.6438977771   -0.1869409018
 C   -0.0617924128    0.1985184925    0.0740454600
 C    0.5870556864   -0.8499512888   -0.8694561541
 N    1.5941294246   -1.1411860481    0.1780467606
 C    0.7595742588   -0.5246548469    1.2275835703
 C    1.4972877016    0.3281389649    2.1693592072
 N    2.0705393885    1.0277942760    2.8873314343
 C   -0.0797685287   -1.4793725877    1.9715409899
 N   -0.7385540890   -2.2689755202    2.4992848375
 H    1.4103262046    1.7458555275   -0.3177464809
 H   -0.1607476922    1.9944216477   -1.1007333032
 H    0.0213067707    2.2964075146    0.6348459478
 H   -1.1386558805    0.0974682045    0.2085629395
 H   -0.0833065607   -1.6853107934   -1.1031988833
 H    1.0221915581   -0.4641458822   -1.7956041883
 H    1.8477759157   -2.1104513676    0.3347096843