14

 C   -0.0262481643   -1.2084793966   -0.0765543944
 C   -0.0016881357   -0.0080566200   -0.0101957257
 C   -0.0121984970    1.4228539364    0.0614791405
 C    0.5155618000    2.1572536739    1.2535453529
 C    1.4242327966    1.4137580441    2.2314851453
 N    2.6064845114    1.0262541244    1.4392811711
 C    2.4255677779    1.4629270050    0.2615718553
 N    1.2540725924    2.2391604252   -0.0239079320
 H   -0.0409220537   -2.2688202781   -0.1372935920
 H   -0.8221942858    1.8960331647   -0.4874402514
 H   -0.0013536176    3.0571382351    1.5708071696
 H    1.7299479443    2.0610131261    3.0602914259
 H    0.9677813819    0.5163262950    2.6632929996
 H    3.1329938396    1.3100013149   -0.5471328448