18

 C   -0.5464878047    0.8180962052   -2.5065061480
 C   -0.1642571375   -0.3076110566   -1.5337158821
 C    0.8482543409    0.1589233738   -0.5705465132
 N    1.6562308391    0.5177369592    0.1731475256
 N   -1.3539120234   -0.7422276605   -0.8024860670
 C   -2.1480800441   -1.8118764511   -1.4084320666
 C   -1.3818908280   -2.0606052868   -0.1541937078
 C   -0.1990017134   -3.0039690287   -0.1211892237
 H    0.3327116414    1.1811745387   -3.0442379879
 H   -1.2702335879    0.4369768790   -3.2317951816
 H   -1.0016233235    1.6466344874   -1.9601782955
 H    0.3046409614   -1.1210541286   -2.1118194046
 H   -3.2246149213   -1.6660925804   -1.3992518074
 H   -1.7622080618   -2.2778150913   -2.3155281113
 H   -1.9372723921   -2.0289763923    0.7814898681
 H    0.2820836906   -3.1149349522   -1.0963838147
 H    0.5552720704   -2.6662003262    0.5965024656
 H   -0.5351066960   -3.9981592886    0.1905369422