15

 O    0.0219577097    0.0075759422   -0.5145087563
 C    0.0044580519    1.1309068532   -0.0538417419
 C   -1.3227799981    1.8265875153    0.2631293630
 C   -1.2361996483    2.9487106422    1.2709676403
 N   -0.5454343934    2.6449149512    2.5263840497
 C    0.0898162659    3.5753192030    1.5473873517
 C    1.2794750749    3.0499990092    0.8431540610
 C    1.2448123474    1.9120107777    0.1375084479
 H   -1.6940686636    2.2261875377   -0.6906501770
 H   -2.0376510965    1.0614956660    0.5800615191
 H   -2.1071088829    3.5992913124    1.3195053732
 H   -0.9525774922    3.1853650991    3.2865204508
 H    0.1139267310    4.6279173114    1.8131447059
 H    2.2074195232    3.6080366196    0.9397250412
 H    2.1334299709    1.4971215899   -0.3269449684