17

 C    0.0170697134    1.4917816681   -0.0224625617
 C    1.2903557444    0.7247816672    0.0187876922
 C    1.8397116232    0.3217817101    1.3767190496
 C    1.4040431066   -1.1813630337    1.5910071364
 C    1.2416575193   -0.9074805590    3.0990918478
 C    0.6711630481    0.3526447388    2.4125820279
 C   -0.0079704041   -0.5687039922    1.3357121490
 N   -0.0105575407    0.0168522848   -0.0192040795
 H   -0.3084860797    2.0271025521    0.8642836919
 H   -0.3029729971    1.9383896809   -0.9598312879
 H    1.9239839092    0.6527370436   -0.8609806945
 H    2.8377264637    0.6452664922    1.6745053202
 H    1.8278239863   -2.0586438782    1.1000583348
 H    0.5306241054   -1.5369395030    3.6418756357
 H    2.1609429836   -0.7732683343    3.6753314891
 H    0.2512880387    1.2318176311    2.9026039277
 H   -0.9106788204   -1.1290013286    1.5811213213