19

 O   -0.0863306329    1.3398066537   -0.1021731902
 C    0.0300351054   -0.0452552810   -0.0094448503
 C   -0.4044576380   -0.7633022111    1.2672188107
 C   -1.2289957500   -0.8484863272    0.0170537191
 O   -2.4384345086   -0.0724100943   -0.0419491528
 C   -3.2657168500   -0.9212960232   -0.8700766057
 C   -3.0465595632   -2.3239343275   -0.2509311380
 C   -1.6059528100   -2.0628836563   -0.8065409543
 C   -2.3111716684   -1.3531806008   -2.0098842085
 H   -1.0243419607    1.5180849326   -0.2586497441
 H    0.8976200223   -0.4316916559   -0.5394051436
 H    0.1524466704   -1.6382466115    1.5889603237
 H   -0.7917500994   -0.1373615409    2.0643927318
 H   -4.2360250323   -0.4502581674   -1.0155560007
 H   -3.1749442917   -2.4170404006    0.8292746628
 H   -3.5688501199   -3.1194861462   -0.7847213732
 H   -0.8595445228   -2.8459104252   -0.9271538638
 H   -2.7663091629   -2.0558024627   -2.7094678774
 H   -1.7683008472   -0.5648526346   -2.5360399454