14

 N    0.0809110256    1.1646012039   -0.8132027976
 C    0.0960790382    0.0583313596   -0.2155831980
 N    0.9407278121   -0.7102752196    0.5557920498
 C    0.0655549448   -1.8879311269    0.6176309344
 C   -1.0293809233   -1.0203969539   -0.0799189612
 C   -2.1376046613   -0.5101953891    0.8532863853
 O   -2.1578894954   -0.7372586047    2.0301113510
 C   -1.5749246852   -1.5113188266   -1.3297591590
 N   -2.0372913228   -1.9147477798   -2.3092719605
 H    0.9675696945    1.6650113414   -0.7464372451
 H    1.9454662776   -0.6631115470    0.6255910578
 H    0.3942750404   -2.7372992150    0.0130815923
 H   -0.1994122670   -2.1991230614    1.6293034816
 H   -2.8974988682    0.1154935091    0.3473752793