13

 C    0.0875660605    1.4618620995    0.0054549817
 C   -0.0094104451   -0.0313937865    0.0326567348
 N   -0.1242037773   -0.6367104189   -1.0996829256
 O   -0.2173441022   -2.0232895862   -1.1215552724
 N   -0.1927864922   -2.7890288218    0.0172212063
 C   -0.0784673288   -2.1866457498    1.1455101830
 C    0.0279288543   -0.7452139208    1.3133580703
 N    0.1433644977   -0.1003296441    2.4162020133
 H    1.0205579694    1.7826517315    0.4788982222
 H    0.0433791697    1.8244781092   -1.0218262853
 H   -0.7247647292    1.8981143384    0.5947910309
 H   -0.0644252236   -2.8419198402    2.0144257843
 H    0.1533115066   -0.7442143403    3.2120584863