20

 O   -0.0298355350    1.3367559026   -0.1986779499
 N    0.0540077562   -0.0679411247   -0.1597189492
 C   -1.0827962937   -0.6236518608    0.0148487559
 C   -2.4212916835    0.0527915257    0.1358562749
 C   -3.3303089746   -0.3382303464   -1.0533210174
 C   -3.2674406913   -1.8250604088   -1.4090132940
 C   -2.1702658513   -2.3410643802   -2.3126326794
 C   -2.1685920780   -2.7127046135   -0.8543234518
 C   -1.1166821769   -2.1280887769    0.0815103654
 H    0.8924173723    1.5849739042   -0.3182297388
 H   -2.8879378621   -0.2964094792    1.0665034259
 H   -2.3102229975    1.1346592218    0.1997044348
 H   -4.3612170505   -0.0629895567   -0.8088650598
 H   -3.0502871874    0.2640021011   -1.9250108609
 H   -4.2351447731   -2.3010312609   -1.5328409439
 H   -2.4112613170   -3.1038962665   -3.0449069960
 H   -1.4252155509   -1.6232205721   -2.6449378105
 H   -2.4479764254   -3.7354709023   -0.6188027121
 H   -0.1225326788   -2.5299209661   -0.1354639204
 H   -1.3679793214   -2.4165587002    1.1126889072