18

 O    0.2086310217    0.8669991018    0.8028598186
 C   -0.0835219342    0.2916099232   -0.4747111592
 C   -1.4449138136   -0.3606781617   -0.4342899446
 O   -2.4311452731    0.5471666204   -0.0148457350
 C   -1.9923964231   -1.3440471951   -1.4132453943
 C   -0.9311928985   -2.3221351293   -1.9301202060
 C   -0.6367841048   -2.7677798560   -0.4584193654
 C   -1.6966954088   -1.7795685116    0.0420600953
 H    0.3176508831    0.1388324110    1.4248894724
 H   -0.0965995992    1.1321002721   -1.1757207089
 H    0.7035475863   -0.4036135269   -0.7885000156
 H   -2.0296881868    1.0314666874    0.7192077658
 H   -2.9514775547   -1.1434734254   -1.8754812226
 H   -1.3676487619   -3.1312659444   -2.5191219786
 H   -0.1014276235   -1.8950559565   -2.5023928989
 H   -0.9185269653   -3.8086081764   -0.2844665991
 H    0.3856672691   -2.6300263777   -0.0888157824
 H   -2.4048407325   -1.9488983151    0.8441111485