13

 O    0.0140742955    0.0656111126    0.1072710902
 C   -0.0140078700    1.2551984277    0.0909438168
 C   -1.0724304562    2.3044690196   -0.0657117769
 C   -0.0708543672    3.1738551109   -0.7842250254
 N   -0.5667960329    3.5868484904    0.5293640078
 C    0.7638446775    3.2555894554    1.1560677437
 C    1.0892574653    2.3638881016   -0.0642473211
 C    2.4106060286    2.0636840461   -0.5238260187
 N    3.4801176836    1.8298400744   -0.8967293666
 H   -2.1375556289    2.2041636703   -0.2166564873
 H   -0.1403639351    3.7102306069   -1.7195915788
 H    1.3574875772    4.1695914574    1.1994717358
 H    0.7192555428    2.7729359867    2.1369000505