14

 O   -0.0328942445    0.0418984716   -0.6512437008
 C   -0.0779183094    1.1484059189   -0.1749303603
 C    1.1568579540    1.8222678949    0.2893241758
 N    2.1195719285    2.3468441959    0.6567828623
 C   -1.3084769374    1.9396100239    0.0377272816
 C   -1.5058799536    3.4065562075    0.4566788599
 C   -2.7795211424    2.9676675861    1.2593078019
 C   -2.5274435152    1.5251485448    0.8064433302
 O   -2.4996429171    1.4993093791   -0.6068084687
 H   -0.7093939828    3.7761470412    1.1043057451
 H   -1.6557225447    4.0959510302   -0.3758296122
 H   -2.6650158333    3.1058863631    2.3358715937
 H   -3.7362067630    3.3812378300    0.9342825512
 H   -2.7195997093    0.5877464229    1.3163897803