20

 O    0.0133469996    1.2518578000    0.4187971204
 C   -0.0521169850   -0.0233543719   -0.1961702415
 C   -1.4648710906   -0.5595645850   -0.1827526289
 C   -2.5502708309    0.2116756659   -0.9311465523
 C   -3.7805463015    0.0936387180    0.0026741062
 C   -3.4114670777   -1.0870116996    0.8939037625
 C   -3.1483559036   -2.3882294100    0.0885083471
 C   -1.6787469057   -1.9957663180    0.1340105062
 N   -1.9182306200   -0.9338199067    1.1883225554
 H   -0.3760020463    1.1350645365    1.2943273638
 H    0.2992251520    0.1092874979   -1.2252075712
 H    0.6199556743   -0.7414397612    0.2977937704
 H   -2.2383223685    1.2494320473   -1.0689164477
 H   -2.7387887038   -0.2146372533   -1.9215710990
 H   -3.8914055519    0.9985596620    0.6093416576
 H   -4.7202024897   -0.0669440951   -0.5344763290
 H   -4.0086749643   -1.1893243092    1.7999609864
 H   -3.3396837681   -3.2844031875    0.6823852666
 H   -3.6302580389   -2.4982834702   -0.8887366546
 H   -0.8469317394   -2.6909606399    0.2142279814