17

 C   -0.1656343396    1.5698755405    0.0277944592
 C   -0.0134206147    0.0632024990   -0.0529999826
 C   -1.0621057397   -0.6458049782    0.6587597246
 N   -1.9258822454   -1.1906063240    1.2010696973
 C    0.5885162081   -0.6672634093   -1.2388824815
 C    1.3934302215    0.1281266618   -2.2030861339
 C    2.4664305557    0.6315281865   -1.5907658162
 C    2.4906972508    0.2143112818   -0.1379716570
 N    1.2909658268   -0.6361944772    0.0584085162
 H    0.5015809949    2.0817102801   -0.6658423823
 H   -1.1948382295    1.8495400301   -0.2127475713
 H    0.0445272217    1.9176007657    1.0445849779
 H    0.1393767408   -1.6079806931   -1.5461852086
 H    1.1235118186    0.2507308449   -3.2438784332
 H    3.2212778612    1.2670053688   -2.0385660492
 H    3.3794743590   -0.3795714293    0.1089134607
 H    2.4823290898    1.0676152717    0.5522945500