16

 O   -0.2195081754    1.5066806790    0.0123492312
 C    0.0227183929    0.1077487767    0.0024358691
 C   -1.3354967991   -0.5784282481    0.0118525962
 C   -1.2385953560   -2.0940949885    0.0028061250
 O   -0.1835055747   -2.6772450105   -0.0101561042
 C   -2.5930409145   -2.8286339751    0.0114424845
 C   -2.4974575894   -4.2775110565    0.0033603002
 C   -2.4257959661   -5.4757867441   -0.0032514626
 H    0.6303821328    1.9562487758    0.0066024143
 H    0.5863798623   -0.2036089500   -0.8882239844
 H    0.6034513246   -0.2131860239    0.8786071871
 H   -1.9089531682   -0.2591027278    0.8921429724
 H   -1.9258471945   -0.2496975096   -0.8536810270
 H   -3.1544245899   -2.4809867277    0.8899198883
 H   -3.1701284981   -2.4723248986   -0.8532874843
 H   -2.3539966366   -6.5350641511   -0.0091732158