19

 C   -0.0409284880    1.5871840621    0.2598503430
 C    0.0198918352    0.0653590044    0.0439032450
 C    0.9122761740   -0.6196837417    1.0863619154
 C   -1.3796176714   -0.5025815859   -0.0028768296
 C   -2.2359556786   -0.9519622392    1.1991988820
 C   -1.9961838715   -1.8790872552    0.0652573792
 O   -2.9353316567   -1.5656469821   -1.0036443909
 C   -2.3428441091   -0.3173458469   -1.1540714358
 O   -2.5679140933    0.4944833314   -1.9924425478
 H    0.9612682862    2.0243900654    0.2103096041
 H   -0.6626338049    2.0635239183   -0.5029465090
 H   -0.4650973203    1.8234457588    1.2421724790
 H    0.4635593219   -0.1133511241   -0.9450818827
 H    0.5638880753   -0.4226749807    2.1060626771
 H    0.9487250929   -1.7044912046    0.9409323158
 H    1.9353400133   -0.2391914585    1.0127188136
 H   -1.6658307237   -1.1368471264    2.1043981065
 H   -3.2319424773   -0.5493140673    1.3542683975
 H   -1.5681120242   -2.8711799778    0.0702138175