16

 O    0.1149798713    0.0483801989   -0.1774390464
 C    0.0394479351    1.2135617684    0.1092840613
 O   -1.1465841338    1.8643033825    0.1798708487
 C   -1.2175252803    3.2217787708    0.6942076797
 C   -0.0775499674    4.0864191499    0.2159018974
 C    1.0636565097    3.4220358372    0.1013561627
 C    2.5122586842    3.4684102050   -0.3440900211
 C    2.4958081947    1.9070795124   -0.1942472679
 N    1.1276797179    2.0350118990    0.3501231035
 H   -2.1869926778    3.5920265910    0.3547584143
 H   -1.2450495669    3.1576699639    1.7918207564
 H   -0.2152587526    5.1338779632   -0.0095573623
 H    2.6805564603    3.8405319590   -1.3560630923
 H    3.1860258442    3.9844361891    0.3433095059
 H    2.5238023923    1.3514064706   -1.1346007582
 H    3.2102253190    1.4774867890    0.5103566081