17

 C   -0.2469418141    1.5532344760   -0.1398287020
 C    0.1162690336    0.0732353716   -0.0147506781
 N    0.8067001969   -0.4295282200   -1.1853038650
 N    0.1598657781   -0.5521688089   -2.4048126368
 C    1.1293391282   -1.0039372803   -3.1819724122
 N    0.9651801196   -1.2235856892   -4.5357824896
 N    2.3421489964   -1.1935746347   -2.5740313278
 C    2.0783891243   -0.8169302571   -1.3390323965
 O    2.9388838484   -0.8051652339   -0.3120196412
 H    0.6521268535    2.1697922596   -0.2305176741
 H   -0.8676756137    1.7151176940   -1.0240854734
 H   -0.8032230735    1.8797784181    0.7439924276
 H    0.7751816901   -0.1013767852    0.8394369082
 H   -0.7866342282   -0.5299569009    0.1275572922
 H    0.0021892688   -1.3686354189   -4.8028811900
 H    1.5829062393   -1.9352405177   -4.8977736658
 H    3.7817715323   -1.1239496724   -0.6580620458