21

 C    0.0745836660    1.5102391618   -0.0120472031
 C   -0.0099238892   -0.0027607879    0.0198528597
 C   -0.8450885007   -0.6602132244    1.1131716361
 C    0.6561297968   -0.7542316488    1.1548547914
 C    1.4033831292   -2.0300311819    0.8441608521
 O    1.4411505039   -2.8075067753    2.0397831335
 C    0.7937850901   -2.8279782026   -0.3231503109
 C    0.3699806743   -1.9548611066   -1.4758389663
 C    0.0084093688   -0.6824106308   -1.3051956395
 H    1.0062779530    1.8478706473   -0.4803047126
 H   -0.7585700180    1.9390317516   -0.5816129405
 H    0.0365146117    1.9294174747    0.9980051989
 H   -1.3287212054   -0.0135225949    1.8383157464
 H   -1.4187605132   -1.5404018565    0.8466647002
 H    1.1493916675   -0.1439210333    1.9061301879
 H    2.4283661077   -1.7403644557    0.5586407142
 H    1.9932846684   -3.5783166595    1.8718293027
 H    1.5151746255   -3.5833268940   -0.6598321987
 H   -0.0649827570   -3.3900317102    0.0700022305
 H    0.3341087744   -2.4036204219   -2.4643862196
 H   -0.3099447238   -0.0883587012   -2.1589258726