22

 C   -0.0186540434    1.5548962494   -0.3713023323
 C    0.0152011053    0.1406722078    0.2211428069
 C   -1.3457254441   -0.5275430261    0.1777985047
 C   -1.8065232883   -1.2806362109   -1.0408306540
 O   -0.8864205449   -1.3661101075   -2.0951190499
 C   -1.5389689094   -2.0349896130    0.2479644466
 C   -0.3849742224   -3.0123500571    0.3563370241
 C   -0.8052530942   -4.4475913415    0.0134884835
 H    0.9627279755    2.0354548024   -0.3050844819
 H   -0.3108773538    1.5236120537   -1.4253447123
 H   -0.7373055100    2.1913046447    0.1576074942
 H    0.7447808512   -0.4583315618   -0.3289136351
 H    0.3619921996    0.1837360381    1.2617914947
 H   -2.1230031513    0.0533081342    0.6708137695
 H   -2.8411475128   -1.1569280998   -1.3609667070
 H   -1.0026794907   -2.2195569851   -2.5254112102
 H   -2.4301135401   -2.3577154210    0.7839121943
 H    0.4257788317   -2.7043998643   -0.3100865903
 H    0.0241107017   -2.9880158914    1.3743756448
 H   -1.6048632907   -4.7965388944    0.6762792902
 H   -1.1808690287   -4.5178448495   -1.0139070684
 H    0.0348478299   -5.1426147069    0.1093352077