19

 C    0.0086519925    1.6898106737    0.0175579652
 C    0.0612242408    0.1699228136    0.0136747013
 C    1.0138327860   -0.6384504828   -0.9034696208
 C    2.4035676568   -0.0158357376   -1.0299846969
 C    2.9134127262    0.4555617120    0.3387706327
 O    3.8759603171    1.1744587619    0.4525150943
 C    2.1108802053   -0.0325648184    1.5525757599
 C    0.7856052292   -0.6514946236    1.1103201774
 O    1.0940634558   -1.6722427837    0.1187967901
 H    0.9909922521    2.1568421888    0.1319424781
 H   -0.4244523797    2.0619184382   -0.9171438116
 H   -0.6232241643    2.0505644009    0.8362764061
 H   -0.9454766907   -0.2408038389   -0.1030772518
 H    0.6295029348   -1.0212628390   -1.8528018610
 H    3.1006866542   -0.7733309411   -1.4077959882
 H    2.4389186353    0.8285500990   -1.7265373374
 H    2.7068698788   -0.7958414645    2.0670856242
 H    1.9882367120    0.8027897029    2.2501171879
 H    0.1991349377   -1.0458603012    1.9445951306