20

 C   -0.0131047405    1.5010569955    0.1366533977
 C   -0.0921007339   -0.0290333306    0.1149683878
 C    0.5567016549   -0.6321262747   -1.1267626118
 C    2.1013480983   -0.6029799086   -1.3085118324
 N    2.1839572275   -2.0927304957   -1.5599623454
 C    1.6919097645   -2.7270035335   -0.3463309256
 C    0.6663281907   -2.1492727058   -1.2587388993
 C   -0.2221722627   -2.9994733814   -2.0712162071
 O   -1.3078235460   -2.6488179455   -2.4680834465
 H    1.0264521857    1.8472321328    0.1207500617
 H   -0.5194248214    1.9348118540   -0.7324591321
 H   -0.4842954423    1.9092272859    1.0355795951
 H    0.3804719943   -0.4326598775    1.0192355194
 H   -1.1412607706   -0.3474512337    0.1464556462
 H    0.0641307170   -0.2355080647   -2.0193250728
 H    2.4481327241   -0.0584179831   -2.1873695916
 H    2.6883710966   -0.2922457701   -0.4369485188
 H    1.8044996253   -3.8076947122   -0.3508945427
 H    1.8639845974   -2.2566264085    0.6195674701
 H    0.1933352610   -4.0054980926   -2.3059193520