19

 C   -1.4772492930   -0.3489165567    0.0094811926
 N   -0.0429635118   -0.0590520278   -0.0065311701
 C    0.6657616017   -0.5523035906   -1.1689655247
 C    0.1550465246    0.0659762151   -2.4081765782
 N   -0.3050994388    0.6079479633   -3.3215491811
 C    2.2260589252   -0.6912469729   -1.0573603741
 C    1.9818547431   -1.8652467593   -0.0637842037
 C    0.9817404754   -2.0916168200   -1.2358502052
 C    2.1510746245   -1.7429021464   -2.2010913742
 H   -2.0217034002    0.0324390711   -0.8681405064
 H   -1.6280663709   -1.4319406071    0.0601607493
 H   -1.9156574096    0.0910024107    0.9088192070
 H    0.1078163845    0.9409431822    0.0795822512
 H    2.9258862906    0.1394598398   -0.9598449929
 H    2.7911520588   -2.5943439752    0.0078145592
 H    1.5588181157   -1.6095911968    0.9045778541
 H    0.2442459981   -2.8865112177   -1.3478250879
 H    1.8923915889   -1.3862769395   -3.1995380131
 H    2.9679698031   -2.4655084423   -2.2318190818