21

 C   -0.0998714881    1.5541566047    0.0724056809
 C    0.0517016301    0.0587059634    0.0096886500
 C   -0.8247791350   -0.8717375162    0.8067950654
 C    0.6627704709   -0.9370854601    1.0077300557
 C    1.2780737215   -1.7575622594   -0.1271859033
 C    0.6760697277   -0.7245531096   -1.1535737490
 O   -0.2709888695   -1.2117948324   -2.0808698149
 C    1.7576392079    0.0436187936   -1.9026289472
 O    2.3177630501   -0.8732807472   -2.8416315499
 H    0.8339635441    2.0787731732   -0.1603742175
 H   -0.8639303324    1.9051314991   -0.6315849261
 H   -0.4098083414    1.8688903327    1.0742631418
 H   -1.3877821035   -0.3858620031    1.5979462900
 H   -1.3475890504   -1.6895128055    0.3190840830
 H    1.1284649315   -0.7270408345    1.9632045307
 H    2.3698575243   -1.7770219477   -0.1402910699
 H    0.9000552544   -2.7788282891   -0.2309996359
 H    0.2435943616   -1.5622614292   -2.8199075417
 H    1.3024241455    0.9011835700   -2.4184765413
 H    2.5205428946    0.4199769713   -1.2060341502
 H    2.8534959861   -0.3815800736   -3.4698016903