17

 O   -0.4240081800    0.1805951142   -0.1909990084
 C   -0.1570533714    1.3256191165    0.0212619751
 C   -0.9581197498    2.5071669459    0.6494527995
 C    0.1445834118    3.4291070083    0.0882827363
 N    1.3622316604    3.0069767590    0.7970537867
 C    0.9428297569    2.2525484164   -0.4350997928
 C    0.0066074188    4.7784972452   -0.5045532646
 C   -1.3081357102    5.3146757543   -0.9397464382
 N   -0.6433916711    5.8675517455    0.2514533960
 H   -1.9311157642    2.5943567440    0.1590750716
 H   -1.0731945933    2.5084443134    1.7349199779
 H    2.1254758556    3.6176389690    0.4996359672
 H    1.6097426020    2.1651776890   -1.2839741306
 H    0.8936085838    5.1080056684   -1.0448713450
 H   -1.3543382387    5.9864876245   -1.7918237031
 H   -2.1891536351    4.6936450869   -0.8076105051
 H   -1.0739313554    5.4878950196    1.0923204574