21

 C   -0.0551927466    1.5729120855   -0.2438627148
 C    1.5126786771    1.4686573795    0.0687141773
 C    1.1210863630    0.2626893721    0.9985887212
 C    1.1784544618   -1.3064454838    1.1327945496
 C   -0.4204255646   -1.2182296080    0.9562311707
 C   -1.0480149842   -0.8471821773    2.2729606125
 C   -0.4773461908    0.1266601306    2.9782311432
 C    0.7355175453    0.8120443529    2.4016655794
 C   -0.0491604732    0.0431472522    0.0790301245
 H   -0.5720119278    2.1977885855    0.4864277024
 H   -0.3498180715    1.8776146138   -1.2511282754
 H    2.0618824969    1.1696217613   -0.8279435915
 H    2.0031639854    2.3349093644    0.5233179804
 H    1.6526646114   -1.8009693856    0.2819039462
 H    1.5373062451   -1.7372647404    2.0725295841
 H   -0.9185058237   -2.0535697309    0.4607415140
 H   -1.9384254841   -1.3683341794    2.6102142339
 H   -0.8681428649    0.4639243836    3.9340873648
 H    1.6056944797    0.6790955805    3.0623004971
 H    0.5644977819    1.8952159060    2.3758564116
 H    0.3645283135   -0.4016953924   -0.8360503513