20

 C   -0.3982802226    1.4149015183    0.0281305028
 C    0.0597910485   -0.0482661618   -0.0194751183
 C    0.9127684469   -0.3793096657   -1.2529920400
 C    1.4192742094   -1.8449236062   -1.1281462525
 C    2.5114724435   -1.2532495735   -0.2098115447
 C    2.3831382648    0.0688616984   -0.9987145440
 O    2.0040382638   -1.0847634531    1.1239495969
 C    0.8070794724   -0.4356651533    1.2611367020
 N    0.3254027901   -0.1789060809    2.4029941961
 H    0.4552287301    2.1005133918    0.0066740853
 H   -1.0367496217    1.6411447110   -0.8319742697
 H   -0.9574304887    1.6018404065    0.9461768923
 H   -0.8387473702   -0.6790591619   -0.0458477317
 H    0.4191127773   -0.0684586866   -2.1762046537
 H    0.7519265147   -2.5937013617   -0.6928571924
 H    1.8426639695   -2.2208723282   -2.0627031365
 H    3.4757932246   -1.7481599153   -0.0953073305
 H    2.9832727751    0.0511512106   -1.9113594896
 H    2.5681898502    0.9967497374   -0.4517292149
 H    0.9537069623   -0.5165415260    3.1347993932