17

 C   -0.0812718741    1.4813144022    0.0106375998
 O    1.1537630851    0.7478162656   -0.0055126829
 C   -0.0729853463    0.0179284580    0.0027537466
 C   -0.4080395809   -0.8743065353    1.1600718674
 C   -1.5740363582   -1.7699725498    0.7868688101
 C   -0.1682099095   -2.3238901863    0.7679304917
 C   -0.1835668784   -2.3155958920   -0.7852930760
 C   -1.5894538243   -1.7617057611   -0.7704835092
 C   -0.4310117896   -0.8619511690   -1.1571412821
 H   -0.2922341336    2.0200265960    0.9340853568
 H   -0.3104357704    2.0298210345   -0.9026510123
 H   -0.2647912305   -0.5552069107    2.1843363979
 H   -2.4032664639   -1.9974562046    1.4418667867
 H    0.2987672930   -3.0564433352    1.4107327174
 H    0.2705412085   -3.0411900869   -1.4449865928
 H   -2.4315081898   -1.9823193765   -1.4113171193
 H   -0.3080661871   -0.5319338487   -2.1805841999