20

 C    0.0820924026    1.5529525616   -0.0064897189
 C    1.3359857228    0.7161688154   -0.0107806341
 C   -0.0130519147    0.0524731263    0.0197716082
 C   -0.5465358050   -0.8697111423    1.1411059001
 C   -1.0987929402   -1.8211751459    0.0365486511
 C   -2.4951911505   -1.5348447326   -0.5394751914
 C   -2.8211292580   -0.1006839948   -0.6301283357
 N   -1.9392062020   -0.6692439461   -1.6686951950
 C   -0.5526815131   -0.8851636181   -1.0667789739
 H   -0.1675878981    2.0922384448    0.9022333737
 H   -0.1996978003    2.0635246013   -0.9215997555
 H    1.9108394821    0.6566594040   -0.9297629575
 H    1.9336500640    0.6862655321    0.8949677641
 H    0.2440844167   -1.3227999948    1.7463131680
 H   -1.2955926557   -0.4382553613    1.8123665604
 H   -0.8273625703   -2.8741113571    0.0879870086
 H   -3.2359168565   -2.3032511196   -0.7406953815
 H   -3.7995228155    0.1556022284   -1.0269137275
 H   -2.4302135355    0.6159533592    0.0836182041
 H    0.1383637273   -1.2087193505   -1.8460730973