23

 C    0.7071040748    1.9526649749   -0.5284265855
 C    0.5233385876    0.4448060334   -0.3270694956
 C    1.3677117622   -0.4128682173   -1.2910082027
 C    2.8750294528   -0.3458108627   -1.1059367442
 C    3.4407790009   -1.5554858167   -1.1146812169
 C    2.4286661767   -2.6454704753   -1.2254062405
 C    1.4529024496   -2.7858498108   -0.0643965621
 C    1.7378989343   -2.3214076290    1.3473583018
 C    1.0869504389   -1.9214258206   -1.2540016421
 H    1.7369352663    2.2662871402   -0.3279847042
 H    0.4662154497    2.2476802170   -1.5561813601
 H    0.0550537344    2.5217379009    0.1416720326
 H    0.7560837389    0.1809719698    0.7093699799
 H   -0.5325539853    0.1880419565   -0.4781980923
 H    1.1319057051   -0.0544590165   -2.3070510380
 H    3.4077788566    0.5912038897   -0.9877126406
 H    4.5039716766   -1.7493082707   -1.0211121150
 H    2.6407370516   -3.5161557501   -1.8375134679
 H    0.9218643568   -3.7360040669   -0.0878470066
 H    2.3816054086   -1.4399724812    1.3696870381
 H    0.8107845562   -2.0789754062    1.8782418269
 H    2.2419232914   -3.1150204379    1.9112415275
 H    0.2816593954   -2.2857748005   -1.8826842924