19

 C   -0.0203452378    1.5600119660   -0.2979360754
 C   -0.1785850570    0.0587088197   -0.5159401608
 N    1.1018683974   -0.5521283443   -0.9020145304
 C    1.0572073919   -1.9421795436   -1.2032834867
 C    0.8617207769   -3.0570169113   -0.4089496221
 N    0.9108265859   -4.1526180678   -1.2237582582
 C    1.1317108832   -3.7762418722   -2.5377376629
 C    1.2262079936   -2.4060586756   -2.5404599981
 O    1.4492320755   -1.5851436609   -3.5980867991
 H    0.6801794415    1.7693362240    0.5192622279
 H    0.3628846932    2.0450592402   -1.2006251893
 H   -0.9791196770    2.0171987365   -0.0360500697
 H   -0.6052076119   -0.4078953896    0.3880410683
 H   -0.8891357575   -0.1339631715   -1.3271593373
 H    1.8033288530   -0.3470122292   -0.1977289872
 H    0.7019501147   -3.1530358789    0.6530578563
 H    0.8064714238   -5.1019207216   -0.9159897545
 H    1.2095213799   -4.4995568208   -3.3307517243
 H    1.5190679208   -0.7009137791   -3.2052665865