12

 O   -0.0454663979   -0.0056629176   -0.0004525978
 C   -0.0107937419    1.2029571386    0.0081813521
 C    1.2388294864    1.9775970565   -0.0001459116
 C    2.5046061731    1.4693665628   -0.0184705180
 O    3.4197355218    2.4632237847   -0.0210247789
 C    2.7512978874    3.6398826440   -0.0044191664
 C    1.4054905082    3.4163682721    0.0086308595
 C    0.3846021184    4.3987322015    0.0274227770
 N   -0.4609965579    5.1892344107    0.0429547971
 H   -0.9371269770    1.8129154290    0.0233365400
 H    2.8821360976    0.4610021708   -0.0304296508
 H    3.3484592017    4.5358641468   -0.0041643122