19

 C   -0.2709159865    1.3744980323   -0.0740846423
 C    0.0889082354   -0.0990568556   -0.0961725994
 C    1.1654865086   -0.5137438890   -1.1085410197
 C    1.6985337856   -1.8196513798   -0.5067941296
 C    1.3826868180   -1.6672484256    1.0022648103
 O    0.6692571761   -0.4524649373    1.1613426994
 O    0.9616166958   -2.9406560433   -1.0288561489
 C    1.6240375204   -3.8760973571   -1.7336866226
 O    1.0838571461   -4.8208156623   -2.2243140013
 H    0.6229008859    1.9839283418    0.0915913282
 H   -0.7281241902    1.6712523155   -1.0228749389
 H   -0.9823867122    1.5822828695    0.7295585785
 H   -0.8175043674   -0.7033256286   -0.2672899402
 H    0.7936175160   -0.6577054348   -2.1247718506
 H    1.9607015109    0.2394175053   -1.1246445010
 H    2.7639819743   -1.9774786424   -0.7011869310
 H    0.7866404842   -2.5320630644    1.3237437810
 H    2.2863066430   -1.6149973890    1.6177803075
 H    2.7113824659   -3.6727932452   -1.8002590894