27

 C    0.1225110204    1.5434702341    0.0439984436
 C   -0.0416244752    0.0131781569    0.0369130314
 C    0.8469152473   -0.5817304092    1.1441902692
 C   -1.5345942737   -0.4742764286    0.0776247930
 C   -2.2753462765    0.0878138000    1.3078738632
 C   -2.2541005288    0.0055290956   -1.2007838730
 C   -1.5374751238   -2.0260232684    0.1204955501
 C   -2.8714194765   -2.7257290965   -0.1313632139
 O   -2.6635989207   -4.1088415350    0.1330329514
 H    1.1744368898    1.8041227150   -0.1126585383
 H   -0.4535290482    2.0380036514   -0.7418595372
 H   -0.1763224845    1.9769533512    1.0043134081
 H    0.3570319206   -0.3490301595   -0.9221588740
 H    0.4959434388   -0.2967303022    2.1422194307
 H    0.8978527823   -1.6718172819    1.1041017152
 H    1.8694934220   -0.2033212474    1.0430111326
 H   -2.3249009097    1.1803146322    1.2802800214
 H   -3.3059544699   -0.2777915230    1.3482240555
 H   -1.7892612878   -0.2037019143    2.2440332351
 H   -1.7809598441   -0.4049961913   -2.1002763438
 H   -3.3043768158   -0.3013251868   -1.2062597144
 H   -2.2447412471    1.0950640570   -1.2856678699
 H   -0.8202212313   -2.4121918301   -0.6151885674
 H   -1.1888147462   -2.3701359699    1.0995866571
 H   -3.6569437829   -2.3179410873    0.5240678963
 H   -3.2009807768   -2.5746809107   -1.1695585774
 H   -3.4799907517   -4.5763638011   -0.0656428746