18

 O    0.1083676258    0.0683098839    0.2772784194
 C    0.0512475772    1.2404573779   -0.0006634138
 O   -1.1508793884    1.8843058897   -0.0258264837
 C   -1.2055992338    3.3092519907   -0.1853342936
 C   -0.0410744712    4.0026860798    0.5221079551
 C    1.2239621488    3.4782277869   -0.1331684329
 C    2.5510701657    3.2819048747    0.6496470844
 C    2.4692858701    1.7691316401    0.2867372508
 N    1.1426272575    2.0091012422   -0.3146656994
 H   -1.2037735126    3.5560638922   -1.2558386424
 H   -2.1714062676    3.6075393389    0.2292640978
 H   -0.1314576796    5.0888400054    0.4246914086
 H   -0.0633519293    3.7516629272    1.5890189281
 H    1.3754255915    3.9786379235   -1.0983738330
 H    3.4148132143    3.8267393235    0.2669175844
 H    2.4507714680    3.4741082441    1.7201669481
 H    3.2097277090    1.4271650566   -0.4423979555
 H    2.4363657546    1.0623542828    1.1187533475