16

 N   -0.0930439880    1.3260295233   -0.0040409941
 C    0.0267628521   -0.0615809771   -0.0136615398
 N   -1.0524659643   -0.8334060407    0.1087640874
 N   -0.5274783242   -2.0989815462    0.0402665287
 C   -1.1143209403   -3.3756915028   -0.2893661108
 C    0.1732537044   -4.2401837763   -0.2175529272
 O    1.2889584469   -3.3301002960   -0.4218704496
 C    0.7989662186   -2.0946404463   -0.1881197344
 C    1.2411863137   -0.7956191351   -0.2052996903
 H    0.6564184662    1.7924932829    0.4882352122
 H   -0.9932848577    1.6179174831    0.3544849583
 H   -1.8658371220   -3.6951852779    0.4369969426
 H   -1.5671930185   -3.3696912122   -1.2897361636
 H    0.2830030478   -4.6982208856    0.7709390282
 H    0.2256430734   -5.0127807867   -0.9852300316
 H    2.2398141420   -0.4206337964   -0.3444270459