20

 C    0.0406662019    1.5113839542    0.1393742287
 C    0.0114999901    0.0230447622   -0.0299764839
 C   -1.0247246648   -0.8932328798    0.6731279419
 C   -1.0212569583   -2.1961538293   -0.1062927989
 N    0.4818184034   -2.0441385160   -0.2913254956
 C    0.4480279122   -1.0663142886    0.9105296104
 C    0.5355371103   -0.8268290877   -1.1595854679
 C    0.3332470442   -0.8311734424   -2.6372596274
 C    1.7081131319   -0.5561577089   -2.0388642369
 H    1.0388180359    1.9130523728   -0.0680507269
 H   -0.6682774233    2.0050437111   -0.5352598909
 H   -0.2249081380    1.7980448499    1.1622289556
 H   -1.7702048493   -0.4816679476    1.3433832886
 H   -1.2212189154   -3.0671849092    0.5236179722
 H   -1.5837821652   -2.2734404663   -1.0430123810
 H    1.0885652684   -1.1098393861    1.7802146757
 H    0.1826928670   -1.7920280766   -3.1192181124
 H   -0.2034913452   -0.0073295797   -3.0965052528
 H    2.0963879179    0.4559739726   -2.0940763527
 H    2.4560395663   -1.3368395346   -2.1227164557