16

 O    0.0824655803    1.4164335963   -0.2553075035
 C    0.0526835621    0.0340649282   -0.0540924922
 C   -1.3800917288   -0.6122571780   -0.1290890111
 C   -0.7415406482   -1.8367157385   -0.8755903484
 O   -1.2086533272   -2.3605110821   -2.1074487139
 C   -0.4034060030   -1.8554068068   -3.1272891069
 N   -0.5208859910   -2.1633334779   -4.3477694689
 C    0.5163848324   -0.8547358915   -2.5421835658
 C    0.3650416507   -0.8940323294   -1.2177767361
 H    0.9644241163    1.7424532551   -0.0507884989
 H    0.5602412447   -0.2601329923    0.8741700126
 H   -1.8877112490   -0.8094660135    0.8169544840
 H   -2.0078325487   -0.0205420792   -0.7968954379
 H   -0.5244614649   -2.6646734916   -0.1942966996
 H   -1.2889232699   -2.8225433635   -4.4807171218
 H    1.0483114842   -0.1453621053   -3.1583399116