19

 C    0.0052200612    1.3979812858   -0.3585024095
 C    0.0697866538   -0.0475253309    0.0739094330
 N    1.3986917950   -0.6884932412    0.1161959628
 C    0.6364953388   -0.5317537684    1.3667560355
 C    1.2392681806    0.4044228952    2.3932133174
 C   -0.0114882136   -1.7846053456    1.9660036118
 C    0.9453523363   -2.6786968346    2.6134679340
 C    1.7458431352   -3.4077798688    3.1355360275
 H    0.8538822858    1.9695515486    0.0218823068
 H    0.0222415105    1.4675959057   -1.4515618143
 H   -0.9187388665    1.8699826401   -0.0064685430
 H   -0.7472125003   -0.6540098856   -0.3194134393
 H    1.3540640999   -1.6489810557   -0.2157235987
 H    1.7769272265    1.2224417605    1.9125599737
 H    0.4636188555    0.8269583892    3.0423029434
 H    1.9492702291   -0.1388272732    3.0249220780
 H   -0.7768052901   -1.4834888074    2.6942837172
 H   -0.5416562487   -2.3333809934    1.1771431747
 H    2.4485565008   -4.0549953102    3.5988179889