18

 O   -0.1290069605    1.4441004544    0.0256138117
 C   -0.0287858999    0.0308243128   -0.0932702258
 C   -1.4163315571   -0.5219573758   -0.0019472515
 N   -2.4708583864   -0.2550188154   -1.0470857872
 C   -3.1597157898   -1.1152569082   -0.0196648679
 C   -1.8852151753   -2.0122570768    0.0642454291
 C   -1.7532958259   -2.4606296832    1.5111630829
 O   -2.1564152915   -1.2668400627    2.2156910852
 C   -2.4542909060   -0.3827476040    1.1584585829
 H    0.7451182573    1.8208775629   -0.1106204188
 H    0.4161143292   -0.2631577741   -1.0563195558
 H    0.5868711283   -0.4008104539    0.7122896995
 H   -2.7897204135    0.7144963821   -0.9538889863
 H   -4.1978254950   -1.4338678517   -0.1174931296
 H   -1.6475796462   -2.6923997209   -0.7520278354
 H   -2.4214746174   -3.2913391321    1.7692592599
 H   -0.7300986450   -2.7339402306    1.7961915137
 H   -2.7810307553    0.5914114273    1.5202322933