16

 C   -0.0399002322    1.4235936506   -0.0085607337
 N   -0.0087697259   -0.0265885254    0.0054267588
 N    0.0082559644   -0.7356852444   -1.1276309683
 C    0.0359979324   -2.0022743592   -0.7117851856
 C    0.0622401907   -3.1422745757   -1.6776559250
 C    0.0342704126   -1.9957371561    0.7041662848
 C    0.0585264908   -3.1366984303    1.6247815992
 O    0.0555469629   -3.0680584297    2.8307621242
 N    0.0052629879   -0.7168417035    1.1214909040
 H    0.8458662678    1.8070156032   -0.5199583458
 H   -0.9340674113    1.7681578743   -0.5326916815
 H   -0.0544432725    1.7594682373    1.0266581821
 H    0.9572216454   -3.7586348709   -1.5455240912
 H   -0.8067751641   -3.7956071433   -1.5497705836
 H    0.0566001978   -2.7581692047   -2.6993305021
 H    0.0811050234   -4.1205369221    1.1046936136