18

 O   -0.1687632666    1.3748127633    0.1182485327
 N   -0.0551621608   -0.0154478156    0.2823631242
 C   -1.1474562009   -0.5999849288    0.0184254803
 C   -2.5379484299   -0.1971584595   -0.4255928445
 C   -2.9175295727   -1.7135338805   -0.3937627011
 C   -1.4711519989   -2.0746585310    0.0627077486
 C   -0.6090199793   -3.1320181403   -0.6658604295
 O   -0.4474206982   -3.9098298376    0.5345281243
 C   -1.1856160038   -2.9461612094    1.3081196865
 H    0.7156170398    1.6802869278    0.3477163891
 H   -3.0709697317    0.4424582086    0.2836979196
 H   -2.5770771408    0.2833537982   -1.4073716959
 H   -3.6907211896   -1.9735046100    0.3330325153
 H   -3.1951248502   -2.1331558850   -1.3635562962
 H   -1.1259499198   -3.6917912980   -1.4563754874
 H    0.3476720514   -2.7543110556   -1.0464136606
 H   -0.5623196806   -2.4609919086    2.0689455966
 H   -2.0721344675   -3.3868022080    1.7828799379