25

 C    0.0933937812    1.5767057478    0.2341268428
 C   -0.0020299744    0.0502437726    0.2977775325
 C   -1.3343567177   -0.4901783065   -0.2412021066
 C   -1.4427271189   -2.0019873270   -0.1726055510
 O   -0.4728303014   -2.6778856898   -0.9421172563
 C   -1.8939335133   -2.6895480389    1.0987098967
 C   -2.7629499931   -2.7166470655   -0.1491859446
 C   -4.1128344198   -2.0306300645   -0.1939654120
 C   -5.2386479857   -2.9261943520    0.3378462469
 H    1.0554828433    1.9331869865    0.6152071998
 H   -0.0113719810    1.9366717547   -0.7952989787
 H   -0.6962311016    2.0481237628    0.8298616632
 H    0.8243222769   -0.3843616639   -0.2794289133
 H    0.1312909228   -0.2856020059    1.3346516763
 H   -2.1575033713   -0.0362658395    0.3216870477
 H   -1.4555233068   -0.1764510894   -1.2866129390
 H    0.3717873564   -2.5995942694   -0.4859791021
 H   -1.3843955685   -3.6026184340    1.3867063757
 H   -2.2199099885   -2.0684317626    1.9283458188
 H   -2.7278414605   -3.6592185201   -0.6906189867
 H   -4.0855232210   -1.1040495349    0.3907479097
 H   -4.3395517301   -1.7337260650   -1.2264230168
 H   -6.2053058859   -2.4143854399    0.2983604726
 H   -5.3228977204   -3.8454194028   -0.2520364513
 H   -5.0517659007   -3.2170636027    1.3769358955