13

 O   -0.0426656180   -0.0980230726    0.0038867717
 C   -0.0392222030    1.1239121900    0.0097395270
 C   -1.2524321592    1.9486947181    0.0311488114
 C   -1.1758353607    3.2881266128    0.0367134485
 O   -0.0155674211    3.9834970623    0.0236814439
 C    1.1556107214    3.2794846709    0.0035697446
 C    1.1879244831    1.9279162537   -0.0036018624
 C    2.3001593347    4.1181422511   -0.0084771937
 C    3.2803652381    4.8149822528   -0.0188891737
 H   -2.2187452485    1.4602610330    0.0424826430
 H   -2.0237177576    3.9617955003    0.0521255548
 H    2.1424170221    1.4178647842   -0.0196460008
 H    4.1476942487    5.4289145635   -0.0280916245