17

 C   -0.3796355757    1.3797725612    0.0344975512
 C   -0.0505430101   -0.1022960051    0.0938997890
 C    1.2355683835   -0.5897447661   -0.6330164751
 O    2.0546878873    0.0518683296    0.4347725970
 C    0.9383232006   -0.5757731181    1.2068118977
 C    0.9007461492   -0.4509562006    2.7034097081
 O   -0.0310022625   -1.3721855706    3.2432296739
 C    1.2483407876   -1.8100892183    0.3200926710
 O    1.4934631597   -2.9710172847    0.3863295385
 H    0.5206324029    1.9837252253    0.1631630672
 H   -0.8359440893    1.6341940162   -0.9271684024
 H   -1.0948800339    1.6445926141    0.8198660147
 H   -0.9321371845   -0.7375118020   -0.0411849839
 H    1.5579147662   -0.4524275519   -1.6628921085
 H    1.9177741680   -0.5948725139    3.0972175060
 H    0.5659705976    0.5467656452    3.0048592255
 H    0.2946786735   -2.2604137805    3.0584736502