18

 C   -0.1191705678    1.5553036551   -0.0364979820
 C    0.0426180800    0.0468454178    0.0319191969
 O    0.8265869950   -0.4041526844   -1.0912959227
 C    1.5265192300   -1.5512421328   -0.6631628216
 C    2.5892273565   -1.4050848314    0.4103496528
 C    2.3086271847   -0.1342800744    1.2097300382
 C    0.7932747753   -0.5323833894    1.2380416132
 C    1.1897446888   -1.9486691897    0.7311362321
 H    0.8440217534    2.0665223918    0.0408330580
 H   -0.5796797177    1.8419649452   -0.9861390201
 H   -0.7664584375    1.9038701027    0.7747618681
 H   -0.9538413848   -0.4251515764   -0.0221471506
 H    1.6759918004   -2.2880487468   -1.4433859301
 H    3.5303429048   -1.9413211645    0.3596495229
 H    2.7474520746   -0.1822113311    2.2092437818
 H    2.5735669331    0.8218961038    0.7479111060
 H    0.2704868733   -0.4363229448    2.1889932868
 H    0.8476453479   -2.9146092608    1.0775269402