19

 C    0.0348314688    1.5155122707    0.1225404008
 C    1.3460580839    0.7659525290   -0.0185862590
 C    1.9973063035    0.4658988762    1.2976414390
 C    1.2586005787   -0.3890323581    2.0035658005
 C    1.0626090329   -0.7537639440    3.4434253429
 C   -0.4871131635   -0.9900204924    3.4755133661
 O   -1.0165665340   -0.6057582090    2.2033534257
 C    0.0217022621   -0.8335021366    1.2493788330
 C    0.0165493590    0.0143441127   -0.0066226059
 H   -0.2008938742    1.9536258353    1.0857849771
 H   -0.3211242380    2.0754421061   -0.7360469323
 H    1.9271012498    0.8851624873   -0.9264033986
 H    2.8681910943    1.0053804908    1.6546089980
 H    1.5975151408   -1.6671321070    3.7274456406
 H    1.3778378446    0.0376357975    4.1281299369
 H   -0.7054245051   -2.0501246568    3.6726183604
 H   -0.9941431820   -0.3915722163    4.2369355863
 H    0.0461775066   -1.9065511954    0.9874601669
 H   -0.3780355585   -0.4130461001   -0.9196441984