12

 O    0.0562274754    1.4085276768   -0.0262051974
 C    0.0438231298    0.0131803814    0.0189387251
 C   -0.4956740831   -0.6857565094    1.2206857395
 C   -1.3115516184   -0.6548316378   -0.0773927725
 C   -2.5435561510    0.1724035799   -0.1004842188
 O   -3.5462969367   -0.1342828585   -0.6975751210
 H    0.7585236709    1.7193825469    0.5548308526
 H    0.8458092747   -0.4730846930   -0.5359248008
 H   -0.0755789697   -1.6365326957    1.5275363183
 H   -0.8620105274   -0.0587092663    2.0275697912
 H   -1.3795500743   -1.5670439374   -0.6589404777
 H   -2.4836801502    1.1101028831    0.4910427914