17

 N    0.0166534686    1.2958609713   -0.1502735485
 C   -0.0682337319   -0.0600800983   -0.0096861238
 N   -1.1305816717   -0.7597824714    0.1390863864
 C   -0.7009986293   -2.1439574926    0.1108213578
 C   -1.4984924036   -3.0589993793    1.0025991690
 O   -2.8585678608   -3.0949107355    0.6105794873
 C   -0.0617590849   -2.6053899658   -1.1855277252
 C    0.8014538633   -2.0927793706   -0.0638522254
 O    1.1296621000   -0.7079465651   -0.1012706145
 H    0.8924648972    1.7057979350    0.1365829080
 H   -0.8059467993    1.7929265086    0.1539376960
 H   -1.1201801933   -4.0847553601    0.9397586373
 H   -1.3951151651   -2.7241068393    2.0475874391
 H   -3.1252104475   -2.1733539114    0.5051511429
 H   -0.0217120799   -3.6759992339   -1.3586546368
 H   -0.1831965908   -1.9943417386   -2.0738763382
 H    1.5549266689   -2.6871365630    0.4367361986