17

 C    0.5004173219    1.4720398680   -0.3424253671
 C    0.0325394808    0.0642811483    0.0243839962
 O    0.3028573400   -0.8635456599   -1.0456435200
 C    1.2574235013   -1.8015410972   -0.6482457982
 O    2.5301012673   -1.5476036661   -1.2822183604
 C    2.7008027652   -2.0441438412   -2.5250294641
 O    3.6796822589   -1.8341287481   -3.1752276394
 C    1.4287785754   -1.6098395957    0.8311940893
 C    0.7420437991   -0.5381876530    1.2064635413
 H    1.5811223124    1.4821993661   -0.5065751791
 H    0.0026976734    1.8057187041   -1.2567308371
 H    0.2568811055    2.1773383137    0.4589084345
 H   -1.0563204858    0.0672839859    0.1718887155
 H    0.9257300581   -2.8014580307   -0.9590110241
 H    1.8495224932   -2.6665411070   -2.8623161792
 H    2.0654873474   -2.2434255270    1.4325256621
 H    0.6916043559   -0.1110231904    2.1997000899