16

 C   -0.2142598248    1.5247772437    0.0446370541
 C   -0.0111007465    0.0027816075    0.0145834156
 C    0.7810146645   -0.4918930681    1.1826770404
 N    1.9546317922   -0.0436795708    1.5871530318
 C    2.2373014726   -0.8272926508    2.6756041797
 N    1.3032674105   -1.7321654116    2.9644437443
 N    0.3880149014   -1.4965389921    2.0004917056
 C    3.4247547283   -0.6947225743    3.4414379088
 C    4.4335920993   -0.5751586864    4.0839082482
 H    0.7513639681    2.0331735953    0.0883618925
 H   -0.7464011469    1.8572271738   -0.8508583811
 H   -0.7944711599    1.8271748914    0.9213719409
 H   -0.9773972582   -0.5140733259   -0.0108835835
 H    0.5162106723   -0.2771861493   -0.9052172836
 H   -0.4534978229   -2.0495260143    1.9692692451
 H    5.3245988999   -0.4699193382    4.6518842612