21

 C   -0.3985789801    1.4699117451   -0.2671822848
 C    0.1338863586    0.0879815859    0.0590628730
 O    0.7144419217   -0.4525611753   -1.1448227976
 C    1.2424738629   -1.6887598911   -1.0383132854
 O    1.2437476933   -2.3272367555   -0.0123898010
 C    1.8234737282   -2.1686520534   -2.3421499172
 C    3.2819443911   -2.7210165668   -2.2929340530
 C    2.8420282302   -3.8854867237   -3.2175817645
 C    1.3724836920   -3.5815417983   -2.8270020235
 H    0.4048387648    2.1271706866   -0.6117514126
 H   -1.1609892502    1.4204228021   -1.0497929444
 H   -0.8490469486    1.9149580415    0.6250195849
 H    0.9005970278    0.1163038842    0.8398331023
 H   -0.6561896908   -0.5862986187    0.4045661856
 H    1.6974693671   -1.4094238139   -3.1150934452
 H    4.0767894965   -2.0565171600   -2.6384670728
 H    3.5148099011   -3.0708162782   -1.2842970269
 H    3.0370574265   -3.6645620871   -4.2708937582
 H    3.2286543286   -4.8820600381   -2.9941073104
 H    1.0475433715   -4.1827105514   -1.9743960797
 H    0.6101133878   -3.6188032741   -3.6081152987