20

 C   -0.0141241542    1.4449703612   -0.0749768019
 C   -0.0246030995   -0.0659438947    0.0166519828
 C   -1.3684742216   -0.7155319478    0.5238163182
 C   -0.5681400726   -1.4244808235    1.6238160524
 C    0.6872947848   -0.6747197967    1.2491842567
 N    0.6256114903   -2.1143096295    1.1645580318
 C    0.8045085296   -2.7556097762   -0.1408927150
 C    0.3233884365   -1.9620167976   -1.3721108553
 O    0.4781727799   -0.5601032040   -1.2177845026
 H    0.9958891927    1.7968894254   -0.3076780729
 H   -0.6863303292    1.7871729610   -0.8674002832
 H   -0.3284979664    1.8930308976    0.8721699397
 H   -2.0207873221    0.0541677280    0.9450221967
 H   -1.9559847196   -1.3251924829   -0.1653705270
 H   -0.9385024464   -1.6791138842    2.6106439479
 H    1.4485613079   -0.1996072056    1.8607580000
 H    1.8828748545   -2.9323193084   -0.2267290165
 H    0.3174649148   -3.7365689577   -0.1199474274
 H    0.9225274849   -2.2391407463   -2.2446522998
 H   -0.7224777842   -2.2027456383   -1.6086075646