14

 C    0.0702795768    1.4182718413    0.0199725749
 C   -0.0375087447   -0.0620795574   -0.0163546255
 N   -1.1130683813   -0.7764206551   -0.1917213551
 C   -0.6823560441   -2.0861499396   -0.1445136702
 N   -1.5518654370   -3.1172252629   -0.3487942190
 C    0.6770626203   -2.1027539551    0.0689965779
 O    1.0870234953   -0.7758292626    0.1475308544
 C    1.6030088421   -3.1395113610    0.2111405126
 N    2.3289468107   -4.0392543474    0.3270045252
 H    0.7355208688    1.7768738274   -0.7717883337
 H   -0.9196444300    1.8525847363   -0.1170815551
 H    0.4849844029    1.7533807381    0.9757714466
 H   -2.5215755092   -2.8930537841   -0.1883153488
 H   -1.2673182605   -4.0298003978   -0.0291017844