12

 C   -0.0968094718   -1.2124114147    0.0115665242
 C   -0.0581436942   -0.0135147685    0.0290528524
 C   -0.0054179797    1.4224662209    0.0193496005
 N    0.5212508507    2.0902667767    1.2294958316
 C    1.3253561171    2.1691816476    0.0131009840
 C    2.5694392159    1.4401256620   -0.0069703095
 N    3.5740159140    0.8723066161   -0.0576868934
 C   -1.0756905949    2.0872037698   -0.6998611085
 N   -1.9279928284    2.6410570775   -1.2500557433
 H   -0.1254985209   -2.2750062905    0.0043137351
 H    0.0342019170    2.9694048572    1.3924854144
 H    1.3394440952    3.0973315758   -0.5519982676