17

 N    0.0030373264   -1.1128482965   -0.0775469811
 C    0.0142511932    0.0407350210   -0.0021098308
 C    0.0095947860    1.4889299037    0.0440679782
 C   -1.1849408556    2.1271972513   -0.6573660339
 C   -1.1311896108    3.6673053626   -0.6848032308
 C    0.2398612237    4.1928126355   -1.0223105175
 C    1.3525267777    3.5198721852   -0.7224210592
 C    1.3283651243    2.2126600050   -0.0194996822
 N    0.6075733233    2.0550845387    1.2638630198
 H   -1.1969204450    1.7465074777   -1.6851687389
 H   -2.1139763077    1.7903207944   -0.1868063108
 H   -1.8666962565    4.0325304813   -1.4088320494
 H   -1.4593553845    4.0727468404    0.2830878043
 H    0.3048982995    5.1588917803   -1.5136893784
 H    2.3293021452    3.9178328735   -0.9789027369
 H    2.2351730511    1.6181606281   -0.0657473382
 H    0.1406362098    2.9270291479    1.5049686457