15

 C    0.0963376934    1.4005947867   -0.0657201037
 N    0.0758517433   -0.0389601875   -0.0126673276
 N    0.1251817161   -0.8031873897   -1.1607493401
 C    0.0900705339   -2.0341744848   -0.7475362420
 C    0.1213347310   -3.2284999930   -1.6330711527
 N    0.0204328628   -2.0936991023    0.6249114231
 C    0.0089669893   -0.7919452172    1.1404588114
 O   -0.0457823940   -0.4324216633    2.2990375164
 H    1.0164826610    1.7600212286   -0.5365168608
 H   -0.7621890586    1.7819935913   -0.6269505238
 H    0.0483286461    1.7571295366    0.9645784860
 H    0.1755475037   -2.8979619556   -2.6711525190
 H    0.9900447152   -3.8613614072   -1.4196780524
 H   -0.7766599958   -3.8434857450   -1.5062224466
 H   -0.0204564972   -2.9125718176    1.2060693318