17

 C   -0.0086155483    1.4765187015   -0.0326236797
 N    1.2395307630    0.6782203188    0.0375737837
 C   -0.0594728078    0.0043032810   -0.0014021253
 C   -0.5312899444   -0.8924734900    1.1607103589
 C   -1.0964390061   -2.0286848661    0.2787336111
 C   -0.0019227458   -2.2663425171   -0.7870600428
 C   -0.5193008229   -0.8618377690   -1.1741464227
 O   -1.8501514750   -1.2736594246   -0.7313408504
 H   -0.2312385890    2.0480803416    0.8644889462
 H   -0.2530729662    1.9839225820   -0.9631194136
 H    1.6809952181    0.6494852008   -0.8800117400
 H    0.2918058652   -1.2011676543    1.8099504974
 H   -1.3166303222   -0.4310333383    1.7636702671
 H   -1.6617934848   -2.8333159224    0.7474896317
 H    1.0376274015   -2.3856652897   -0.4712046094
 H   -0.2982849945   -3.0234871344   -1.5132268075
 H   -0.4792503608   -0.4479936598   -2.1829226547