12

 N    0.0834342082    1.4123820299    0.0547005499
 C   -0.0107177209    0.0463112923   -0.0388879959
 N   -1.1972585336   -0.4816475181   -0.0805842758
 O   -1.2278440997   -1.8777256365   -0.2956890710
 C   -0.1200597946   -2.6449183979   -0.4081524246
 O   -0.1938253206   -3.8280822655   -0.5917633266
 C    1.1532289753   -1.8769202160   -0.2763082038
 O    2.2486582675   -2.6166081706   -0.3431572516
 N    1.2086929606   -0.6060707654   -0.1089690920
 H    0.9242613631    1.7505034064    0.4956149399
 H   -0.7671486350    1.8866641561    0.3174514962
 H    3.0072927099   -2.0192878248   -0.2499507947