19

 C    0.0885435210    1.5584383750   -0.0778021167
 C   -0.0251904768    0.0594786883    0.0655440666
 C   -1.3064447875   -0.5676840002   -0.4583920248
 C   -1.2828420865   -2.1034258860   -0.3794118641
 C   -0.9684182691   -2.5912555890    1.0228450830
 O   -1.6277596223   -3.4323752053    1.5867569362
 C    0.2515739751   -1.9649382429    1.7017697013
 C    0.7259381776   -0.6532430788    1.1134516311
 O    1.1712085659   -0.6774342986   -0.2508988588
 H    1.0425120372    1.9145301760    0.3184337070
 H    0.0263388398    1.8482890442   -1.1324046801
 H   -0.7233403140    2.0633276061    0.4565944568
 H   -2.1520239887   -0.1702424893    0.1177763662
 H   -1.4657615475   -0.2546161620   -1.4972138012
 H   -2.2329230499   -2.5396898276   -0.6942039577
 H   -0.4915278168   -2.4718151578   -1.0428000992
 H    0.0162338223   -1.8458374130    2.7643536969
 H    1.0688468594   -2.6978780079    1.6516510073
 H    1.3702844807   -0.0658372412    1.7691157602