19

 C    0.1539712942   -1.4317688382    1.0666367957
 O   -0.3081877714   -0.8758186527   -0.1488597642
 C    0.6820501308   -0.4620864064   -1.0818135269
 C    1.5643800696    0.6714479566   -0.5215594786
 C    1.5115730155   -1.6003984432   -1.5184311285
 C    2.1863711765   -2.5247586344   -1.8864660479
 C   -0.0715879925    0.0696487148   -2.3079815667
 C   -1.4923850694   -0.1905498079   -2.5424438667
 O   -1.0341574437    1.0856272052   -2.0707810789
 H    0.8496533279   -2.2633630083    0.8945525038
 H    0.6420127974   -0.6859647950    1.7078214312
 H   -0.7305602495   -1.8089655237    1.5847924162
 H    2.1743952240    0.3273957397    0.3160650328
 H    2.2400332177    1.0399275079   -1.2980497084
 H    0.9170652980    1.4889078557   -0.1949966841
 H    2.7801460729   -3.3437885848   -2.2109278726
 H    0.5835426037    0.2487302045   -3.1609909788
 H   -1.8722731541   -0.1988793402   -3.5628329200
 H   -2.0454457177   -0.7755218596   -1.8146995475