17

 N    0.0624598205    1.3172916925   -0.0432448029
 C    0.0042122194    0.0461151198   -0.0429098209
 N   -1.1844029282   -0.6576439853    0.0377552079
 C   -2.4951821014   -0.0748102329    0.0100481789
 N   -2.8107914066    1.1414691551   -0.0891089018
 C   -3.4818543032   -1.2182173121    0.1469391267
 C   -2.6686545640   -2.4824334810   -0.1552510766
 C   -1.2295160008   -2.0779900572    0.0849538049
 N   -0.2949012594   -2.9085974602    0.2840402016
 H    1.0267169789    1.6291225212   -0.1353231762
 H    0.8724597223   -0.6142806672   -0.1257878054
 H   -1.9800601778    1.7336325644   -0.1340732539
 H   -3.8623249568   -1.2269542019    1.1740279954
 H   -4.3337777632   -1.0601413601   -0.5144885807
 H   -2.9248733021   -3.3489680026    0.4539421172
 H   -2.7698649574   -2.7772909414   -1.2058015822
 H    0.6139751397   -2.4767745012    0.4465609881