20

 C   -0.0713097469    1.4961218132    0.0171708810
 C    0.0301434980   -0.0100167036   -0.0077413217
 C   -0.5498545035   -0.8160626623    1.1318385449
 C    0.9557633147   -0.7862054528    0.9174347791
 C    1.5021555071   -1.9068967091    0.0983888686
 C    1.0050436679   -1.8966714002   -1.1416723783
 C    0.0929311163   -0.7358492348   -1.3493376358
 C   -1.0616570690   -0.7418560240   -2.2894474818
 N    0.1710026697   -0.0232233868   -2.6444300747
 H    0.7658228220    1.9692987103   -0.5086330993
 H   -1.0039276190    1.8482180313   -0.4427101676
 H   -0.0634740554    1.8668457472    1.0463372814
 H   -0.9494177879   -0.2550497216    1.9715976378
 H   -1.0701454241   -1.7434837343    0.9157399550
 H    1.5781962784   -0.2901806460    1.6550133677
 H    2.1854434162   -2.6475731667    0.4972229005
 H    1.2000028232   -2.6206490531   -1.9231963293
 H   -1.2722449041   -1.6197761198   -2.8950327172
 H   -1.9422886575   -0.1706957127   -2.0022108111
 H    0.0440325037    0.9755842555   -2.4999789892