13

 C    0.1417949551   -3.7391535505   -0.0203527893
 C    0.0831201728   -2.5316582665   -0.0128046045
 C    0.0178298962   -1.1774189060   -0.0043553229
 C   -0.0518662599    0.0353377703    0.0033602358
 C   -0.1337363967    1.4301799132    0.0123390070
 C   -1.1994948989    2.2950204030    0.0320530505
 C   -0.6563187712    3.6106734865    0.0318617221
 C    0.6971898616    3.4576065127    0.0121710786
 O    1.0372568977    2.1498466972    0.0001063012
 H    0.1934605662   -4.7995876597   -0.0269767537
 H   -2.2389231101    2.0091045673    0.0449238205
 H   -1.1975513525    4.5433149968    0.0446258798
 H    1.5206307598    4.1530078659    0.0046156849