20

 C    0.0572939158    1.5767340750   -0.1157688845
 C    0.0174457250    0.0525473083    0.0225946330
 C   -1.4044307655   -0.5158386492   -0.0135902715
 C   -1.4452299999   -2.0492373289    0.1250701302
 C   -2.8322602048   -2.6153811557    0.0775626532
 C   -3.5797195388   -3.1540699401    1.0777513118
 O   -4.7885446970   -3.5313630786    0.6323367028
 N   -4.8750537555   -3.2416169216   -0.7246036837
 C   -3.7223018446   -2.7046476719   -1.0354274543
 H    1.0844436741    1.9531381287   -0.0868092403
 H   -0.3893843566    1.9002909138   -1.0624441592
 H   -0.4985453110    2.0625144847    0.6937586448
 H    0.6109832863   -0.4050778981   -0.7801148242
 H    0.5017914743   -0.2437706910    0.9626309636
 H   -2.0041640481   -0.0684461872    0.7894267639
 H   -1.8923723551   -0.2237018234   -0.9529624045
 H   -0.8380400033   -2.4963549041   -0.6727140819
 H   -0.9686830715   -2.3402661637    1.0684870830
 H   -3.3885822869   -3.3335021832    2.1248472740
 H   -3.5501935370   -2.3951933039   -2.0575412663