18

 O    0.3039533379   -0.0363904614   -1.3903566630
 C    0.1824757477    1.0313612543   -0.8498051821
 C    1.2872711548    1.6648522939   -0.0048216407
 N    2.5196992255    0.9300571576   -0.1075712631
 C    3.2770015258    0.7870003174    1.1068270292
 C    2.7981111282   -0.0821359178    2.2561962381
 C    3.9680851501   -0.5091603804    1.3952138506
 C    1.4264979955    3.1331083914   -0.4314350149
 O    0.5455257885    3.9430637022   -0.3159351079
 H   -0.7403219269    1.6384767537   -0.9203726952
 H    0.8678892831    1.6897758305    1.0190402708
 H    2.3433064156    0.0405674954   -0.5633121690
 H    3.8137985330    1.6908001390    1.3860488511
 H    2.9926074703    0.2397131471    3.2734834711
 H    1.8648654132   -0.6194058266    2.1224105307
 H    3.8057538951   -1.3289802708    0.7024137019
 H    4.9664717933   -0.4803070111    1.8163378827
 H    2.4155393994    3.3652758255   -0.8818890203