23

 C   -0.0301576160    1.6724504919   -0.0029785762
 C   -0.0372948512    0.1405147041   -0.0310550702
 C    0.7259760335   -0.4620899626   -1.2212690557
 C    2.2864451694   -0.3049080205   -1.0707624419
 C    2.7526153530   -1.6514320372   -0.5254450147
 C    1.8222905196   -2.5664698812   -0.7694093772
 C    1.1418290321   -3.8135375991   -0.2543415026
 C   -0.1962379339   -2.9939291892   -0.3961229462
 C    0.5619845798   -2.0013076832   -1.3581088303
 H    0.9857494121    2.0764863461    0.0557468404
 H   -0.4960415539    2.0837106675   -0.9056509294
 H   -0.5847777379    2.0532269202    0.8605428894
 H    0.3846699752   -0.2482142505    0.9050748322
 H   -1.0773822687   -0.2070174854   -0.0652895674
 H    0.3813499053    0.0431355374   -2.1309570677
 H    2.7579696945   -0.0622897591   -2.0333987166
 H    2.5494679760    0.5153374581   -0.3924879022
 H    3.6697531633   -1.7749353151    0.0393800830
 H    1.1717771084   -4.6492174323   -0.9620080210
 H    1.4233763594   -4.1815462840    0.7353553774
 H   -1.0578500315   -3.5248230715   -0.8082353411
 H   -0.4764966621   -2.5272172133    0.5499540207
 H    0.3887697036   -2.2997026011   -2.3997137926