19

 C   -0.0039843758    1.3321543630    0.2136882882
 O   -0.0572594406   -0.0426178957   -0.1414692994
 C   -1.3330722388   -0.5602505098   -0.0756188116
 C   -1.9007357033   -1.0878906522    1.1990292289
 O   -3.0903056084   -0.6701440491    1.8139264426
 C   -1.7302487844   -2.0382970008    0.0288745024
 C   -2.6931645453   -1.8419207302   -1.1735768401
 C   -3.7374448445   -0.7633794974   -1.0109537705
 C   -2.3067147553   -0.3796414270   -1.2786103123
 H    1.0362925252    1.6477508725    0.1087843682
 H   -0.6330421768    1.9450624431   -0.4465232978
 H   -0.3302201597    1.4893401806    1.2508196852
 H   -1.0828745292   -1.2425630073    1.9086936023
 H   -3.4762954036   -1.4382590414    2.2499839887
 H   -1.0911567127   -2.9085855300    0.1159939801
 H   -2.7382926728   -2.5674896348   -1.9751005566
 H   -4.3841617216   -0.6551860768   -1.8783407059
 H   -4.2055620447   -0.5567151428   -0.0602607569
 H   -1.9856999877    0.1553164562   -2.1628292056