20

 C    0.0863006212    1.4599867831   -0.0530139240
 O   -0.2349530804    0.0943971841   -0.2049326811
 C    0.5264632194   -0.5725121944   -1.1757101447
 C    2.0122053417   -0.8173191291   -0.8204688526
 C    2.3996735643   -2.1444343059   -1.5310078849
 C    1.1039747645   -2.6658234626   -2.2037012957
 C   -0.0440292450   -1.9899157887   -1.4183569974
 C   -0.3115121520   -2.6865395151   -0.1573112047
 N   -0.5047925009   -3.2738051930    0.8192134899
 H    1.1076922445    1.6074938497    0.3252354238
 H   -0.0149968811    2.0066828839   -1.0038589456
 H   -0.6185233506    1.8752758215    0.6704250635
 H    0.4617305160   -0.0325683893   -2.1363280444
 H    2.6472733078    0.0190273740   -1.1210345415
 H    2.0901512275   -0.9173703599    0.2663279436
 H    3.1947663709   -2.0049987283   -2.2671969837
 H    2.7672294030   -2.8703129442   -0.8017203012
 H    1.0452226271   -2.3311440653   -3.2444837860
 H    1.0263029303   -3.7543213971   -2.2041159631
 H   -0.9774856582   -1.9497213234   -1.9866480201