21

 C   -0.0595936148    1.4798003758    0.0912543258
 N   -0.0064005090    0.0238644409   -0.0505696166
 C    0.6526370620   -0.4886276994   -1.2564300183
 C   -0.0400368240    0.0265570999   -2.5306958856
 C    2.0821366545   -0.0677237037   -1.2855314632
 N    3.1696936577    0.3207283811   -1.2238319290
 C    0.6239132566   -2.0442996168   -1.1845619970
 C   -0.7857995238   -2.6298913419   -1.1550162978
 O    1.3647923129   -2.4995818708   -2.3055711313
 H    0.9181964900    1.9742661508   -0.0157642845
 H   -0.7449388742    1.9056952924   -0.6462204922
 H   -0.4575522102    1.7128853120    1.0821187225
 H    0.4656217499   -0.3647260589    0.7605422657
 H    0.1645958976    1.0864409286   -2.6925150719
 H    0.3282230886   -0.5310926310   -3.3928431164
 H   -1.1199133903   -0.1106605162   -2.4397195994
 H    1.1444957699   -2.3213408008   -0.2522230276
 H   -0.7324604870   -3.7129503015   -0.9974632546
 H   -1.3709548108   -2.1908313340   -0.3444892876
 H   -1.3016829109   -2.4525912075   -2.1022772815
 H    1.4050366952   -3.4599213189   -2.2725787196