20

 C   -0.2871938336    1.5313936670   -0.0052030205
 C    0.0495596200    0.0453347195   -0.0118954018
 C    1.2007563881   -0.5187380421   -0.9161811119
 C    1.7656769198   -1.2522495313    0.3050606602
 C    2.1750021780   -0.2540159338    1.3705838071
 C    2.7678077189    1.0203505487    1.0610909477
 N    3.2648011004    2.0357940019    0.8120158488
 C    0.7063068123   -0.6291811034    1.2113561366
 C   -0.0589462279   -1.2069369288    2.3687204328
 H    0.5891478895    2.1534548163    0.1877162460
 H   -0.7035113889    1.8303909861   -0.9734441661
 H   -1.0396081756    1.7567026862    0.7589020571
 H   -0.8609978938   -0.5233023131   -0.2332436318
 H    0.8408369757   -1.1873946347   -1.6999010349
 H    1.8699674786    0.2213390208   -1.3646082644
 H    2.1810319743   -2.2533738854    0.3183977993
 H    2.6226148831   -0.7145332888    2.2473359543
 H   -0.4795949020   -0.4161198338    3.0005068809
 H   -0.8898966100   -1.8261734521    2.0128571367
 H    0.5784352330   -1.8326669891    3.0019047040