18

 C    0.1156165018    1.4204337422   -0.0999955255
 C   -0.0453632102   -0.0843823682   -0.0070870229
 C   -0.1140237188   -0.9288820591   -1.3617214480
 C   -0.9143686449   -1.8794479993   -0.4646497524
 C   -0.1689969296   -2.7786467836    0.2182803505
 C    0.1300973111   -2.1770006360    1.5284225177
 C    0.5659795730   -0.7265479244    1.2921222050
 N   -0.7812765698   -1.0578970827    1.8649858019
 C   -1.3405980167   -0.7627579979    0.4979686097
 H    1.1465655815    1.6932628979   -0.3537951703
 H   -0.5399325463    1.8313296899   -0.8747172607
 H   -0.1363454111    1.9022890123    0.8500197559
 H   -0.6697877691   -0.3461124983   -2.1060417258
 H    0.8037610857   -1.3225591142   -1.8034975861
 H    0.5443592867   -3.4482078621   -0.2521719713
 H    0.5565867419   -2.7008226859    2.3783554987
 H    1.3344727974   -0.2630525733    1.9020704080
 H   -2.3344804125   -0.3204810873    0.4534873656