19

 C   -0.2919310616    1.4337290610   -0.0878145099
 C   -0.0247365343   -0.0634704069    0.0767217813
 C    0.6751193174   -0.7208930605   -1.1412443206
 C    1.4658220519   -1.9254413699   -0.5830133936
 C    1.8085557445   -1.5115609862    0.8348720202
 O    2.3019604463   -0.1837037042    0.9652254652
 C    0.9004091329   -0.4068038732    1.2330351818
 C    0.5069763822   -0.2318014180    2.6543235823
 O   -0.6161244793    0.0187356007    3.0175730447
 H    0.6480472711    1.9798937966   -0.2197168503
 H   -0.9178874123    1.6214431682   -0.9658106796
 H   -0.8073327737    1.8373136184    0.7879019559
 H   -0.9739403188   -0.5745015716    0.2821105514
 H   -0.0358196782   -1.0101786353   -1.9186119415
 H    1.3698801508   -0.0020403772   -1.5837627358
 H    0.8484736087   -2.8308235397   -0.5380427778
 H    2.3551064112   -2.1643225751   -1.1742802082
 H    2.2079075743   -2.2269797245    1.5509282575
 H    1.3509275267   -0.3556735226    3.3683480770