17

 C    0.1049168665    1.4578615629   -0.1197065289
 C   -0.0478908390   -0.0496898850    0.1155158056
 C    0.6354232767   -0.8862072703   -0.9911427036
 O    2.0150515860   -0.9682690525   -0.6085824803
 C    2.0401200235   -1.0943572272    0.7868825259
 C    0.7309103819   -0.4934871616    1.3529429036
 O    0.3302857193   -1.8142562741    1.8524060213
 C    1.4708777456   -2.4194412158    1.3715367244
 O    1.7704917998   -3.5647446584    1.4458004392
 H    1.1575538283    1.7293628625   -0.2506600476
 H   -0.4331290697    1.7643173464   -1.0213999360
 H   -0.2927229110    2.0340448923    0.7215042383
 H   -1.1035406498   -0.3172808599    0.2161646286
 H    0.1978645374   -1.8920976700   -1.0532957477
 H    0.5964816730   -0.4241852441   -1.9796180433
 H    3.0132953144   -0.7878726940    1.1704219757
 H    0.7694824872    0.2254433787    2.1710383047