20

 O   -0.1550257055    1.4621457386    0.0053512978
 C   -0.0643759929    0.0389732891   -0.0973158941
 C    0.3379007201   -0.6167920359    1.2508711862
 C   -1.1810255791   -0.6483144752    1.6255851598
 O   -1.5832392845    0.5108271759    2.3338342524
 C   -1.4854936303   -0.5315237638    0.0944119926
 C   -1.7016961341   -1.8539217655    2.3643841013
 C   -1.7847155524   -1.8592202501    3.8450956154
 N   -3.0119730610   -1.8014953489    3.0279673127
 H    0.7355092506    1.8087161986    0.1287245277
 H    0.4915751659   -0.2492086500   -0.9967257052
 H    0.7466688147   -1.6217018224    1.1085718384
 H    0.9915066134   -0.0460023406    1.9165491048
 H   -1.2945242938    1.2684113967    1.8070240786
 H   -2.3147501579    0.1163880599   -0.1975745584
 H   -1.5959461764   -1.5111272690   -0.3771252160
 H   -1.5030549188   -2.7933124489    1.8511838167
 H   -1.6394336272   -2.7874174522    4.3907951052
 H   -1.4756128503   -0.9582547202    4.3648503431
 H   -3.3260458905   -0.8326966159    3.0057940110