18

 C   -0.0357178638    1.4778003980    0.0619491956
 C   -0.0004482198   -0.0147773428   -0.0698188541
 N    0.0010808705   -0.5956891079   -1.2050856456
 C    0.0093186186   -2.0732249450   -1.1640219429
 C    0.9083027357   -2.5386275155   -0.0019244427
 C    0.0025474396   -2.0732675167    1.1413488847
 O    0.0178783767   -0.6123464136    1.1583440078
 C   -1.3668590233   -2.5249945262    0.6666112006
 C   -1.3646193394   -2.5211645540   -0.6693025869
 H    0.8218236798    1.8309303188    0.6434617804
 H   -0.0224166235    1.9304822538   -0.9288588601
 H   -0.9395725194    1.7880092076    0.5968363573
 H    0.2907702007   -2.4520195376   -2.1474650781
 H    1.0231809672   -3.6248913039    0.0155405100
 H    1.8912017683   -2.0612828296    0.0032609629
 H    0.2946356661   -2.3685224046    2.1488324438
 H   -2.2133747646   -2.6841495288    1.3225559813
 H   -2.2135566092   -2.6850751419   -1.3219277941