19

 C    0.2233342785    1.4953416841    0.2696274874
 C    0.2334273887   -0.0276881125    0.1318544572
 C    0.4993407210   -0.4818122635   -1.3192567070
 O    1.7246004299    0.0316549370   -1.8328925133
 C    0.4271424779   -1.9404285918   -1.4331634845
 C    0.3848233874   -3.1463458169   -1.4959310953
 C    0.3208043519   -4.5937929305   -1.5874054224
 C    1.5954202321   -5.2736287229   -2.0446672654
 O   -0.6917989233   -5.2022497600   -1.3144091415
 H    1.1641885082    1.9223425825   -0.0859532198
 H   -0.5880730354    1.9388211519   -0.3178278808
 H    0.0806520357    1.7897469577    1.3131586927
 H    1.0048750918   -0.4676131439    0.7771257627
 H   -0.7217807278   -0.4549067197    0.4565900280
 H   -0.2733372866   -0.0460378509   -1.9660390402
 H    2.4436127975   -0.4113559569   -1.3679949383
 H    2.4173407971   -5.0323127249   -1.3618889029
 H    1.4415837658   -6.3531290563   -2.0774032012
 H    1.8835030995   -4.9045060024   -3.0349085751