16

 O    0.0213387085    0.8846740409   -1.5313596535
 C   -0.0767598461    1.3810516073   -0.4381685810
 C   -1.4322353656    1.6286356806    0.2249180610
 N   -1.2709192856    2.1469162950    1.5714826743
 C   -0.9737550095    3.5655322128    1.6386522984
 C    0.4153587300    4.0242335395    1.1804280475
 O    0.7356347697    5.1705285588    1.3345062516
 O    1.2834188975    3.1942778591    0.5546816222
 C    1.1487253927    1.7725321727    0.3929733248
 H   -2.0282156593    2.2745712700   -0.4446925986
 H   -1.9428980510    0.6607533542    0.2625352995
 H   -2.0858927478    1.9427248754    2.1348263824
 H   -1.6751689302    4.1912866197    1.0567543355
 H   -1.0545192202    3.8978315009    2.6769478510
 H    1.1163018202    1.2782081823    1.3677333204
 H    2.0408580967    1.4718060106   -0.1562419757