16

 O    0.0984177752    1.4068921165    0.0824236337
 C    0.0640166143    0.0150316960   -0.1110538002
 C   -1.3660788860   -0.5249880408    0.0252326789
 C   -1.4468966255   -2.0472287083   -0.1388938520
 C   -2.8118723439   -2.5646996549    0.2445737705
 O   -3.4189433142   -3.4480684168   -0.2764380057
 O   -3.3659880354   -1.9394647689    1.3545152181
 C   -2.7656784846   -0.8133608085    1.8665728395
 N   -1.8760466510   -0.1033889145    1.3302298339
 H   -0.3936757365    1.5687917246    0.8984833599
 H    0.4458449747   -0.1858068513   -1.1175950246
 H    0.7108847935   -0.5171414104    0.6075257669
 H   -1.9790267667   -0.0281946425   -0.7401606366
 H   -1.2286298127   -2.3779887125   -1.1555634375
 H   -0.7174790545   -2.5217792785    0.5323849534
 H   -3.1972902467   -0.5727232992    2.8341869218