22

 C   -0.1104790056    1.5201453740   -0.0461885768
 C   -0.0289502618    0.0057829041    0.0465887155
 O   -1.3398297511   -0.5195932329    0.0016981294
 C   -1.3812643919   -1.9259166839    0.0762057093
 C   -2.8490997457   -2.3590906815    0.0444828284
 C   -3.0117620074   -3.8554645545    0.0073379108
 C   -2.6248901838   -4.6292118668   -1.2259324551
 N   -3.4859544601   -4.3978496374    1.0641663050
 O   -3.5843621676   -5.7937284183    0.9284985084
 H    0.8911690177    1.9590820452   -0.0133992581
 H   -0.5920659419    1.8217008671   -0.9807038610
 H   -0.6947161117    1.9240123451    0.7854661875
 H    0.5725354580   -0.4011851841   -0.7845485841
 H    0.4710799867   -0.2985967119    0.9818602567
 H   -0.8224924057   -2.3715951647   -0.7651108476
 H   -0.9060206458   -2.2837719211    1.0048253519
 H   -3.3578175531   -1.9625245434    0.9260540491
 H   -3.3144105204   -1.9137830757   -0.8439317722
 H   -1.7744397609   -5.2883081858   -1.0198629436
 H   -3.4490276766   -5.2784553940   -1.5365810206
 H   -2.3612365680   -3.9630509614   -2.0497111781
 H   -3.9738997134   -6.0497451879    1.7709245053