21

 C   -0.0785512040    1.5374915449    0.0445113420
 C    0.0804508877    0.0174473453    0.0441492008
 C    1.0425556803   -0.5468445163   -1.0665168115
 C    2.0245116949   -1.3499018819   -0.1863913513
 C    1.0637432119   -2.0369346512    0.8350395084
 C    0.7913200091   -0.5686939831    1.2913100247
 C    2.2720504695   -0.3515822687    0.9491426742
 C    3.4334167555   -0.1444511052    1.8023603024
 O    2.9821024180    0.8666538139    0.8735515132
 H    0.8869790383    2.0368813738    0.1607779091
 H   -0.5303400072    1.8808265919   -0.8926097561
 H   -0.7284091152    1.8646182105    0.8639821555
 H   -0.9103983001   -0.4415205926   -0.0510267037
 H    0.5254859729   -1.1767071974   -1.7955844968
 H    1.5518438102    0.2562901400   -1.6076322328
 H    2.8365416941   -1.8857537791   -0.6771976332
 H    0.2161941938   -2.5928103091    0.4268919841
 H    1.5894378918   -2.6319774158    1.5844305422
 H    0.3764397032   -0.3287113231    2.2704515277
 H    3.3040820246    0.1056301454    2.8547377987
 H    4.3880325409   -0.6052697320    1.5514407623