23

 C   -0.2489155365    1.5273111049   -0.0252087701
 C    0.0679371299    0.0355332797    0.0141483024
 C    0.8860911743   -0.4841840920   -1.1925308657
 C    1.6552095914   -1.7344749821   -0.6849174564
 C    1.2611494670   -1.9062512929    0.8018744469
 C    2.3005821176   -2.6225685293    1.6584980954
 C    0.8808629861   -0.4627555599    1.2453438071
 C    2.0509088898    0.3670632586    1.5186681587
 C    3.0186386340    1.0491930853    1.7343165951
 H    0.6691707402    2.1224791685   -0.0186115350
 H   -0.8105659051    1.7788169130   -0.9312148564
 H   -0.8533794963    1.8325169137    0.8358332942
 H   -0.8792576753   -0.5187381144    0.0500642142
 H    0.2370505249   -0.7041725432   -2.0451165674
 H    1.5881553399    0.2887729813   -1.5217752610
 H    1.4258648521   -2.6352314916   -1.2616221935
 H    2.7357616739   -1.5762979218   -0.7634159486
 H    0.3243790812   -2.4775371055    0.8442376160
 H    3.2412848183   -2.0642262080    1.6805098775
 H    1.9565264033   -2.7420446461    2.6915861863
 H    2.5074026406   -3.6214240259    1.2596673204
 H    0.2524072815   -0.4842947346    2.1441430169
 H    3.8682809272    1.6532068724    1.9362681130