19

 C   -0.0370355967    1.5586114414    0.0144103772
 C    0.0146558038    0.0292549153    0.0171389198
 C    0.6448734250   -0.5213121279   -1.2694618513
 C    0.7086738831   -2.0295606000   -1.2882504461
 N    0.5795140294   -2.6688248555   -2.3815989833
 N    0.9319328000   -2.6233529462   -0.0416279079
 C    0.9742027372   -2.0192517095    1.2092492777
 O    1.1486296428   -2.6849595289    2.2061330962
 C    0.8005743476   -0.5109406461    1.2192771165
 H    0.9703053759    1.9846256896   -0.0609635319
 H   -0.6218910389    1.9314565108   -0.8323133846
 H   -0.4934668361    1.9405345835    0.9331433661
 H   -1.0140017719   -0.3513198154    0.0826035091
 H    0.1047659213   -0.2050524767   -2.1635690835
 H    1.6698199843   -0.1329769619   -1.3590772062
 H    0.6683156320   -3.6785122776   -2.2449328830
 H    1.0263329463   -3.6311191949   -0.0079637583
 H    1.8071597791   -0.0687873855    1.2305652642
 H    0.3355951558   -0.2505023344    2.1732342591