15

 N   -0.0008852625   -1.2013142717    0.0233288154
 C   -0.0209127332   -0.0466244480    0.0602481291
 C   -0.0156830850    1.4138187701    0.1006502095
 C    1.4051054665    2.0015874089   -0.0992836035
 C    1.4085479211    3.4980000598   -0.0464001990
 C    1.5134372152    4.3924170958   -1.0664523864
 O    1.4598357459    5.6505236449   -0.6100304147
 N    1.3128107697    5.6224895206    0.7723280320
 C    1.2836772020    4.3533763471    1.0899465993
 H   -0.6888988627    1.7930567768   -0.6755081154
 H   -0.4287781208    1.7406528524    1.0611508541
 H    2.0664962660    1.5917490707    0.6709176557
 H    1.7973323888    1.6597463115   -1.0612101374
 H    1.6359478107    4.2827753518   -2.1333600878
 H    1.1809677782    4.0782127694    2.1310807290