19

 C   -0.1524273050    1.3185675550   -0.0175984162
 O    0.3235360307   -0.0035077726    0.1439823763
 C    0.7402254250   -0.6000464563   -1.0457015829
 C    1.3794636478   -1.9660559689   -0.8732257945
 C    0.3715516616   -2.9635774874   -0.3708790653
 C    0.3590103736   -2.5980382799   -1.8235118914
 C   -0.3517095273   -1.2456479257   -2.0252783438
 C   -1.7531267354   -1.1584417705   -1.6652843871
 C   -2.9147520623   -1.0906092046   -1.3584879009
 H    0.6248884457    1.9739956013   -0.4410502029
 H   -1.0385981495    1.3570204528   -0.6636925780
 H   -0.4217651565    1.6859629878    0.9752521165
 H    1.3753146316    0.0884997525   -1.6218209373
 H    2.4458611843   -2.1394135213   -0.8028383160
 H    0.7779699940   -3.9436868009   -0.1443934535
 H   -0.4351561207   -2.6453597870    0.2813459308
 H    0.5253334714   -3.3193599014   -2.6131009745
 H   -0.2021576061   -0.8612775960   -3.0385881089
 H   -3.9402432430   -1.0342558469   -1.0891484903