23

 C   -0.1141375824    1.5592890562    0.0671973623
 C    0.0032072677    0.0340033662   -0.0036699927
 C    0.7560988835   -0.5645583807    1.1795314810
 O    0.0566969680   -0.2380482107    2.3830111452
 C    0.4175248091   -1.1841537574    3.3838995168
 C    0.6728892486   -2.4803725816    2.6383171541
 C   -0.3503380260   -2.8367768731    1.5880427139
 C    0.9019402355   -2.0871292100    1.1967714531
 C    1.9489958605   -2.7200831628    0.3143738076
 H    0.8745819625    2.0319179054    0.0771684315
 H   -0.6629129185    1.9528523987   -0.7938775521
 H   -0.6380460839    1.8626702472    0.9770421523
 H   -0.9937993219   -0.4190159891   -0.0486186227
 H    0.5261374301   -0.2588341632   -0.9228660671
 H    1.7735076599   -0.1294643207    1.2124522816
 H    1.3271532186   -0.8684809790    3.9215090834
 H   -0.4081081071   -1.2274570718    4.1026511866
 H    1.2574481494   -3.2585002183    3.1163303550
 H   -0.4139127350   -3.8772102534    1.2876525719
 H   -1.2987876468   -2.3089419780    1.5987199496
 H    1.7105063758   -2.5914519042   -0.7480338723
 H    2.9370066779   -2.2770069757    0.4876473666
 H    2.0275465547   -3.7950209542    0.5038037643