21

 C   -0.0091392499    1.5428663143   -0.4049291019
 C   -0.0023816893    0.0633708361   -0.0838008035
 C    1.2550834021   -0.7354065483   -0.1192775157
 N    0.5641392895   -0.5000973093    1.1479319259
 C    1.2077525485    0.3615688260    2.1180860051
 C    0.3062131305    0.9400143241    3.2400836554
 C    1.4397289713    0.6278525566    4.2547532301
 C    2.0414815998   -0.3555469532    3.2135657966
 H    0.9480396157    2.0237539685   -0.1909825082
 H   -0.2192048354    1.6879961618   -1.4700816057
 H   -0.7880781613    2.0676828760    0.1592029109
 H   -0.9207651742   -0.4450250137   -0.3759202379
 H    1.2637318256   -1.7615136031   -0.4782960093
 H    2.1788534718   -0.1856384469   -0.3015174071
 H    1.8090794369    1.1628350650    1.6604020775
 H   -0.0337556065    1.9740913663    3.1427712691
 H   -0.5606652175    0.2907920227    3.3910254142
 H    2.0875446176    1.4926943782    4.4240876916
 H    1.1499050675    0.2194945295    5.2250432677
 H    1.6680386303   -1.3731949259    3.3559983565
 H    3.1273090072   -0.3849391949    3.0945523584