18

 O   -0.0861091893    1.4565332005    0.0163807544
 C    0.0108365405    0.0430438018   -0.0510535320
 C   -1.3666654466   -0.5714272680   -0.1554169501
 C   -1.9629323785   -0.8389195089   -1.4905533078
 C   -0.9218158174   -0.9009629801   -2.6243198707
 C    0.1799118957    0.1775566187   -2.5851130002
 C    0.7220475397   -0.5156690794   -1.2998708864
 C   -0.1217963763   -1.7953867036   -1.6501512296
 N   -1.2981493440   -1.9458751909   -0.6856293204
 H    0.7959643128    1.8097332490    0.1689919579
 H    0.4922819326   -0.3469349890    0.8595650095
 H   -2.0497938491   -0.4427210884    0.6786939033
 H   -3.0389124966   -0.8228373687   -1.6343481312
 H   -1.3138596386   -1.2637838862   -3.5740357486
 H    0.8687215056    0.0698495221   -3.4274293278
 H   -0.1170831584    1.2231115538   -2.4821937279
 H    1.8030841560   -0.6077632006   -1.1833490058
 H    0.3694588820   -2.7287810519   -1.9153639666