17

 C   -0.0673782228    1.5927917330   -0.0039107434
 C    0.0389618350    0.0678151085    0.0474981757
 C    0.7844842322   -0.5700448416   -1.1772656154
 C    1.4911001602   -1.8762226918   -0.6851436958
 C    1.6589077408   -1.5814589811    0.7735517500
 N    2.3353415017   -2.0291247189    1.7860431829
 O    1.9472802246   -1.2202702899    2.8415890260
 N    1.0201576672   -0.2691465254    2.4482967505
 C    0.8460378662   -0.4938200857    1.1823980386
 H    0.9257499525    2.0514099371   -0.0415484565
 H   -0.6243289815    1.9104475405   -0.8907226007
 H   -0.5834127261    1.9791789891    0.8792046510
 H   -0.9734889963   -0.3549536123    0.1075301063
 H    0.1107036720   -0.7526689597   -2.0174546250
 H    1.5477172194    0.1374242440   -1.5198263703
 H    0.8497045648   -2.7543213224   -0.8243064733
 H    2.4291711502   -2.0733921836   -1.2085229904