15

 O    0.0352921845    0.0080350079    0.1414874868
 C   -0.0551608441    1.1872368120    0.0089980622
 C   -1.1658528536    2.2288302445   -0.0554097529
 C   -1.3881054910    2.8937596726    1.3571612306
 C   -0.1601969065    3.8416914714    1.1272641810
 N    1.0594765713    3.4232530589    1.8491628384
 C    1.6187122533    2.5244860140    1.1468178446
 N    0.9988310544    2.2031687009   -0.1134172669
 C   -0.0320124637    3.2702541157   -0.3030773376
 H   -2.0385114038    2.0477921838   -0.6805339572
 H   -2.3303564186    3.4451615598    1.3684479300
 H   -1.3429648672    2.2404327440    2.2295792190
 H   -0.3507550532    4.9045384397    1.2662167937
 H    2.4992708478    1.9711445731    1.4538593341
 H    0.0923736403    3.8822937316   -1.1943449560