15

 O   -0.1711886279    0.0454491854    0.0796312975
 C   -0.0280219248    1.2219176089    0.0126440756
 O   -1.0112613878    2.2022372609    0.0825139084
 C   -0.0657968463    3.2788256474   -0.2182320168
 C    0.4201412683    4.0439752122    1.0335336390
 C    1.5688370934    3.0189523781    1.1590517661
 O    2.7671609957    3.3736090079    0.4333308761
 C    2.4854216069    2.4210889976   -0.6283763211
 C    1.0756824319    2.2384286813   -0.1086880069
 H   -0.3477520541    3.7986112549   -1.1330221717
 H    0.7754155358    5.0577087964    0.8382400260
 H   -0.3018960191    4.0525145803    1.8527854830
 H    1.7856093641    2.5485494587    2.1210758506
 H    2.6032162884    2.8582813212   -1.6251109571
 H    3.1129302754    1.5252985887   -0.5413069290