16

 O   -0.2106451645    1.3382065483    0.0378783015
 N   -0.0449791743   -0.0649218882    0.1518794151
 C   -1.1637410290   -0.6536834687    0.0835764851
 C   -1.5120598276   -2.0939401657    0.0193941670
 C   -2.9263960164   -2.2135766120    0.6328463032
 C   -2.7710337541   -1.7451772719   -0.7786462663
 C   -2.6142469598   -0.2845699025   -0.1699115450
 C   -3.3276334696   -0.8255730263    1.1185890265
 O   -4.7315751297   -0.7173269468    1.0856355508
 H    0.7002818966    1.6463340863    0.0814887233
 H   -0.8618987256   -2.9513687743   -0.0801031503
 H   -3.2913369001   -3.1676729463    0.9911650853
 H   -3.1099505348   -2.1143350416   -1.7338840042
 H   -2.8994653189    0.6608065955   -0.6209703311
 H   -2.9178916630   -0.4748422779    2.0769221025
 H   -4.9638118491    0.1949796720    1.2870088268