15

 O    0.0024266073    1.3533041305   -0.2076762609
 C   -0.0343099519   -0.0299282650   -0.0676420557
 C   -0.5114152632   -0.6558969679    1.2319814259
 O   -1.0475495833    0.2315079006    2.1841119208
 C   -2.2144943893    0.7986295853    1.7221355497
 O   -2.8092210750    1.6138318375    2.3565431972
 C   -2.5563242191    0.2159104561    0.3494098606
 C   -1.3930514856   -0.6950778672    0.0124980121
 O   -1.6181173766   -1.9093720523   -0.6247921285
 H    0.5954888309    1.7153121420    0.4604942850
 H    0.7294492323   -0.5943946303   -0.6029848798
 H   -0.0301643910   -1.5243897379    1.6626829357
 H   -3.4806229305   -0.3648278681    0.4229940285
 H   -2.7134381699    1.0386099870   -0.3511571367
 H   -1.6868578652   -1.7456658602   -1.5723567239