19

 C   -0.1977485748    1.4276983649    0.0973244454
 C    0.0074952138   -0.0842450966    0.0634462459
 C    0.9799375111   -0.5810652444   -1.0617903946
 C    2.0295499932   -1.2504347444   -0.1543933298
 C    1.1853437952   -2.0827156179    0.8327376864
 C    0.8377319447   -0.6262308271    1.2592652630
 O    2.2050585274   -0.2504491942    0.9043971464
 C    0.4449232585   -0.3230925728    2.6726691894
 O   -0.6992090049   -0.2330661767    3.0421339396
 H    0.7627897673    1.9388225210    0.2166801963
 H   -0.6534996890    1.7777124091   -0.8343334604
 H   -0.8534929925    1.7185101891    0.9232248412
 H   -0.9597218220   -0.5920183829    0.0181508796
 H    0.5185334196   -1.2779708016   -1.7664212009
 H    1.4133754407    0.2493703194   -1.6242549340
 H    2.9649918956   -1.6047271486   -0.5867439569
 H    0.3828455502   -2.7221696951    0.4585104757
 H    1.7997013358   -2.5917593429    1.5761922055
 H    1.3041047299   -0.2191146982    3.3713804821