17

 C    0.0907884464    1.4866246594   -0.0482926763
 C   -0.0527446097    0.0019143023   -0.0152106382
 C   -1.2043869019   -0.6978259718   -0.0745991147
 C   -1.1132836377   -2.1364012806   -0.0269310920
 C   -2.3741676873   -2.9504908812   -0.0912593615
 N    0.0168045395   -2.7660077433    0.0696487459
 C    1.1936831403   -2.0536678743    0.1310656621
 N    2.3296772160   -2.6022355214    0.2265103382
 O    1.1291675013   -0.6299722092    0.0848446836
 H    0.7133497839    1.7879498896   -0.8974319051
 H   -0.8841301012    1.9694487860   -0.1299489667
 H    0.5913871735    1.8389348390    0.8598446969
 H   -2.1571153493   -0.1931207255   -0.1550874960
 H   -2.9195172701   -2.7379181349   -1.0181764306
 H   -2.1366820609   -4.0130816275   -0.0441259285
 H   -3.0417449082   -2.6873445212    0.7375093433
 H    3.0618334353   -1.8937944955    0.2570428597