23

 C    0.0463874658    1.5843504329    0.0149626682
 C    0.0154274068    0.0526726858    0.0245598391
 C   -1.3965948227   -0.5416926374   -0.0158537568
 C   -2.1994628267   -0.2489303956   -1.3054556814
 C   -3.2404363851   -1.3908895869   -1.4121284898
 C   -2.5775593370   -2.5789451920   -0.7322158445
 C   -1.1399265625   -2.8934203094   -1.1140018728
 C   -1.4465897431   -2.0638429199    0.1107522786
 O   -1.2257087028   -2.6137302754    1.3769107382
 H    1.0719490887    1.9613708148    0.0784682601
 H   -0.3987230766    1.9883138626   -0.9001501126
 H   -0.5123518799    1.9949266134    0.8635682896
 H    0.5933200776   -0.3344897011   -0.8253765643
 H    0.5225922404   -0.3076718330    0.9302742873
 H   -1.9566125510   -0.1549621477    0.8483556494
 H   -2.6687156120    0.7379586114   -1.2930392327
 H   -1.5272469788   -0.2644764165   -2.1716162147
 H   -4.1532477381   -1.1268847432   -0.8646692684
 H   -3.5327742711   -1.5882696191   -2.4492558747
 H   -3.1875202707   -3.4000725771   -0.3731730707
 H   -0.8134945027   -3.9091834957   -0.9189474177
 H   -0.6994578758   -2.4406280769   -1.9968830679
 H   -0.2745279427   -2.6477880038    1.5241607682