19

 C   -0.1112988498    1.4247508041   -0.1948051457
 C   -0.0629882468   -0.0525262526    0.0180387207
 C   -1.0311633289   -0.8958919381    0.3679410180
 C   -2.5178770394   -0.9522445131    0.2704279062
 C   -2.6131937402   -2.1451214786   -0.7238865476
 O   -1.5037708881   -3.0130446563   -0.4422261876
 C   -0.5302694619   -2.3111825306    0.3154206184
 O    0.7544989310   -2.2385865570   -0.2678821374
 C    1.1767047665   -0.8736623465   -0.2742671294
 H    0.5602931836    1.9474586287    0.4978954935
 H    0.2161332124    1.6900267091   -1.2077014382
 H   -1.1188527164    1.8200260534   -0.0423554482
 H   -2.9955775672   -1.2084798457    1.2233812967
 H   -2.9821118047   -0.0437265149   -0.1190193595
 H   -3.5327544631   -2.7276553255   -0.6155601184
 H   -2.5524343520   -1.7761916825   -1.7569234528
 H   -0.4372343746   -2.8376694321    1.2785543093
 H    1.5927861259   -0.6212590666   -1.2604581152
 H    1.9812356936   -0.7273152354    0.4643695373