20

 C    0.0508798764    1.4959390940   -0.4022287124
 C    1.4033226729    2.0454361728    0.0061458608
 C    2.1577121641    1.7931417157    1.0762012545
 C    1.9614854675    0.8175636056    2.2186603422
 C    0.6425891774    0.8477448435    2.9951760344
 N   -0.4583235329    1.6864740040    2.5201164994
 C   -0.6086677012    0.2215414239    2.4437384356
 C   -0.5782455315   -0.4570926444    1.1295698429
 C   -0.2466187433    0.0537617699   -0.0582389534
 H   -0.7132623488    2.1440436943    0.0393640369
 H   -0.0379125757    1.6082889869   -1.4886459319
 H    1.7842196677    2.8009149849   -0.6799163883
 H    3.0851010834    2.3584643949    1.1434633356
 H    2.1107161882   -0.2064365031    1.8501427507
 H    2.7661129475    0.9895849586    2.9409045529
 H    0.7652415971    0.7668997080    4.0740352675
 H   -0.9954899182    2.0504873800    3.3012754654
 H   -1.2587065226   -0.2476997107    3.1800490956
 H   -0.7774602512   -1.5260026261    1.1863537955
 H   -0.1950414069   -0.6414822023   -0.8932289740