16

 O    0.0374826493   -0.0331830035   -0.0546141232
 C    0.0166888548    1.1769332145   -0.0116945914
 C    1.2347909517    2.0000044697    0.0491830524
 C    1.1917579601    3.3427266958    0.0422280625
 C    2.4705574766    4.1272591287    0.0250597495
 C    3.6070248559    3.3418354199    0.7043595815
 C    3.6656397118    1.8608043135    0.3341801447
 O    4.6876366319    1.2110374465    0.3269666337
 N    2.4348308022    1.2952180035    0.0713681502
 H   -0.9300359911    1.7533727330   -0.0264368353
 H    0.2310980548    3.8439516367    0.0098976143
 H    2.7378944121    4.3458900231   -1.0204800690
 H    2.3433849952    5.1005135801    0.5093543639
 H    4.5864829793    3.7735527909    0.4932243852
 H    3.4713649303    3.3734017240    1.7938128458
 H    2.3809995751    0.2903648537   -0.0365020346