17

 C    0.9900896857    1.1971612993   -0.2870003202
 O    0.9676887104   -0.2052867288   -0.4196625003
 C   -0.1881916742   -0.6800541358   -1.0580274569
 C   -0.0802831932   -2.2095433343   -1.1853815693
 O   -1.3163811434   -2.7538961676   -1.6344790030
 C    1.0382227380   -2.6086516238   -2.0371150596
 C    1.9287451085   -2.9407555265   -2.7868328924
 C    2.9329805230   -3.3140420329   -3.6252846689
 C    3.8221105640   -3.6462349533   -4.3716984547
 H    0.9621987461    1.6986008310   -1.2668880413
 H    0.1417367051    1.5636432527    0.3119269190
 H    1.9213193517    1.4608649084    0.2193231994
 H   -1.0967139864   -0.4545250582   -0.4774487073
 H   -0.3066668029   -0.2327899586   -2.0599871025
 H    0.0738920110   -2.6130866108   -0.1776120660
 H   -1.3647535684   -2.6246183033   -2.5882093415
 H    4.6064003550   -3.9384946574   -5.0249210546