19

 O    0.1198424749    0.8989035048   -0.7250489066
 C    0.1390909728   -0.2423137508    0.0914585549
 C   -0.0173810269    0.0036266117    1.6246768742
 N   -1.1429189007   -0.9584926269    1.5991943365
 C   -1.1906515914   -0.9798439215    0.2040377800
 N   -1.9978535279   -1.3305265139   -0.7012914534
 C   -3.2687801479   -1.8762863161   -0.3577536752
 C   -4.4312331561   -1.5483170045   -1.2679636884
 C   -3.8369840000   -2.9306424444   -1.2807473408
 H   -0.5588498001    0.7394586995   -1.3926488976
 H    0.9903078780   -0.8918287260   -0.1503222106
 H    0.8108943732   -0.2969964324    2.2712580197
 H   -0.3091743863    1.0381783880    1.8295782638
 H   -1.9442938359   -0.9243641496    2.2133231669
 H   -3.5037285638   -1.9944167332    0.7006350076
 H   -5.4069655482   -1.4028128634   -0.8177358775
 H   -4.2130925340   -0.8998022906   -2.1082312617
 H   -3.2204142124   -3.2051741956   -2.1283092525
 H   -4.3994755573   -3.7454552049   -0.8387785092