23

 C    0.0289923164    1.3646697500   -0.0918690047
 O   -0.0310761282   -0.0177685736    0.1729063140
 C   -1.3268421056   -0.5947317684    0.0551182521
 C   -1.7519322483   -0.7658522142   -1.4031991903
 C   -1.2538688321   -1.9415791822    0.7998084290
 C   -0.9083643077   -1.7436635941    2.2816321623
 O   -0.5973609262   -2.9558345170    2.9603355051
 O   -2.5089595785   -2.5737291062    0.6264021724
 C   -2.5069618231   -3.9831402257    0.7534781470
 H    1.0486700105    1.6897125387    0.1302445161
 H   -0.1903500783    1.6041591927   -1.1419063384
 H   -0.6694788880    1.9310218052    0.5438677085
 H   -2.0608567626    0.0453521651    0.5746446434
 H   -2.7143594451   -1.2772189759   -1.4504138642
 H   -1.8489851308    0.2005226914   -1.9056453564
 H   -1.0087618315   -1.3615676178   -1.9437141179
 H   -0.4567424030   -2.5419079919    0.3245443706
 H   -0.0916436021   -1.0168256421    2.3647406971
 H   -1.7897096144   -1.3361663393    2.7880877793
 H    0.2529646486   -3.2644883950    2.6315000164
 H   -2.2506606224   -4.3041137094    1.7679058830
 H   -3.5158911008   -4.3224669987    0.5038274382
 H   -1.7972678768   -4.4452127516    0.0486977674