17

 C   -0.1620801550    1.4213928131    0.0934502193
 C   -0.0577460160   -0.0290355269    0.0305253350
 C    0.0268519127   -1.2295821833   -0.0129304037
 C    0.1090751953   -2.6896365314   -0.0963900112
 C    0.7752744937   -3.3452622842    1.1509146081
 N   -0.3813939291   -3.6161898778    1.9832729418
 C   -1.5342720351   -3.7446378751    1.2231539252
 O   -2.6166294402   -4.1283911676    1.6011572219
 N   -1.1985897572   -3.3517977361   -0.0747868485
 H    0.5606623186    1.8394199036    0.8025419706
 H    0.0279639377    1.8778618765   -0.8839780239
 H   -1.1614217140    1.7309101830    0.4179386863
 H    0.6605175128   -2.9688304974   -1.0004600404
 H    1.3039385420   -4.2608981523    0.8504927798
 H    1.4833786173   -2.6663678866    1.6301388759
 H   -0.3115643486   -4.1811098239    2.8139358242
 H   -1.9503617150   -2.9589491936   -0.6212061304