20

 O    0.0365338789   -0.0536343584    0.0588638217
 C    0.0295620589    1.1678320153    0.0231325426
 N   -1.1442376515    1.8692036501    0.0532016949
 C   -1.3228284010    3.3128972042   -0.0146067338
 C   -0.0585745433    4.0360605663    0.4472637465
 C    1.1533771718    3.4680206188   -0.2953139233
 C    1.2960856266    1.9822019991   -0.0119721004
 C    2.3603425792    1.5008013646    0.9679132451
 C    2.5234542504    1.2441088177   -0.4973959584
 H   -1.9637748842    1.2798517843    0.0482703757
 H   -1.5688013099    3.6250990037   -1.0416621003
 H   -2.1763038265    3.5891875563    0.6145823164
 H   -0.1698763130    5.1089510068    0.2621629037
 H    0.0702251831    3.8977209649    1.5271905508
 H    1.0224573529    3.6325698043   -1.3740945162
 H    2.0705471138    3.9939114273   -0.0095803818
 H    2.9754794458    2.2611575684    1.4379976748
 H    2.0982343081    0.6572218228    1.5951512702
 H    2.3635382317    0.2309608002   -0.8452684771
 H    3.2573513581    1.8244818634   -1.0467249811