20

 C   -0.0535562533    1.5310218180   -0.2922637216
 C   -0.0479649249    0.0503549332    0.0146276620
 C    1.1917825522   -0.7639927952   -0.1076941625
 N    0.6011691169   -0.5070511662    1.2067322446
 C    1.3004862174    0.3784311377    2.1271378181
 C    1.8259227679   -0.4694368404    3.3133552087
 N    2.7150494590   -1.5758639563    2.9596601946
 C    2.4923628334    0.4116711818    4.2847439559
 N    3.0098130168    1.1400746034    5.0171014827
 H    0.9252701841    1.9931039523   -0.1408885105
 H   -0.3392130004    1.6915531004   -1.3369142253
 H   -0.7807019112    2.0617565632    0.3322431516
 H   -0.9924655124   -0.4454767085   -0.2059404539
 H    1.1564659595   -1.7926990503   -0.4573780483
 H    2.1082016700   -0.2310566600   -0.3612379095
 H    2.1464858596    0.9156309220    1.6699011320
 H    0.6019089433    1.1299665559    2.5122336387
 H    0.9512820429   -0.9076813017    3.8086786869
 H    2.2152713830   -2.1810289270    2.3148448459
 H    3.5322775162   -1.2233330223    2.4683352197