21

 C   -0.2609509219    1.6209680917    0.0982259012
 C    0.0396795990    0.1215105216    0.0496315726
 C   -1.2427635914   -0.7068101763   -0.1355485561
 C    1.0689848796   -0.2420444806   -1.0459953220
 O    1.6636070504   -1.4750116974   -0.6357308402
 C    1.7737084376   -1.4493992533    0.7711795698
 C    2.8610211561   -0.5244271776    1.3590345706
 O    1.8739950650    0.4668479121    1.7254324055
 C    0.7825961607   -0.3829121599    1.2988547707
 H    0.6385938339    2.1863759903    0.3524104890
 H   -0.6351826924    1.9743427674   -0.8690885892
 H   -1.0261004886    1.8448211333    0.8490537671
 H   -1.7730625488   -0.3972845145   -1.0423145615
 H   -1.0169545004   -1.7737666136   -0.2281691006
 H   -1.9246285793   -0.5734816739    0.7110448883
 H    0.6205844270   -0.4041854084   -2.0298194642
 H    1.8293186955    0.5475745923   -1.1353955903
 H    1.7409794569   -2.4748793392    1.1405493156
 H    3.3821424414   -0.9213179882    2.2391283031
 H    3.5945982290   -0.1454659574    0.6382865920
 H    0.1186098507   -0.6326139485    2.1330771486