20

 O    0.0154354472    1.4317478062   -0.1094770355
 C    0.0161102296    0.0172766638    0.0093522439
 C    0.6472052050   -0.5289405868    1.3352287358
 C   -0.5020283235   -1.3487112540    1.9647769290
 C   -1.5690568538   -0.3672169736    2.4994293002
 C   -2.1893515768    0.2269711137    1.1939226172
 C   -1.4293812342   -0.5165840992    0.0713052249
 C   -1.1999564752   -1.9057860897    0.7026802343
 H    0.9297275677    1.7299994343   -0.1143767029
 H    0.5268894976   -0.4244617206   -0.8592680352
 H    1.5197015496   -1.1576067807    1.1303623102
 H    0.9715519590    0.2977505637    1.9760597011
 H   -0.1706963739   -2.0855720497    2.6994205273
 H   -2.3215400435   -0.8986967839    3.0906097527
 H   -1.1318563998    0.4003023873    3.1448996176
 H   -3.2611355756    0.0173474795    1.1316609333
 H   -2.0547668803    1.3062382011    1.1163543386
 H   -1.9342033487   -0.4956363224   -0.8961276025
 H   -0.5570620006   -2.5583367151    0.1023207808
 H   -2.1323854699   -2.4360226638    0.9197903990