23

 C    0.0772551646    1.6258031046    0.1990672770
 C    0.0181775327    0.0980011919   -0.0072885447
 C    0.6808849285   -0.3620890201   -1.3294163686
 C   -0.0126205132    0.1495673404   -2.5990538973
 C    0.6110306055   -0.4046505389   -3.8635500412
 C    0.1896997075   -1.7512089748   -4.3974802139
 C   -0.1845757554   -0.4906312569   -5.1401057087
 C    0.6272521575   -0.5931466287    1.1290022992
 C    1.1504147128   -1.1537042132    2.0553680798
 H    1.1155257944    1.9722551060    0.2032079595
 H   -0.4592475177    2.1498222954   -0.5961707998
 H   -0.3746330197    1.9030113456    1.1548534592
 H   -1.0410820388   -0.1957146974   -0.0478409110
 H    1.7313924811   -0.0440728515   -1.3242514537
 H    0.6927410949   -1.4573478768   -1.3472726070
 H   -1.0757279011   -0.1282898389   -2.5717379520
 H    0.0169148205    1.2457311945   -2.6332704321
 H    1.6648235278   -0.1620656210   -3.9815511531
 H    0.9430339438   -2.4006992710   -4.8293986088
 H   -0.5994898439   -2.2788519981   -3.8709097250
 H   -1.2230313803   -0.1762349061   -5.1114036477
 H    0.3155663659   -0.2771095811   -6.0783869477
 H    1.6013788726   -1.6533937438    2.8764120175