16

 O    0.0393160808    1.2329636918    0.4383689356
 C   -0.0323138428   -0.1646060110    0.2762102291
 C   -1.3779569181   -0.5776402138   -0.3209796424
 C   -1.6137584392   -2.0878437452   -0.3307441512
 C   -2.4028171703   -2.3363374589    0.9566658799
 O   -2.6346529932   -3.3922451818    1.4786067048
 C   -2.8426038933   -0.9621797627    1.4676332384
 O   -2.4401126519   -0.0185914134    0.4916582149
 H   -0.8073353928    1.4952767816    0.8220389678
 H    0.7802577171   -0.4619919032   -0.3962378595
 H    0.1245257718   -0.6954684710    1.2328841833
 H   -1.4884365990   -0.1139865953   -1.3047419891
 H   -2.2343295669   -2.3977556711   -1.1784782125
 H   -0.7026182060   -2.6909095981   -0.3468614397
 H   -3.9295780658   -0.9182489905    1.5927614143
 H   -2.3811486006   -0.7780830875    2.4497613364