18

 C    0.0145540559    1.4379796943    0.0035599220
 N    0.0314282641   -0.0026928655   -0.0695702141
 C   -1.0322904759   -1.0157172774   -0.0674672393
 C   -1.9624272583   -1.0032108958   -1.2873592980
 C   -2.9570798173    0.1361937835   -1.2354455434
 O   -3.0365966638    1.0216739785   -2.0468717521
 C    0.0934396193   -2.0926989418   -0.0542657709
 C    1.0736225960   -0.8978786694   -0.0240933720
 O    2.2651652703   -0.7440374116    0.0299392352
 H    1.0539674454    1.7746483218    0.0102906800
 H   -0.4977423566    1.8786847277   -0.8577499716
 H   -0.4749725714    1.7894478263    0.9207163311
 H   -1.6264806183   -0.9993661052    0.8569818178
 H   -1.3863866098   -0.9398626139   -2.2147389060
 H   -2.5346189446   -1.9416138624   -1.2843869358
 H   -3.6373385210    0.1076537254   -0.3512107125
 H    0.1273008619   -2.7290128636    0.8316079035
 H    0.1580775741   -2.7084235109   -0.9536211940