17

 O   -0.6393037706    0.9505033405    1.0085998877
 C    0.1747223163    0.8624728528    0.1277675119
 C    1.3807191539    1.7881220716   -0.0052421960
 N    2.5805778080    1.0129835963   -0.2986367945
 C    3.4995610820    1.7794375826   -1.1645835857
 C    2.7822150450    3.1138988350   -1.4322487420
 C    1.2884543978    2.7687217787   -1.2081740113
 C    0.6990203630    2.1577670888   -2.4036265475
 N    0.2439052839    1.6971421094   -3.3610354310
 H    0.1308858867    0.0765715634   -0.6548877274
 H    1.4329751290    2.3916623370    0.9132142938
 H    3.0230218615    0.6580975895    0.5370625174
 H    4.4738275691    1.9376839099   -0.6899373192
 H    3.6754116458    1.2344958470   -2.0996108041
 H    3.0708291882    3.8668584949   -0.6932382750
 H    2.9752464119    3.5179866069   -2.4273170480
 H    0.6911962986    3.6451075257   -0.9453753093