22

 C    0.2270273520   -1.3101790794    1.1549551086
 O   -0.0904919005   -0.4879923233    0.0544950918
 C    0.6175447919   -0.7615209123   -1.1344824233
 C    2.0032200436   -0.1199570030   -1.1181273440
 C    0.6463921283   -2.2230398649   -1.6287952795
 N   -0.7595214849   -2.6642754945   -1.7874122105
 C   -0.1196606744   -1.8543287351   -2.8503727973
 C   -0.2287703765   -0.3846214396   -2.4199884565
 C   -1.6178202135    0.2038052286   -2.2282138992
 H    0.0313551204   -2.3688136971    0.9375699090
 H    1.2741107221   -1.2030185020    1.4763538426
 H   -0.4180118998   -0.9966001329    1.9795149431
 H    2.6163002247   -0.5143405318   -0.3005104869
 H    2.5355849418   -0.3129587586   -2.0547008868
 H    1.9118527851    0.9622771601   -0.9855672191
 H    1.4489284972   -2.9415383401   -1.5060467127
 H   -0.7289067394   -3.6363218974   -2.0942669537
 H   -0.0246800923   -2.2432948468   -3.8571401189
 H    0.3763264906    0.2523321612   -3.0732826418
 H   -2.2307474889   -0.4596917249   -1.6166420359
 H   -1.5650137780    1.1761073849   -1.7292281648
 H   -2.1103435194    0.3458864589   -3.1968538840