15

 C    0.2441760132    1.2618793422   -0.2639249988
 N   -0.0368688071   -0.1187579646    0.0629757420
 C    0.5415317617   -0.7031446610    1.1541581034
 C    1.1686683849   -0.1671928683    2.2456876331
 O    1.5326526209   -1.1650354137    3.0991428743
 N    1.1679581964   -2.3684808322    2.5895432851
 C    0.5817363867   -2.1110378070    1.4325254072
 C    0.0916235309   -3.1904316676    0.5798182211
 O   -0.4001004540   -2.9904050677   -0.5140997820
 H    1.3156017463    1.4568597929   -0.4273132897
 H   -0.3003139514    1.5329787030   -1.1702447111
 H   -0.1006556672    1.9214090155    0.5417395068
 H   -0.2322874475   -0.7626764424   -0.6891877717
 H    1.4191917969    0.8312893861    2.5590694012
 H    0.2066707593   -4.2099316453    0.9943497991