25

 C    0.0783144012    1.4717054881    0.1714877515
 C   -0.1554496780   -0.0171271729   -0.0287000661
 O    0.7228205548   -0.4720827149   -1.0373172077
 C    0.7365151234   -1.8786807518   -1.2548321609
 C   -0.4918522218   -2.3429104522   -2.0456080319
 C    2.0359401985   -2.2162951110   -1.9780779080
 C    2.4019639217   -1.4421114839   -3.2792990214
 C    3.8788610983   -1.4183746597   -2.8010693659
 C    3.3832771746   -1.7416529321   -1.3658493901
 H    1.1123234293    1.6611277212    0.4736392839
 H   -0.1113211005    2.0170171315   -0.7575418823
 H   -0.5888475112    1.8628146109    0.9456204015
 H    0.0299650802   -0.5667390691    0.9097433145
 H   -1.2060306279   -0.1989063122   -0.3051481881
 H    0.7440280950   -2.3866830999   -0.2738027689
 H   -0.4616576159   -3.4269723766   -2.1958849010
 H   -1.4235140349   -2.1074203410   -1.5235590081
 H   -0.5171823894   -1.8587275607   -3.0267920992
 H    2.0572098950   -3.2970383249   -2.1576916554
 H    2.1838087725   -1.9205729653   -4.2373581453
 H    1.9586925615   -0.4435813822   -3.2695622384
 H    4.4568695852   -2.2438742687   -3.2272467908
 H    4.4413341651   -0.4927688293   -2.9450393778
 H    3.2339582378   -0.8334132015   -0.7773746110
 H    3.9559111253   -2.4622663418   -0.7760246029