17

 C   -0.1548071213    1.2851286876   -0.0573175254
 N    0.1085467650   -0.1465492270    0.0549659527
 C    1.5197297550   -0.4982363936   -0.1341219609
 C    0.8916796522   -0.5113835184    1.2362369886
 C    0.9630975646   -2.0583240567    1.2872872186
 N   -0.2888193083   -2.7891962939    1.1235580956
 C   -0.3525783729   -3.0590040535   -0.1157274174
 O    0.6737134292   -2.7396236407   -0.9567957330
 C    1.6135918027   -2.0310318042   -0.1346000301
 H    0.6612090684    1.9228066224    0.3225642837
 H   -0.3234616508    1.5338156035   -1.1092417377
 H   -1.0643559068    1.5212762655    0.5025578581
 H    2.2114782336    0.2079730411   -0.5779104288
 H    1.0106376103    0.1855833625    2.0571750702
 H    1.5674650789   -2.4409233602    2.1117702555
 H   -1.1730086480   -3.5721358988   -0.6050130913
 H    2.6119069082   -2.4452274055   -0.2780767784