13

 C   -0.0841782696   -3.8112406555   -0.0234817328
 C   -0.0484992469   -2.6046389414   -0.0048424009
 C   -0.0103944848   -1.2460748903    0.0148533680
 C    0.0275935874   -0.0369733282    0.0374999838
 C    0.0456391575    1.3933582198    0.0232344689
 N    0.5318669597    2.0923881709    1.2266100405
 C    1.3306068413    2.1894580491   -0.0005685283
 C    2.6210926278    1.5450514729    0.0026461894
 N    3.6637389587    1.0483699631   -0.0329032174
 H   -0.1103738632   -4.8728539315   -0.0379744866
 H   -0.7707296101    1.8559855645   -0.5290207955
 H    0.0111686878    2.9547454880    1.3677046990
 H    1.3049010244    3.1143471886   -0.5712108082