9

 N   -0.0116555631    1.4167650949   -0.1630360764
 C   -0.0036842142    0.1558441858   -0.0986594621
 O   -1.1248240144   -0.6083093152   -0.1830756033
 C   -2.3614298856   -0.0153611185    0.0617928477
 O   -3.3588733983   -0.6197275066   -0.1458127575
 C    1.1764276607   -0.6729073891    0.0483376402
 N    2.1555178764   -1.2754775313    0.1652708725
 H    0.9238318305    1.8079050610   -0.0744083852
 H   -2.2643505222    1.0003382291    0.4623556241