18

 C   -0.0005140455    1.5226162907    0.0110551641
 C   -0.0557423001    0.0260272879    0.0423250419
 C    0.1083646336   -0.9842729728    1.1544248653
 C   -0.8100400570   -1.9728372481    0.3920678850
 C    0.0134358332   -2.5102335078   -0.8315223766
 C    1.4011135840   -1.9211738573   -0.6242019227
 N    1.2004895524   -0.7282187201    0.2244111484
 O   -0.6981499386   -1.6327802660   -1.7562127562
 C   -1.1460355013   -0.8679582921   -0.6235383899
 H    0.7675277591    1.8907888438    0.6961381320
 H    0.2439407460    1.8805261806   -0.9958609302
 H   -0.9638576105    1.9584360977    0.2975499975
 H    0.2471623623   -0.8702099065    2.2231450942
 H   -1.5530960264   -2.5946817457    0.8819116960
 H   -0.0414227873   -3.5580251899   -1.1342980734
 H    2.0694481151   -2.6039027818   -0.0867664781
 H    1.8589040029   -1.6465027151   -1.5778056641
 H   -2.1297626720   -0.4110559476   -0.7523943833