16

 C    0.1687812247    1.2604352518    0.3207139180
 C    1.4211343869    1.9509079368   -0.2638595732
 C    2.0946407742    0.7869525375   -0.9305323566
 O    3.1440445746    0.9687792484   -1.8581144974
 C    3.7866805040   -0.2336476954   -1.8738680829
 N    3.4149794202   -1.1480240099   -1.0710974289
 C    2.2995136843   -0.6084406144   -0.3250023157
 C    1.0692371547   -0.2813622873   -1.1557443764
 O   -0.0945985453    0.0884884854   -0.4692716636
 H    0.3458283775    0.9645793742    1.3629121034
 H   -0.7227904816    1.8915547158    0.2923246613
 H    1.1585351283    2.7012692122   -1.0171705032
 H    2.0192449808    2.4351644807    0.5124782612
 H    4.6026376224   -0.3001440605   -2.5822687001
 H    2.2167924689   -0.8869721633    0.7203464415
 H    0.8885330955   -0.7865801521   -2.0985127574