23

 C   -0.0982024659    1.5274397037    0.0470144139
 C    0.0251247816    0.0301028290    0.0306797256
 C   -0.8156449533   -0.8653705526    0.9026190136
 C    0.6815646660   -0.9246735655    1.0355230673
 C    1.2637002056   -1.7690298528   -0.1023156761
 C    0.6319584343   -0.7726320472   -1.1386019688
 C   -0.2922005880   -1.2972262349   -2.2336158449
 C    0.4443150307   -2.0992338708   -3.2993762466
 O   -0.5096838571   -2.5424395016   -4.2541171157
 H    0.8376026083    2.0095233189   -0.2601919156
 H   -0.8862471459    1.8724852612   -0.6339571961
 H   -0.3489985066    1.8932710046    1.0484158095
 H   -1.3344448165   -0.3526211349    1.7070944981
 H   -1.3656852585   -1.7113753531    0.4960635518
 H    1.1831765617   -0.6902882513    1.9674580267
 H    2.3553841586   -1.7795603794   -0.1363218875
 H    0.9057683797   -2.8044130199   -0.1476482292
 H    1.4322391747   -0.1793881214   -1.5982684193
 H   -1.0759934655   -1.9331587391   -1.8060905411
 H   -0.8031216891   -0.4588508475   -2.7238846385
 H    1.2161527478   -1.4686998366   -3.7718079181
 H    0.9644965132   -2.9518150568   -2.8328018802
 H   -0.0491791356   -3.0603982219   -4.9205893488