18

 C    0.1247115512    1.4552914315   -0.0727112104
 C   -0.0621002496   -0.0190823379   -0.0458730321
 C   -1.1521120313   -0.8276197703   -0.0760998783
 C   -0.6747590845   -2.1860478651   -0.0218865780
 C   -1.5194577576   -3.4228284156   -0.0306174443
 C    0.6839723832   -2.0966811333    0.0377609719
 C    1.7831420567   -3.0954115441    0.1115263948
 O    1.0682505986   -0.7809378708    0.0237396083
 H    0.7207564706    1.7712684065   -0.9368816645
 H   -0.8468103477    1.9514539020   -0.1288306670
 H    0.6405202733    1.8135527801    0.8258927098
 H   -2.1816737639   -0.5062932240   -0.1305638352
 H   -2.1306194062   -3.4855141447   -0.9387561843
 H   -0.9107616006   -4.3297711735    0.0186330874
 H   -2.2103256677   -3.4434776025    0.8205242703
 H    2.4641374410   -3.0098288035   -0.7435411192
 H    2.3841916886   -2.9676414934    1.0196203913
 H    1.3749374560   -4.1083337512    0.1172523894