20

 C   -0.1813505508    1.5701572002    0.0111954631
 C    0.0495392430    0.0654292406    0.0125839519
 C    1.1623017814   -0.5326278154   -0.9055855147
 C    1.7872751778   -1.2709901564    0.3202480060
 C    2.0609517711   -2.7535848262    0.2345272022
 N    2.8030617175   -0.4712663247    1.0252222108
 C    1.9040537529    0.2171106356    1.8203469864
 O    2.0432963259    1.1286655786    2.5925976610
 C    0.7228313892   -0.5977314929    1.2604521833
 H    0.7392127835    2.1197546291    0.2293391288
 H   -0.5523943334    1.9015608658   -0.9648808402
 H   -0.9200171179    1.8569206025    0.7669157174
 H   -0.8973049562   -0.4473194515   -0.1823678846
 H    0.7841481209   -1.1977490679   -1.6859483338
 H    1.8315777689    0.1984528816   -1.3673582012
 H    2.8856663119   -2.9605460782   -0.4582228020
 H    2.3320538066   -3.1574451636    1.2144575338
 H    1.1806026125   -3.2899381204   -0.1333394511
 H    3.7167118476   -0.1691118311    0.7099765355
 H    0.0977147178   -1.1376519057    1.9703567775