20

 O    0.2699564865    1.1379941292   -0.5710427045
 C   -0.0319635768   -0.2537514670   -0.5800823206
 C   -1.3774970226   -0.5461316725    0.1049539973
 C   -2.6068853621   -0.0449358258   -0.7052851718
 C   -3.1426892509   -1.2727784528   -1.4226550282
 N   -2.0876898610   -2.0133449292   -2.1467127830
 C   -2.5449968359   -2.4873933943   -0.8223823650
 C   -1.6471991153   -2.0721864129    0.3225764860
 O   -0.4937951096   -2.8968721401    0.3763300517
 H   -0.2805885646    1.5634750851   -1.2347244672
 H   -0.0219816340   -0.6679757330   -1.5931887200
 H    0.7743486687   -0.7339077795   -0.0197252272
 H   -1.3401233637   -0.0331356835    1.0721111648
 H   -3.3810170783    0.3495589147   -0.0376401561
 H   -2.3491876190    0.7632591356   -1.4002669386
 H   -4.1521878688   -1.2718909227   -1.8214847909
 H   -2.5134355894   -2.5943504381   -2.8644514080
 H   -3.0777991821   -3.4303227359   -0.7586357123
 H   -2.2357350079   -2.1950941620    1.2468740070
 H   -0.0277945330   -2.7085289855    1.1968816564