23

 C    0.0823859028    1.5762682045   -0.1362864065
 C    0.0728289532    0.0566982157    0.0065584540
 O    0.7004206728   -0.4553868132   -1.1718345266
 C    0.2170620517   -1.7063225848   -1.6190165577
 C    0.6302280694   -2.9018311070   -0.7576694251
 C    0.0795868925   -2.8603704414    0.6796922199
 C    0.6974085834   -1.7907776889    1.5510363223
 C    0.7288070698   -0.4815896041    1.2831462043
 C    1.4174190409    0.4790340941    2.2189433550
 H    1.1053850069    1.9558639084   -0.2072972679
 H   -0.4450422812    1.8550034261   -1.0516499382
 H   -0.4113436383    2.0612328920    0.7103690990
 H   -0.9791117394   -0.2776833518    0.0061170228
 H   -0.8844963514   -1.6756932156   -1.6957536716
 H    0.6109750039   -1.8285185639   -2.6338831637
 H    0.2679505238   -3.8092215471   -1.2586640554
 H    1.7239600758   -2.9626636646   -0.7289071516
 H   -1.0128344721   -2.7291236190    0.6344783886
 H    0.2407046272   -3.8361429057    1.1487872789
 H    1.1788883026   -2.1379243530    2.4632689083
 H    1.8491791091   -0.0528713097    3.0708050690
 H    2.2272432765    1.0219989753    1.7168421333
 H    0.7311119802    1.2387011337    2.6120056287