22

 C   -7.2021453705    0.1574134928    2.4168094340
 C   -6.2956710951   -0.1503559009    1.3195087116
 C   -5.5498649269   -0.3962228874    0.4067858800
 C   -4.6312418987   -0.7222112973   -0.6805788756
 C   -3.9536506601   -2.0727618401   -0.4586763133
 C   -4.5120826849   -3.3587124898   -0.9801557585
 C   -5.7993887033   -3.4532914579   -1.7716874041
 N   -3.2624569989   -2.8068427540   -1.5176585229
 C   -3.1957966760   -2.2871509352   -2.8744574508
 H   -8.1973474775    0.4298293887    2.0479118303
 H   -7.3226409353   -0.7011223920    3.0869455215
 H   -6.8321505654    0.9955389761    3.0178842730
 H   -5.1675657662   -0.6952248284   -1.6337028118
 H   -3.8555853432    0.0530545529   -0.7513783173
 H   -3.4288672790   -2.1053741404    0.4958115922
 H   -4.3374507872   -4.2450584605   -0.3692412903
 H   -6.0274709484   -2.5567513492   -2.3506554936
 H   -5.7603641171   -4.2973870254   -2.4692706895
 H   -6.6388768346   -3.6259656568   -1.0903032038
 H   -4.0977350819   -1.7794949523   -3.2457579446
 H   -2.3631717171   -1.5787527014   -2.9389752981
 H   -2.9787032925   -3.1162705914   -3.5558347487