21

 C    0.2083991489    1.5554921711   -0.1817722990
 C    0.2799155794    0.0300876769   -0.0832182950
 C    0.2776520338   -0.4763165723    1.3661711282
 C    0.3538784166   -1.9798091388    1.4544526906
 O    1.6372335497   -2.5813163227    1.1628704193
 C    1.1301991935   -2.6817632573    2.4741846148
 C    1.8393853967   -2.1931569502    3.7343988958
 O    1.4844028238   -3.4184830221    4.4141537350
 C    0.8923528414   -3.9885229521    3.2247069139
 H    1.0608588720    2.0249130321    0.3216330379
 H    0.2146426047    1.8868708069   -1.2245688655
 H   -0.7044128346    1.9419720728    0.2853971683
 H   -0.5667345980   -0.4148722579   -0.6222768534
 H    1.1863818080   -0.3357073652   -0.5792931737
 H    1.1235572437   -0.0407270323    1.9115183368
 H   -0.6359631206   -0.1413974470    1.8767866729
 H   -0.4826576842   -2.5181624740    1.0023650645
 H    2.9246796953   -2.0747162381    3.6219625891
 H    1.4232837790   -1.3081936544    4.2312050371
 H   -0.1498020579   -4.2906944803    3.3835739311
 H    1.4671893787   -4.8390248449    2.8360961113