17

 O    0.0423489869    1.4923064456   -0.0851725080
 C    0.0296726654    0.0872082936    0.0156399795
 C    0.1504407615   -0.6230591100    1.3977460312
 C   -0.9102630913    0.1229301156    2.2318707600
 C   -2.0752578192   -0.3886117777    1.3683457271
 O   -1.9973685920   -1.8272191477    1.6021995319
 C   -0.8194872940   -1.7610761309    0.7995044636
 C   -1.3421749486   -0.5784130685   -0.0412687054
 O   -2.0840556337   -0.7477611219   -1.1947087802
 H    0.9543342499    1.7971215913   -0.0470194923
 H    0.6858912741   -0.3791203962   -0.7324246925
 H    1.1174392148   -0.8580103519    1.8359342493
 H   -1.0050716124   -0.2290094573    3.2606659668
 H   -0.7695014196    1.2042272978    2.2048937352
 H   -3.0792854268    0.0215852293    1.4651420762
 H   -0.4255030123   -2.7080512582    0.4376021698
 H   -2.3705479428    0.1217882571   -1.4963916423