19

 O   -0.2542592034    1.4661751220   -0.1472435407
 C   -0.1134864333    0.0792456272   -0.0362600427
 C   -0.4985517286   -0.6145177962    1.2524597751
 C   -1.3804276180   -0.7055143894    0.0373564977
 C   -2.7693598900   -0.1112819641   -0.2075895208
 C   -2.9366202543   -1.1113377569   -1.3870270609
 C   -1.7220883747   -1.9364124598   -0.8358618154
 C   -0.7324776399   -2.4419122964   -1.7645818450
 C    0.1008169345   -2.8419367866   -2.5351123759
 H    0.4529135757    1.8787120008    0.3590219108
 H    0.7036830459   -0.3529288799   -0.6140041864
 H    0.0687348565   -1.4897332190    1.5551685226
 H   -0.8487847557    0.0129771916    2.0667536616
 H   -3.4660035741   -0.3081566748    0.6133301025
 H   -2.7941673799    0.9520755358   -0.4496409887
 H   -3.8837055251   -1.6475890306   -1.4681969333
 H   -2.6966835211   -0.6569087334   -2.3498358562
 H   -2.0835908673   -2.7530822310   -0.1994139813
 H    0.8267383527   -3.2026151296   -3.2208399729