11

 N   -0.0923078822    1.3058149492   -0.1129829305
 C   -0.0638741651    0.0408408631   -0.0265223043
 N    1.1971511318   -0.6569769688    0.0881157023
 N    1.2948687095   -1.8243638303    0.3842952338
 O   -0.0084663102   -2.6107607549    0.5913910857
 N   -1.1769794607   -2.0739090170    0.2585195773
 C   -1.2348617475   -0.8131374908   -0.0460291419
 C   -2.5837850661   -0.2689907664   -0.4353038907
 O   -3.5878662416   -0.9297653849   -0.4256828174
 H    0.8566771017    1.6880073418   -0.0926471517
 H   -2.5635771098    0.7955788191   -0.7299943726