17

 O    0.0388735286   -0.0249610211   -0.0428172978
 C   -0.0187547463    1.1733123807   -0.0547006877
 C   -1.2969922206    2.0338302273   -0.1199533553
 C   -0.8220948482    3.3685820864   -0.6746137314
 C    0.0704351398    4.2702289533    0.1519699823
 C    0.5154409971    3.8066953787    1.5248434317
 O    1.2526823431    2.5956563123    1.3366128144
 C    1.1686847492    2.1615049832   -0.0331006294
 C    0.6953029657    3.3462281119   -0.8572929861
 H   -2.0238773963    1.5496543458   -0.7769816950
 H   -1.7547257254    2.0975182167    0.8742822495
 H   -1.4351437576    3.8553014028   -1.4238877925
 H    0.0226834678    5.3359066410   -0.0398019703
 H    1.1713075292    4.5492773083    1.9959543703
 H   -0.3257852192    3.6196896530    2.2073505587
 H    2.1163019724    1.7060022853   -0.3212514898
 H    1.2085267206    3.6725189044   -1.7512335216