14

 O    0.0831983445   -0.0187618587   -0.4570758180
 C   -0.0476705064    1.1407634706   -0.1309543628
 C    1.1352695427    1.9704504673    0.1821862543
 N    2.0645766115    2.6140065320    0.4258089240
 C   -1.2856445238    1.8381611524   -0.0073258109
 C   -2.3325470321    2.4377637549    0.1000233213
 C   -3.5626773660    3.1382975618    0.2244147745
 C   -3.7095288398    4.2143000802    1.3021740889
 C   -3.6194338603    4.6263549422   -0.1268137291
 H   -4.4511291787    2.5568686157    0.0007536601
 H   -4.6704507135    4.2576650906    1.8011590461
 H   -2.8524797079    4.3848220666    1.9418544660
 H   -2.7001519196    5.0814652054   -0.4740861635
 H   -4.5168948205    4.9599603891   -0.6342668310