17

 C    0.0084461823    1.5541685725    0.0260471077
 C    0.0449440033    0.0140769688   -0.0050234857
 C    0.7661346978   -0.5015184841   -1.2652555299
 C    0.6522397468   -0.5436554230    1.2391810999
 C    0.2200660237   -1.3357329455    2.2513227240
 N    1.2478604719   -1.5346149055    3.1690316852
 C    2.2349725350   -0.8651371598    2.6764963955
 O    1.9649944506   -0.2329801604    1.5096827872
 H    1.0221488705    1.9639749930    0.0706486591
 H   -0.4756812451    1.9430838821   -0.8750804633
 H   -0.5427173634    1.9193022286    0.8973562299
 H   -0.9878300862   -0.3547608753   -0.0237206716
 H    1.8120602766   -0.1797388595   -1.2708118895
 H    0.7481716822   -1.5941357304   -1.3119963910
 H    0.2855501621   -0.1104143077   -2.1673676778
 H   -0.7542582427   -1.7777158829    2.3879278287
 H    3.2320205645   -0.7478578110    3.0712218116