19

 C   -0.3707700820    1.3223667400   -0.0008411588
 C    0.1004516767   -0.1136196081   -0.0174029182
 O   -1.0080420746   -1.0445061171    0.2041481802
 C   -0.4347201382   -1.5111067519    1.4481450198
 C    0.8628821728   -0.7097765117    1.1979135807
 C    1.9824503292   -1.4980386353    0.5746101422
 C    1.9807963277   -1.4221258307   -0.7559783141
 C    0.8776552895   -0.5365721026   -1.3006093909
 O    0.0301439311   -1.1716235897   -2.2371471190
 H    0.4818627297    2.0065441032   -0.0699131761
 H   -1.0270249914    1.5064013926   -0.8580041236
 H   -0.9264183950    1.5487061885    0.9138792442
 H   -1.0289536862   -1.1747627330    2.3065293037
 H   -0.3381993146   -2.6017000585    1.4743366715
 H    1.1699689249   -0.0322569445    1.9978357047
 H    2.6797127522   -2.0800988880    1.1686675476
 H    2.6720478840   -1.9307501503   -1.4188828654
 H    1.2913923194    0.3394216500   -1.8173053033
 H   -0.6006581350   -1.6753875928   -1.7011016452