22

 C   -0.1035780028   -0.6588943745    0.6066878624
 C   -0.4041862971   -0.3741721004   -0.8712218027
 C    0.7942826209   -0.5169031553   -1.7694626122
 C    0.6609652547   -0.8581499701   -3.2741042485
 C    1.9818441449   -0.4891139531   -3.9224214300
 N    2.6925626158   -0.9369458295   -2.6597348867
 C    1.4211063550   -1.7567566395   -2.3381356585
 C    2.1974620020    0.0667471309   -1.6177509287
 C    2.4995061305    1.5425127148   -1.8218028656
 H    0.2842114361   -1.6737605716    0.7417666042
 H    0.6428742118    0.0366748580    1.0038373273
 H   -1.0069668296   -0.5579749167    1.2157576106
 H   -1.1947028476   -1.0517966206   -1.2185543606
 H   -0.8139431209    0.6400297738   -0.9721695845
 H   -0.3129339624   -1.0254218699   -3.7189211919
 H    2.2510270452   -1.1740647719   -4.7313787301
 H    2.1841229535    0.5387732549   -4.2388567497
 H    1.3919019769   -2.8108484248   -2.1002937989
 H    2.6342000281   -0.2633261924   -0.6687664279
 H    1.9472098925    1.9778306701   -2.6584240727
 H    2.2320214892    2.1069850511   -0.9220965284
 H    3.5706478635    1.6878402866   -2.0011766768