25

 C   -0.1973827065    1.4962810161   -1.0288567346
 C   -0.0531403799    0.2878393789   -0.0977799842
 C   -1.4188675210   -0.3143897978    0.2520995477
 C    0.8652353265   -0.7968873640   -0.7139546040
 C    2.2367660811   -0.3538708464   -0.9440557932
 C    3.3682851181    0.0250267248   -1.1165070493
 C    4.7383775793    0.4937538140   -1.3323762793
 C    4.9247512796    1.0320709210   -2.7648447116
 C    5.1360068342    1.5505405962   -0.2825319848
 H    0.7796595322    1.9171338618   -1.2816235687
 H   -0.6930234045    1.2097431249   -1.9647424682
 H   -0.7996241543    2.2823019661   -0.5617571090
 H    0.4243582817    0.6256760257    0.8312089513
 H   -1.9265878128   -0.6842774312   -0.6470456276
 H   -1.3220339899   -1.1536728879    0.9492123871
 H   -2.0709196002    0.4329514044    0.7154145000
 H    0.8733283404   -1.6739758455   -0.0531267881
 H    0.4230234704   -1.1380680056   -1.6612494163
 H    5.4120582353   -0.3663367767   -1.2096733914
 H    4.2816198740    1.9011130029   -2.9358314375
 H    5.9640154592    1.3373426884   -2.9251224982
 H    4.6689253528    0.2715014636   -3.5072071338
 H    5.0293638615    1.1567329747    0.7316442165
 H    6.1765956158    1.8589003476   -0.4273380633
 H    4.5001017470    2.4371394441   -0.3696011594