15

 C    0.0173362173    1.5359119719    0.0580784264
 C    0.0512411846    0.0165868810    0.0366325420
 C   -1.1230584145   -0.6166827190   -0.5102183880
 C   -2.1025354288   -1.1367266231   -0.9748768843
 C    1.3180640087   -0.7677313758   -0.1714424462
 O    2.4538661306   -0.0338807057    0.3445703066
 C    1.9462046831   -0.1506004431    1.6415137292
 O    2.4688057459    0.1850516951    2.6510860243
 C    0.6827054656   -0.8341385110    1.1891886716
 H    0.9717911127    1.9477483996    0.3888712349
 H   -0.1909845415    1.9142543480   -0.9466629794
 H   -0.7729001320    1.8887155784    0.7257817423
 H   -2.9692484670   -1.5910069213   -1.3884031263
 H    1.5049494548   -1.5226143797   -0.9214283534
 H    0.1287318806   -1.6065818555    1.7002148005