13

 C   -0.0907097831   -1.1420897719    0.3727996819
 C   -0.0495608162    0.0232550179    0.0877551808
 C    0.0195556459    1.4366132539   -0.2601729618
 C    1.4262982508    2.0146492503   -0.1304651399
 C    1.6293451291    3.4191414955    0.2784000334
 O    1.8542235715    2.3453909101    1.1884442390
 C    2.4413046589    1.3942501223   -0.9677274875
 N    3.2314694495    0.9109372230   -1.6581080480
 H   -0.1267129439   -2.1736376342    0.6233205432
 H   -0.3290437005    1.5892265701   -1.2894392947
 H   -0.6367275764    2.0220583223    0.3932074438
 H    2.5184758800    3.9497636646   -0.0540411911
 H    0.7527270645    4.0328551161    0.4793691708