16

 C    0.2921196534    1.4678641269    0.1087041615
 C    0.2119941679   -0.0348636309   -0.2196007674
 N    1.3130341709   -0.7216061752    0.4624163103
 C    1.0777746787   -1.6751654242    1.2459186061
 O    2.0607062331   -2.3487249012    1.9197780182
 C    3.3030073482   -1.7727079870    2.0563269304
 O    4.2095691860   -2.3881626652    2.5198545219
 C   -1.1310592888   -0.5638177652    0.0461538844
 C   -2.2280669379   -0.9976637994    0.2792931920
 H    1.2932030974    1.8379176985   -0.1246412843
 H   -0.4445571491    2.0239769461   -0.4759589319
 H    0.0929791043    1.6348453182    1.1704943310
 H    0.4142515182   -0.1500282914   -1.2930112561
 H    0.1040633731   -2.1079509149    1.4790880661
 H    3.3218059852   -0.7297181088    1.7162347000
 H   -3.2033678008   -1.3740221463    0.4692006279