17

 O    0.1105147412    0.3281295156    0.9999445679
 C   -0.0159387724    1.3268865828    0.3128438150
 C   -1.3628772816    1.7431457546   -0.1330933869
 C   -1.7334606244    2.6027940540   -1.0901923165
 C   -0.9009506561    3.4320700584   -2.0242435973
 C    0.4674016013    2.8699347492   -2.4308935210
 C    1.4728053266    2.7958573430   -1.3004116689
 O    1.1861633726    3.5317037680   -0.1172638424
 C    1.2312247254    2.1000864947   -0.0193914803
 H   -2.1361784436    1.2078727891    0.4115059159
 H   -2.8068164655    2.7288447565   -1.2256719565
 H   -1.4842062723    3.6031629137   -2.9359330736
 H   -0.7581103387    4.4215077017   -1.5701298145
 H    0.3549391209    1.8759213920   -2.8812984981
 H    0.8798101878    3.5182783071   -3.2123643010
 H    2.5179978611    2.8444010942   -1.6109272271
 H    2.0899658377    1.7077321653    0.5229575054