16

 O   -0.0088350282    0.1539581733   -0.6065663455
 C   -0.0058866858    1.2456148232   -0.1038038254
 C   -1.2521019388    2.0781235149    0.2132123564
 C   -0.7425461840    3.3461176440    0.8810023096
 O   -1.4013284158    4.1917704863    1.4381942058
 C    0.7608431198    3.3759631662    0.7793659692
 C    1.3793134176    4.6929273192    0.4208754347
 N    1.4937031671    4.1684024119    1.7748603286
 C    1.2523479714    2.0164825383    0.3238392836
 H   -1.7856230796    2.3199372107   -0.7141311257
 H   -1.9605152696    1.5334238435    0.8447760429
 H    2.2974515123    4.6840103145   -0.1607160502
 H    0.7086885048    5.5279895344    0.2373233788
 H    0.8011993024    4.6317348580    2.3655438925
 H    1.7358609516    1.4704625569    1.1425408511
 H    1.9674599048    2.0470136147   -0.5030462363