22

 C   -0.0403790176    1.5610230965   -0.0407141850
 C    0.0260929691    0.0251003085   -0.0140858186
 C    0.6942863778   -0.4866039783   -1.3003386621
 C    0.7327186281   -0.5130994831    1.2510998175
 C    0.0482568576   -0.0486147856    2.5385783027
 O    0.6829667168   -0.5819675328    3.7100680069
 C    1.1319860256   -1.8548741368    3.6068454717
 N    1.1990954234   -2.6015251494    2.5906411523
 C    0.7994988314   -2.0505648586    1.2979559583
 H    0.9645459442    1.9977283674    0.0036859370
 H   -0.5087199655    1.9071543945   -0.9676327497
 H   -0.6214808358    1.9726436108    0.7892518776
 H   -1.0060197808   -0.3570507185    0.0014796660
 H    1.7437000074   -0.1720517001   -1.3480765336
 H    0.6673381058   -1.5763725504   -1.3789439010
 H    0.1877160127   -0.0803141700   -2.1816139639
 H    1.7615247245   -0.1248009405    1.2659947929
 H    0.0844863777    1.0340631112    2.6655759311
 H   -1.0058993196   -0.3609519159    2.5428638288
 H    1.4680406770   -2.2064793802    4.5809930900
 H   -0.1765998662   -2.4780566219    1.0246415329
 H    1.5104898365   -2.4258759866    0.5558071382