20

 C   -0.1933632201    1.4546465156   -0.0643652431
 O   -0.3816244981    0.0785827849   -0.3248055597
 C    0.5773474644   -0.5279313749   -1.1518178820
 C    0.5138933299   -0.0243885249   -2.5929504101
 C    2.0312429938   -0.6376382947   -0.5923499854
 C    2.0262193982   -2.1477455688   -0.9388396906
 C    0.4679937887   -2.0958945311   -1.0881405328
 C   -0.2440356925   -2.6088471652    0.0711771752
 N   -0.7891355935   -3.0549892233    0.9878608880
 H    0.8141212934    1.6648951182    0.3224083728
 H   -0.3632929280    2.0776728840   -0.9531706265
 H   -0.9249515074    1.7293107775    0.6983424520
 H    0.8152224551    1.0252858423   -2.6574553049
 H    1.1865426491   -0.5974657978   -3.2384744004
 H   -0.5051029094   -0.1191648075   -2.9803562548
 H    2.7983287919   -0.0161856071   -1.0592170000
 H    2.0397156179   -0.4742721509    0.4878889449
 H    2.5061035774   -2.3723377287   -1.8932095558
 H    2.4075070796   -2.8319282753   -0.1814791231
 H    0.0566260995   -2.5612822723   -1.9876196736