14

 O    0.0763351491    1.4368444991   -0.0717525582
 C    0.0012762148    0.0375236091   -0.0196035180
 C    0.8860691258   -0.5134379408    1.0143445895
 N    1.5776782739   -0.9071854424    1.8525831485
 C   -1.3730214789   -0.6595894674   -0.0483067332
 C   -2.0937922236   -0.3218765553   -1.2829538443
 N   -1.0379006405   -1.3722561334   -1.3640549911
 C    0.2064865601   -0.6413477082   -1.4057354139
 N    1.0834686299   -0.6676949327   -2.2954280157
 H   -0.0087781331    1.7948383576    0.8202688314
 H   -1.8036091422   -1.2068872299    0.7808314420
 H   -3.0902698968   -0.7312112790   -1.4069050690
 H   -1.9173763275    0.6329130668   -1.7686823945
 H    1.8755937589   -0.0694485134   -2.0552210335