17

 C   -0.0590629096    1.5964774492   -0.1485600954
 C   -0.0361864812    0.0749724617   -0.0825721357
 C   -1.4228141427   -0.5239465508    0.2268919871
 O   -1.9048725158   -0.1005365605    1.4833315168
 C    0.7422055950   -0.6647304966   -1.1973975219
 O    2.0770040464   -0.1881111951   -1.1515267212
 C    1.7293173094   -1.2642646250   -0.2549039871
 C    0.9721009012   -0.6197478785    0.8918772534
 O    0.9456454208   -0.7867459904    2.0806928894
 H    0.9394425509    1.9958167304   -0.3363690406
 H   -0.7265258826    1.9334898000   -0.9499487544
 H   -0.4371724009    2.0024052871    0.7924843725
 H   -2.1463688901   -0.1779973310   -0.5205273114
 H   -1.3801547323   -1.6242628862    0.1569103058
 H   -1.2407640049   -0.3491324001    2.1406259185
 H    0.3783594202   -1.0872055756   -2.1268992909
 H    2.3146824962   -2.1742569085   -0.3059724451