16

 O   -1.6469486651   -1.5611401661    2.0693911046
 N   -0.6991194116   -1.4129932857    1.0631976939
 C   -1.1267413256   -0.6962953553    0.0801634208
 C   -0.2028147556   -0.5024787621   -0.9912035767
 C    0.5244664649   -0.2986169841   -1.9286533561
 C   -2.4864680903   -0.0632420566   -0.0273414813
 C   -2.5630885650    1.4369693502   -0.4170087341
 O   -3.4316948067    1.1542049709   -1.5294126606
 C   -3.2822510305   -0.2653878390   -1.3442523848
 H   -1.1788843324   -2.1080048346    2.7098681989
 H    1.1803548704   -0.1295371220   -2.7470037972
 H   -3.0669184697   -0.3012818438    0.8598611241
 H   -3.0339373785    2.0952773612    0.3215846181
 H   -1.6094629837    1.8723372948   -0.7395069914
 H   -2.7080957630   -0.7283314918   -2.1560348796
 H   -4.2466369375   -0.7753776262   -1.2420206185