20

 C   -0.0687518307    1.5231606820    0.1017169437
 C   -0.0013825923   -0.0011118158   -0.0245690701
 C    0.7681802461   -0.5001593283   -1.2719706519
 C    2.2569056472   -0.1025651501   -1.2567685935
 C    0.6171498995   -1.9826723498   -1.4175157731
 C    0.0224410842   -2.7803001196   -2.3480544040
 C    0.2489740775   -4.0937151295   -1.8591260771
 N    0.9200802351   -4.0975415956   -0.7347349060
 O    1.1559419797   -2.7518869150   -0.4511591914
 H    0.9191627439    1.9689561825    0.2502763525
 H   -0.5092541789    1.9774445836   -0.7932559030
 H   -0.6881405072    1.8099460606    0.9569306700
 H    0.4617191701   -0.4334104623    0.8700229604
 H   -1.0199019694   -0.4044803694   -0.0669384596
 H    0.2991492808   -0.0571105758   -2.1595359046
 H    2.7600576753   -0.5211133949   -0.3801605374
 H    2.7685494439   -0.4757262613   -2.1485991291
 H    2.3703102750    0.9840137814   -1.2336936872
 H   -0.4954778591   -2.4775166417   -3.2425852095
 H   -0.0540973707   -5.0382078807   -2.2892020392