21

 C    0.0439984696    1.4342004517    0.0632091554
 C    0.0006768619   -0.0780431141   -0.0195905910
 C    0.2011652995   -0.6820654700   -1.4623040080
 C   -1.1205587837   -1.4305768357   -1.3041911932
 C   -1.2267668354   -2.1936350004   -0.0005063566
 C   -0.1067572463   -2.8286480920    0.8093078842
 C    1.1531766642   -1.9505527972    0.9169261711
 O    0.8773406774   -0.5608979898    0.9904434362
 C   -1.4091619708   -0.7077168954    0.0168077315
 H    1.0503766959    1.8011719571   -0.1601871510
 H   -0.6600776404    1.8804577483   -0.6448735685
 H   -0.2230995992    1.7611153668    1.0731453200
 H    0.1286291470    0.1117322870   -2.2104856932
 H    1.1060029439   -1.2599121909   -1.6660981670
 H   -1.8138293545   -1.6347541578   -2.1118286334
 H   -2.1638667365   -2.7426676354    0.0635350371
 H   -0.5038896019   -3.0101891354    1.8159386176
 H    0.1755773890   -3.8069433888    0.4015146385
 H    1.7023754898   -2.1906434072    1.8319156454
 H    1.8294027245   -2.1562528290    0.0753220062
 H   -2.3088315139   -0.2119057918    0.3623104488