19

 C    0.0115317474    1.5554264411   -0.0813953642
 C    0.0549017672    0.0489017792    0.0138124671
 O   -1.0528073368   -0.6040126234   -0.5609028775
 C    1.3821339837   -0.6896561982   -0.0378660998
 C    0.5741202043   -0.6185162992    1.2526936415
 O    1.0293363120    0.2393521564    2.2577267519
 C   -0.0992784311   -1.8697382224    1.7773921447
 C    0.7925197295   -2.6868169126    2.6791924612
 O    1.8699512009   -2.3271706517    3.0955840529
 H    0.8270411152    2.0048315991    0.4867650431
 H    0.0940069839    1.8773552257   -1.1267164411
 H   -0.9362058566    1.9302860933    0.3173983660
 H   -0.9980968517   -0.4848056941   -1.5155827422
 H    1.4090295596   -1.6307154290   -0.5774489120
 H    2.2925628221   -0.1016990294   -0.0753212715
 H    1.7013062806   -0.2657995480    2.7381647354
 H   -0.9891511924   -1.6085306423    2.3718076660
 H   -0.4706281593   -2.5032074267    0.9657638779
 H    0.3825108515   -3.6781534478    2.9737260106