19

 C   -0.0343072851    1.5648928638   -0.0539799901
 C    0.0003461199    0.0359331099    0.0139438700
 C    0.5960612580   -0.6617871354   -1.2336775286
 C    1.2450366120   -1.9538745359   -0.6837786090
 N    1.4942635895   -1.7769399516    0.7680320593
 C    2.3084489175   -0.5899636402    1.1248877975
 C    3.1044251296    0.1305362002    0.1659798888
 N    3.7926591278    0.6947924959   -0.5744696690
 C    0.8079149093   -0.5454956214    1.1683863310
 H    0.9677259094    1.9777105547   -0.2030146915
 H   -0.6624621384    1.9001843722   -0.8851334123
 H   -0.4462655640    1.9935035321    0.8656001236
 H   -1.0258742895   -0.3256826035    0.1633424397
 H   -0.1702632218   -0.8800250192   -1.9815443075
 H    1.3395180492   -0.0201833860   -1.7106477426
 H    0.5642341503   -2.8064585545   -0.7665896133
 H    2.1744610285   -2.2197903263   -1.1943240491
 H    2.8286414914   -0.7133032433    2.0717378986
 H    0.3561730464   -0.5426738312    2.1576247743