16

 C   -0.0504985295    1.5924711773    0.0605698311
 C   -0.0106612778    0.0992239859   -0.0039528666
 C    0.0016940900   -0.7417960264   -1.1159729660
 N    0.0172955190   -2.0142145931   -0.6405839138
 N    0.0292047700   -2.0737443561    0.6980402257
 C    0.0063247548   -0.7963973632    1.0928860160
 N   -0.0705464594   -0.4622865253    2.4435895838
 C   -0.0093580380   -0.4920878018   -2.5478115826
 O   -0.0008066278   -1.3775260573   -3.3804604392
 H    0.8905247944    2.0108799802    0.4409414098
 H   -0.2292439620    2.0397112276   -0.9201033085
 H   -0.8469479747    1.9311220515    0.7330202279
 H    0.0224304544   -2.8511281951   -1.1996942333
 H    0.1176640695   -1.2603947804    3.0368337440
 H    0.5199520002    0.3172321958    2.7017288999
 H   -0.0258963631    0.5772323403   -2.8415294283