18

 C   -0.3645407389    1.4136913509   -0.0205195636
 C    0.0247078061   -0.0561978743    0.0173438291
 N    1.2288449333   -0.4302459014   -0.7570559435
 C    1.9416092509   -1.0490842328    0.3671494721
 C    0.7783987685   -0.5864331000    1.2559740757
 C    0.7654108670   -0.1198412105    2.6392946848
 O    0.1819565753   -1.3779949944    2.2533318024
 C    1.4192440723   -0.6428482816   -2.0809166562
 O    2.3796148510   -1.2145793782   -2.5531491815
 H    0.4848515284    2.0499347353    0.2441352140
 H   -0.7114980805    1.7010855866   -1.0178028020
 H   -1.1813932357    1.6055490060    0.6829814111
 H   -0.8378973141   -0.6928491225   -0.2205676276
 H    2.0344556006   -2.1368805778    0.2791481142
 H    2.9254634508   -0.6167504654    0.5725861228
 H    1.6701482078   -0.1911733729    3.2411115158
 H    0.0558351172    0.6445403182    2.9516400510
 H    0.5995537000   -0.2147492151   -2.6938808886