19

 C   -0.0081022196    1.5596545386   -0.1417268709
 C   -0.0557367692    0.0430081917    0.1165990502
 C   -1.4365422542   -0.5294069102    0.0146780515
 N   -2.1117860254   -0.9305885963    1.0925808022
 N   -3.2999860522   -1.3487987969    0.6193407879
 C   -3.4220958514   -1.2485276356   -0.7355965539
 C   -4.6330985862   -1.6500540198   -1.5064350544
 C   -2.2201173693   -0.7130483533   -1.1515896121
 O   -1.9153723585   -0.4125620206   -2.4523282553
 H    1.0176846202    1.9369245132   -0.0821224778
 H   -0.4032726219    1.8061134843   -1.1328489053
 H   -0.6138858850    2.0937483748    0.5959801865
 H    0.6148265744   -0.4663144383   -0.5912493505
 H    0.3296127919   -0.1791947283    1.1160106291
 H   -3.9820433429   -1.7055670243    1.2660136240
 H   -5.4889579340   -0.9930985067   -1.3094398053
 H   -4.4122177987   -1.5964481603   -2.5747896334
 H   -4.9431862645   -2.6760307300   -1.2765641547
 H   -0.9589725034   -0.3564527018   -2.5376559578