21

 C   -0.0026326162    1.5310138116    0.0419706246
 C    0.0704572997    0.0005215492   -0.0011116833
 C    0.6552915234   -0.5361022654   -1.2819082875
 C    0.0418562118   -0.3829174362   -2.7053874157
 C    1.1095056685   -1.4695848299   -3.0333735811
 C    2.3954318290   -0.7059673451   -2.7006968265
 O    2.0015183020   -0.0562020949   -1.4736445129
 C    0.7765599848   -2.0455402389   -1.6155568810
 O    1.7417635863   -2.7520851808   -0.8866420316
 H    0.9905511250    1.9661549897   -0.0923882181
 H   -0.6505405732    1.9207190095   -0.7504970583
 H   -0.4040811702    1.8748591477    0.9998419834
 H    0.6854539366   -0.3694442930    0.8277254655
 H   -0.9291025034   -0.4315449217    0.1285196260
 H   -0.9855347872   -0.7427617382   -2.7869710760
 H    0.1541178442    0.5931726120   -3.1800763842
 H    1.0883111068   -2.0709400337   -3.9419509482
 H    3.2476872205   -1.3671815517   -2.5123356295
 H    2.6669490676    0.0412603739   -3.4552742918
 H   -0.2021307834   -2.5404754703   -1.6004758533
 H    1.7143076874   -3.6749527437   -1.1567956705