12

 N    0.0452276780    1.4142545353    0.1743024769
 C   -0.0920979444    0.0552456862    0.0552962709
 C   -1.1222827897   -0.8315591822    0.0357319393
 O   -2.4869905789   -0.9860361000    0.0515093302
 C   -2.6103274997   -2.3556758359   -0.0022605892
 N   -1.5351689048   -3.0674707718   -0.0480055347
 C   -0.5283387232   -2.0999116287   -0.0256388079
 N    0.7850878335   -2.0807526161   -0.0443466863
 O    1.0475658762   -0.6733584640    0.0056470089
 H    0.9466212021    1.7600136042   -0.1250087868
 H   -0.7235105740    1.9526047201   -0.1972898661
 H   -3.6282837451   -2.7178932170   -0.0006687054