16

 C    0.0451506581    1.3624052415   -0.2238935851
 O   -0.0132950789    0.0256962688    0.2607765479
 C   -1.2478236576   -0.5546232534    0.1215195668
 C   -2.3671114980   -0.5259169499    1.1634547709
 O   -2.7346071641   -1.9009185346    0.8353339300
 C   -1.6117900225   -2.0190531052   -0.0538790133
 C   -1.8195343893   -1.0653810058   -1.1931433994
 O   -3.0924025142   -0.7603092203   -1.6656063782
 H    1.0787867401    1.6943757524   -0.1085486531
 H   -0.2402911091    1.4153544520   -1.2823777459
 H   -0.6110543296    2.0300211491    0.3508379811
 H   -1.9942098943   -0.4667247667    2.1907481812
 H   -3.1973083996    0.1715514051    1.0106192243
 H   -1.0548889467   -2.9488245472   -0.0524107916
 H   -1.0752704851   -1.1296905051   -1.9831559699
 H   -3.7084056090   -1.2237462107   -1.0815186756