15

 C    0.1058640712    1.5503144329    0.1489248302
 C   -0.1021814437    0.0434885987   -0.0769706550
 C    0.6524824697   -0.4896044197   -1.2594761709
 C    0.1338629954   -0.9789989025   -2.4180086613
 O    1.1187669687   -1.3614411155   -3.2769304759
 C    2.2977096778   -1.1100448549   -2.6511006604
 C    2.0810835716   -0.5789077131   -1.4214703361
 H    1.1631444531    1.7834317820    0.3105193549
 H   -0.2303226168    2.1246156711   -0.7197872252
 H   -0.4522417270    1.8953978318    1.0250110244
 H    0.2012756218   -0.4990076840    0.8277127291
 H   -1.1704389843   -0.1613446595   -0.2106100257
 H   -0.8750941445   -1.1199029809   -2.7704704807
 H    3.1852921868   -1.3644742496   -3.2067360817
 H    2.8362435804   -0.2870032167   -0.7075231555