20

 C   -1.7644315478   -0.9933174423   -0.7382884152
 C   -0.4359192898   -0.4296562395   -0.2178045265
 C    0.7371746066   -0.6301762401   -1.1681246378
 C    0.6720580767    0.1413941730   -2.4669761248
 O    0.7180625476    1.5311789585   -2.1638602854
 C    2.1188685395   -0.8209667264   -0.5645811296
 C    1.4064265126   -1.9778753339   -1.2201541701
 O    0.8504906731   -2.9956836385   -0.4361132770
 H   -2.0766538370   -0.5146183380   -1.6723776018
 H   -1.6835271258   -2.0694682802   -0.9162242774
 H   -2.5636660090   -0.8292790207   -0.0083572993
 H   -0.5336063131    0.6439294271   -0.0232507092
 H   -0.2011534900   -0.9098763671    0.7359333058
 H    1.5177782635   -0.1482290333   -3.1113989486
 H   -0.2511580087   -0.1111587207   -3.0109860446
 H    0.5490957432    2.0195509727   -2.9747901274
 H    2.9748660497   -0.3811330604   -1.0654800617
 H    2.1821261166   -0.8336273330    0.5185535410
 H    1.7811181338   -2.3142900298   -2.1880378529
 H    1.5732759784   -3.5043739874   -0.0547902776