17

 N   -0.1154461163    1.4541398743   -0.2034727353
 C   -0.0645285298    0.0456672005   -0.0362310023
 C   -1.1393273822   -0.7929076100    0.1916552260
 C   -2.5942786944   -0.4998613535    0.3238882316
 O   -3.4016056839   -1.4314921618   -0.4018544559
 N   -0.6539411764   -2.0746595360    0.2930207593
 C    0.7083916028   -2.0875153370    0.0817717653
 C    1.0958585919   -0.7791150929   -0.1017004889
 O    2.3408033158   -0.2502006007   -0.3148956707
 H    0.7567759302    1.7783798044   -0.6077807346
 H   -0.2229105576    1.9367102373    0.6832483793
 H   -2.9432413719   -0.5894986788    1.3606422447
 H   -2.7690005743    0.5381141846    0.0078712211
 H   -3.1365708992   -1.3675389304   -1.3261487295
 H   -1.2514864773   -2.8818484558    0.3251708621
 H    1.2766933502   -3.0034613800    0.0897945502
 H    2.9677784825   -0.9662816743   -0.4504352424