25

 C   -0.1116428592    1.6041529263    0.0637331609
 C   -0.0643291973    0.0733423773    0.0382064867
 C    0.7430422052   -0.4756462209   -1.1462126545
 C    0.7499679873   -2.0054128382   -1.2530367274
 O    1.2849630996   -2.6048588821   -0.0840628215
 C   -0.5908406779   -2.6014419450   -1.7939505202
 C    0.0613152557   -2.6992725099   -3.1978711747
 C    1.4545643662   -2.5683189806   -2.5247491549
 C    2.5665274991   -1.7994339939   -3.2213998894
 H    0.8965186554    2.0287928198    0.1215030629
 H   -0.5844678556    1.9993594021   -0.8420592160
 H   -0.6788664084    1.9725108074    0.9242030187
 H    0.3783391817   -0.2791802024    0.9795181271
 H   -1.0879576338   -0.3222461002    0.0080666097
 H    0.3408471208   -0.0538097944   -2.0764136681
 H    1.7792462852   -0.1241833641   -1.0652585764
 H    0.7542011815   -2.3290172350    0.6704373766
 H   -0.7664989457   -3.5867064895   -1.3548175865
 H   -1.4974355049   -1.9981780055   -1.6956194699
 H   -0.1305792152   -3.6022691205   -3.7813566954
 H   -0.1728733657   -1.8307644582   -3.8218487696
 H    1.8130994493   -3.5663197085   -2.2507626807
 H    2.2426267085   -0.7994542984   -3.5285305725
 H    3.4412690840   -1.6861063211   -2.5717790466
 H    2.8926554743   -2.3292389847   -4.1233476784