17

 C   -0.5618324842    1.6612886553    0.5206113695
 N   -0.6153125430    0.2483419972    0.8353902347
 C   -0.0988865076   -0.5542604404    0.0042072993
 N   -0.0919495974   -1.9189384727    0.2612906525
 C    0.2594179727   -2.8832999829   -0.6699927239
 N    0.5719587073   -2.5944382839   -1.8682917045
 C    0.2895184768   -4.3236916989   -0.1611845637
 N    0.3818610529   -4.4747256923    1.1973256517
 O    0.2284690539   -5.2520779808   -0.9380678250
 H   -0.0632456915    1.8862159175   -0.4350505504
 H   -1.5792400241    2.0677458639    0.4845203012
 H   -0.0362816911    2.1967994316    1.3200101832
 H    0.3809628962   -0.2899110141   -0.9419351037
 H   -0.6105782360   -2.2016084564    1.0799747878
 H    0.8076610060   -3.4615151155   -2.3538436591
 H    0.7781118010   -3.7347470238    1.7548420810
 H    0.5330745681   -5.4175206039    1.5249566194