20

 C   -0.0242532920    1.5416214403    0.0059499775
 C   -0.0150258951    0.0028779593    0.0236541522
 C    0.7470727837   -0.5211033035    1.2535720200
 C   -1.4561758687   -0.5229291624    0.0456835301
 N    0.6681693534   -0.4819567260   -1.2003027697
 C    0.1942533592   -1.2675563928   -2.2168776207
 N    1.1124005134   -1.4741597993   -3.1267077257
 N    2.2477320510   -0.8078891812   -2.7150755474
 C    1.9607700339   -0.2306517076   -1.5766277924
 H    0.9909140517    1.9476780597   -0.0000311790
 H   -0.5462517673    1.9158017866   -0.8791215219
 H   -0.5334145171    1.9235607561    0.8956640838
 H    0.2543014011   -0.1851332586    2.1706273897
 H    0.7744849368   -1.6142987304    1.2557568321
 H    1.7769001123   -0.1542656466    1.2725753947
 H   -2.0290976291   -0.1660813871   -0.8149078855
 H   -1.4864585525   -1.6161287377    0.0598270905
 H   -1.9526507169   -0.1627436243    0.9504503398
 H   -0.8083814172   -1.6583435706   -2.2505589996
 H    2.6417355293    0.3699289962   -0.9951559283