12

 O   -0.0965375338    1.4830549503    0.0099159603
 C   -0.0258211862    0.0687522337    0.0030172184
 C   -1.3685411721   -0.4912603857    0.0123815588
 C   -2.4672087419   -0.9934172817    0.0197292859
 C   -3.8037190919   -1.5315901182    0.0293462156
 O   -4.0716773198   -2.7098714281    0.0267375977
 C   -4.9170081252   -0.4517155250    0.0443271459
 O   -6.0783083298   -0.7433561484    0.0535172234
 H    0.8052406505    1.8202647681    0.0057545117
 H    0.4989036526   -0.3144444291   -0.8878072587
 H    0.5145507799   -0.3222976565    0.8809612278
 H   -4.5521392624    0.5979270806    0.0457631433