16

 O    0.2901882394    0.1590428088    0.5618607021
 C    0.2734575379    1.3426530392    0.3449536269
 N    1.2353196726    2.0125520148   -0.4071426970
 C    2.6572711387    1.9685870692   -0.2282454920
 C    1.8921238589    3.2688569059   -0.1452323085
 C    2.1882010921    3.6093969952    1.3435682348
 C    3.7175315570    3.3516999225    1.4359379349
 C    3.1541014167    1.9143724286    1.2457101735
 O    1.9801816470    2.3321591461    1.9992005491
 H   -0.5669739638    2.0100090468    0.6160696076
 H    3.2928514299    1.6625822586   -1.0511029649
 H    1.8774742885    4.0353819808   -0.9117216402
 H    1.6787883269    4.4488735962    1.8141265846
 H    4.3704833309    3.7679647022    0.6643488333
 H    4.1139875162    3.5212165241    2.4381663325
 H    3.6303951611    1.0099647710    1.6175238633