14

 O   -0.0071717278    0.0783156773   -0.2010107867
 C    0.0484128961    1.2540248286   -0.0178657828
 O   -1.0519271863    2.0934848568    0.0652303966
 C   -0.5047261528    3.4443920017    0.2890217022
 C    0.7151662096    3.5528578747   -0.6299571938
 C    1.7709957548    3.9483558569    0.4455215280
 N    2.5745347478    2.6461732379    0.3610178399
 C    1.1471740007    2.2662816464    0.1691827208
 C    0.6538436825    3.2614742442    1.2727240542
 H   -1.3355740059    4.1406098424    0.3736574261
 H    0.7677588590    3.6670254792   -1.7124174456
 H    2.2656127985    4.9035252274    0.6166223519
 H    3.0781435489    2.5936302934   -0.5286997331
 H    0.6491832649    3.0416249331    2.3381718822