17

 C    0.0270620711    1.4195944955    0.0730923666
 N    0.0877529038   -0.0255768680   -0.0166303359
 C    0.1477317441   -0.7871798740   -1.1457183635
 C    0.1202501310   -2.1006538358   -0.7434938121
 C    0.0392429900   -2.0351738658    0.6668579680
 N    0.0173407401   -0.7656586216    1.0946036876
 C   -0.0102117636   -3.1790839062    1.6047869066
 C   -0.0875312201   -2.8642336480    3.0852383459
 O    0.0109266355   -4.3179012358    1.1812871938
 H    0.4446703264    1.8530990073   -0.8372718693
 H   -1.0055800115    1.7617366735    0.1945336400
 H    0.6124191246    1.7450380966    0.9340442372
 H    0.2070795314   -0.3325249966   -2.1220828807
 H    0.1610764879   -2.9891169288   -1.3500509694
 H   -0.9729081319   -2.2577619562    3.2998060903
 H   -0.1228871399   -3.7969342120    3.6489324511
 H    0.7777717011   -2.2687941139    3.3928015838