16

 C   -0.2211497815    1.3989678384    0.0684597478
 C    0.3171448393   -0.0263139255    0.0592623794
 N    0.5294276448   -0.4820846577   -1.3243800549
 C    0.8396408670   -1.8010168803   -1.5429272380
 C    1.7321311584   -2.4528022841   -2.2952025513
 O    1.4547668629   -3.8208460501   -2.2191400412
 C    0.4126659981   -3.9797078089   -1.3683781663
 O   -0.0821010093   -5.0070210281   -1.0321440172
 O    0.0110843356   -2.7320295217   -0.9449361751
 H    0.4907201284    2.0967278774   -0.3876597119
 H   -1.1617346833    1.4617119132   -0.4853812312
 H   -0.3964033152    1.7311347986    1.0953165944
 H    1.2448141832   -0.0901215031    0.6491540734
 H   -0.4034083448   -0.7079907714    0.5174571607
 H    1.1300536679    0.1360692559   -1.8546506426
 H    2.5461681385   -2.1462461126   -2.9244301661