20

 C   -0.0576581102    1.5468194323    0.0262448861
 C   -0.1930043871    0.0213438007   -0.0578299936
 C    0.6483800383   -0.5753523085   -1.1550650650
 C    0.3391033275   -0.3302930759   -2.6536727815
 C    0.5741612044   -1.8454582372   -2.9428672230
 C    0.8932875744   -2.0895370392   -1.4348826304
 C    2.3220283906   -1.7643220498   -1.0815984455
 N    3.3820043405   -2.4282583575   -0.9806303634
 O    2.0933037736   -0.4119423482   -0.8987845416
 H    0.9829732413    1.8312032878    0.2053895924
 H   -0.3829087202    2.0273079081   -0.9025105721
 H   -0.6668283815    1.9478611172    0.8410619689
 H    0.0988421721   -0.4351724440    0.8954658430
 H   -1.2390489644   -0.2577078908   -0.2361567614
 H   -0.6879826380   -0.0049695736   -2.8380356138
 H    1.0234573784    0.3694771288   -3.1363122002
 H   -0.3314809110   -2.3634905931   -3.2632698776
 H    1.3812187825   -2.0960530678   -3.6331533409
 H    0.4118894791   -2.9168810811   -0.9171124956
 H    4.1696480995   -1.8293209982   -0.7258655949