22

 C    1.0594251024    0.0826459422   -0.0414060854
 C   -0.4249490719    0.3966089066   -0.2304607143
 N   -1.2207098003   -0.8222492168   -0.1047608062
 C   -2.1074992582   -1.0687048061   -0.9514972625
 O   -2.5140641764   -0.3527740925   -2.0670116080
 C   -3.4779666502   -1.3969071169   -2.4395070989
 C   -3.1890665090   -1.9610379325   -3.8135245451
 C   -3.0874289701   -2.2042337896   -1.1653325203
 C   -2.5156257724   -3.6124669374   -1.2723004485
 H    1.6558312992    1.0002138624   -0.0714762146
 H    1.2270735793   -0.4121562293    0.9195749743
 H    1.4193189691   -0.5850108659   -0.8305813374
 H   -0.7489442712    1.0897711309    0.5572146235
 H   -0.5872505776    0.9043102241   -1.1905509012
 H   -4.4892242237   -0.9793750466   -2.3976485275
 H   -2.1681655829   -2.3451417393   -3.8829662589
 H   -3.8846573537   -2.7742402201   -4.0459649774
 H   -3.3119225876   -1.1818689925   -4.5716554067
 H   -3.8875435558   -2.1843360312   -0.4188581891
 H   -1.7019003219   -3.6701473833   -1.9999583667
 H   -2.1115197353   -3.9167924675   -0.3028802489
 H   -3.2879804618   -4.3325996886   -1.5606166403