18

 C   -0.0398110443    1.3841191846   -0.0090142458
 C   -0.0335688096   -0.0787883248    0.3248755231
 N    0.8201680957   -0.5922187293    1.1068399127
 O   -1.0599397387   -0.7098319835   -0.3310666665
 C   -1.1606409187   -2.1068183786   -0.2056926205
 C   -1.9019754725   -2.7609718961    1.0018121036
 C   -3.2360088793   -2.1584964215    0.5006730573
 C   -2.4703182557   -2.7499944326   -0.7073634797
 O   -2.1201188903   -3.9279123861    0.1202116233
 H    0.7692812007    1.8833243419    0.5218109406
 H    0.0802277268    1.5262882081   -1.0874903518
 H   -0.9984603429    1.8317474991    0.2714247576
 H    0.6865475721   -1.5938728772    1.2377871658
 H   -0.2482356724   -2.6238735858   -0.5138872535
 H   -1.5569814773   -2.9543554623    2.0170398376
 H   -4.1258418023   -2.7150979805    0.7950785248
 H   -3.3614231871   -1.0762486798    0.5449292093
 H   -2.7996190843   -2.9284144857   -1.7302902479