23

 C   -0.2695952665    1.5476827197    0.0445710235
 C   -0.0371802393    0.0344519206    0.0366838355
 C    0.6009755563   -0.4841026547    1.3335760653
 C    0.7818468330   -1.9994398443    1.3378198157
 C    1.9528974984   -2.6459167279    0.4898360164
 C    2.8948686644   -2.2863152146    1.6889734551
 C    1.6126403123   -2.6684957987    2.5045747723
 C    1.4751386152   -4.1438125355    2.1069560965
 C    1.6972422793   -4.1286974215    0.7885626060
 H    0.6726695452    2.0932448314    0.1681371832
 H   -0.7297875751    1.8867902960   -0.8889033082
 H   -0.9302739382    1.8421587250    0.8677610342
 H   -0.9918736431   -0.4824994117   -0.1274292571
 H    0.6014232270   -0.2337182256   -0.8145902332
 H    1.5504680551    0.0373883676    1.4998213976
 H   -0.0443782922   -0.2120716301    2.1811883521
 H   -0.1893412112   -2.4766262738    1.1672990589
 H    2.1699114805   -2.3484457691   -0.5363322257
 H    3.7768514224   -2.9150623326    1.8303816361
 H    3.1679745019   -1.2299212910    1.7474496761
 H    1.4762566842   -2.3893001633    3.5499605783
 H    1.2409151658   -4.9676082959    2.7661893851
 H    1.6944876246   -4.9367975800    0.0708537262