21

 C   -0.0250811771    1.5673523910   -0.1052437541
 C    1.5355762494    1.5692284699    0.0265302448
 C    1.4044509224    0.2246706076    0.7678723331
 C    2.1529479807   -1.1241183461    0.8424661597
 C    1.1972968384   -1.3882639686    2.0560815503
 C    1.2366882508    0.1389468884    2.3094803701
 O   -0.0982979444   -1.8227941505    1.6397483228
 C   -0.8875348866   -0.8132950815    0.9909902215
 C    0.0214590563    0.0284439262    0.1009823822
 H   -0.4985236936    2.0802520553    0.7373798282
 H   -0.4597226352    1.9435541756   -1.0337409351
 H    2.0184694928    1.4608262717   -0.9497581373
 H    2.0050883950    2.3986447288    0.5619982960
 H    2.0721614314   -1.7947866385   -0.0171566684
 H    3.1948069441   -1.0486680855    1.1705352052
 H    1.5164008219   -2.0820370677    2.8357356158
 H    2.1569670657    0.4268153729    2.8255355850
 H    0.3849417902    0.6161920935    2.7994267525
 H   -1.6627490850   -1.3522291047    0.4392213272
 H   -1.3925120551   -0.1864620081    1.7402068019
 H    0.1649523177   -0.4624433497   -0.8688464615