25

 C    0.0650150162    1.4253021748    0.0597966546
 O   -0.0854526483    0.0314715402   -0.0582095825
 C    0.6251065687   -0.5603166483   -1.1440152204
 C    2.1201406489   -0.7239423024   -0.8215214313
 C    2.3395215772   -1.6888182564    0.3522667656
 C    1.6811762105   -3.0485809908    0.0816358172
 C    0.1920008188   -2.8906235494   -0.2559575878
 C   -0.0313359105   -1.9234446953   -1.4331463884
 C   -1.5135903857   -1.7788019426   -1.7895734423
 H    1.0917068951    1.7245907216    0.3177165609
 H   -0.2184326549    1.9438669198   -0.8698908969
 H   -0.6005427256    1.7552987538    0.8619710635
 H    0.5112635332    0.0843109318   -2.0322356089
 H    2.6231856251   -1.1047037530   -1.7205032579
 H    2.5706556616    0.2520361676   -0.6093661501
 H    3.4113529516   -1.8121078821    0.5431138586
 H    1.9029692953   -1.2491803985    1.2569173521
 H    2.1944613439   -3.5389250841   -0.7579408792
 H    1.8045359771   -3.7088717079    0.9477078205
 H   -0.2492029783   -3.8654509132   -0.4952307611
 H   -0.3445723627   -2.5071713440    0.6205210474
 H    0.4963633871   -2.3313864925   -2.3078471497
 H   -2.0685571903   -1.3389550177   -0.9568600695
 H   -1.6507267516   -1.1314307808   -2.6631582574
 H   -1.9561576225   -2.7528525706   -2.0228060071