19

 C   -0.3759683720    1.4078483007    0.0521538894
 N    0.1043465700    0.0248861878    0.1068005916
 C    0.7217880954   -0.4551759954   -1.0743502173
 C    0.1152997695   -1.2103914238   -2.0649242631
 C   -1.2907503318   -1.6925405273   -2.1732423471
 N    1.0836937457   -1.4729901068   -2.9746643490
 N    2.2953962299   -0.9431055341   -2.6502882185
 C    2.0755116106   -0.3252780069   -1.4973047218
 N    3.1151656876    0.2744634490   -0.7756137749
 H    0.4000195532    2.1525754620   -0.1954195211
 H   -1.1608425365    1.4897971142   -0.7056972070
 H   -0.8115407814    1.6770727569    1.0195450868
 H    0.7314791109   -0.0908901693    0.8955975423
 H   -1.8685537246   -1.1331566736   -2.9190086302
 H   -1.3362875969   -2.7523701956   -2.4470869310
 H   -1.7785305636   -1.5653857458   -1.2036420178
 H    1.0007471775   -2.0006609423   -3.8253544006
 H    3.9643966383    0.2988567171   -1.3277180919
 H    2.8862973083    1.2113413533   -0.4663749387