16

 O   -0.2977182077    1.5075674720   -0.3107993535
 C    0.0386275462    0.1514777503   -0.0399645545
 C   -1.1807021289   -0.7715012531    0.2149112562
 C   -1.3795534008   -1.5978286689   -1.0798746364
 C   -0.0741859463   -1.4217983629   -1.8078208670
 C    0.7252548310   -0.5071793317   -1.2350846234
 C    2.0059663207   -0.0976216964   -1.6764783880
 C    3.1039058301    0.2687152989   -2.0117133108
 H   -0.7221116710    1.5373621909   -1.1755810224
 H    0.6952860477    0.2072771585    0.8326917293
 H   -0.9598027300   -1.4433455042    1.0494823934
 H   -2.0526484782   -0.1759663178    0.4945457442
 H   -1.5932558856   -2.6521949169   -0.8701720187
 H   -2.2198369319   -1.2406580006   -1.6916945127
 H    0.1767566292   -1.9720686354   -2.7078300690
 H    4.0684200555    0.5906685773   -2.3170175067