17

 C   -0.0583779815    1.5067759843    0.0545809444
 C   -0.0102165450    0.0021051473    0.0087292279
 C    0.0794399919   -0.6553910407   -1.2291355809
 N    0.1786699746    0.0338726737   -2.4398522725
 C    0.1252372836   -2.0567552295   -1.2163031034
 O    0.2037611554   -2.6748268268   -2.4314395073
 C    0.0851539554   -2.7308784423   -0.0038329639
 C   -0.0033274456   -1.9806421765    1.1644119477
 N   -0.0519831317   -0.6495760796    1.1780570310
 H    0.8010427997    1.9509452426   -0.4621381431
 H   -0.9632876524    1.9017679133   -0.4285002340
 H   -0.0587393544    1.8347409663    1.0944220130
 H   -0.3124695899    0.9155889694   -2.4636421273
 H   -0.0372298253   -0.5384560455   -3.2438854950
 H    0.2095902490   -3.6287088326   -2.3030968419
 H    0.1191717730   -3.8162205161    0.0295570061
 H   -0.0352390469   -2.4780946572    2.1302197293