19

 C    0.0321506700    1.5602468906    0.0054715134
 C   -0.0111842216    0.0606656722    0.1164467813
 C   -1.2862303994   -0.7193930651    0.4003199399
 N   -0.4729370907   -1.7887606084    1.0850525332
 C   -0.0910741265   -2.7679902492    0.0536246140
 C    0.9561803380   -2.0561547682   -0.7826047982
 C    1.7403163148   -1.1798201412    0.0990819323
 C    0.7125286257   -0.8063889268    1.1700966685
 N    0.8649372170   -0.5751618004   -0.9802768093
 H    1.0649196301    1.9210164434   -0.0236090805
 H   -0.4587516649    1.8860428298   -0.9182204216
 H   -0.4782390052    2.0281197575    0.8537150663
 H   -1.9433349241   -0.2171430714    1.1192119453
 H   -1.8820785064   -1.0648470413   -0.4514782456
 H    0.3542239599   -3.6639418166    0.5061167820
 H   -0.9803845284   -3.0829844383   -0.5006404107
 H    1.4251223845   -2.5516939958   -1.6274802040
 H    2.8178227106   -1.0644959582    0.1235827921
 H    0.9907750964   -0.5095303125    2.1797654017