14

 O   -0.1277683594   -0.0295894315    0.2100880091
 C   -0.0148583120    1.1435942861   -0.0194966362
 C    1.3346653923    1.8304485884   -0.2073691023
 C    1.3125599923    2.8508081293   -1.2951996354
 N    0.3983247460    2.9164140185   -2.2150367681
 N    0.7768687023    3.9794952645   -3.0011497305
 C    1.9378738417    4.6018163991   -2.5907832309
 O    2.5273588417    5.5480882464   -3.0594992665
 N    2.2608608651    3.8329561128   -1.4605205649
 H   -0.8904617070    1.8207789888   -0.0791013837
 H    1.5839812319    2.3191671226    0.7466634256
 H    2.0949336463    1.0613593774   -0.3804375407
 H    0.2215165973    4.2445955162   -3.7952721097
 H    3.0789584516    4.0018200215   -0.9010873158