20

 C    0.0084685612    1.4840063717   -0.0743837418
 C    0.0109113091   -0.0317439575    0.0260836846
 C   -1.1839411215   -0.6785491394   -0.6532933200
 C    1.3538873470   -0.7480405601   -0.0379598688
 C    0.6071933170   -0.6472293118    1.2718736994
 O    1.0725948071    0.2603478481    2.2307653066
 C    0.0006941318   -1.8954648365    1.9146555585
 C    0.9957544024   -2.5728506424    2.7484344955
 N    1.8141100918   -3.0635405978    3.4008126916
 H    0.8475200613    1.9236907496    0.4647801620
 H    0.0632782954    1.7917048345   -1.1245825077
 H   -0.9139326700    1.9000105642    0.3465799480
 H   -1.2400499447   -0.3501900568   -1.6970720970
 H   -1.1315008633   -1.7704231821   -0.6649583134
 H   -2.1232878896   -0.3891411581   -0.1678523938
 H    1.4039225401   -1.7104442806   -0.5381334354
 H    2.2474379048   -0.1405895456   -0.1359273828
 H    1.8640780320   -0.1137327240    2.6372266706
 H   -0.8463774348   -1.6089311339    2.5482890099
 H   -0.3679143572   -2.6012601617    1.1668146943