15

 N    0.1800351740    1.2929605603   -0.3129392929
 C    0.0280628928   -0.0623362586   -0.1141387430
 N   -1.1126118595   -0.7055168157    0.0716000808
 C   -0.6946602084   -1.9839713670    0.2978325222
 N    0.6066806451   -2.1816129759    0.2577871236
 N    1.0738571184   -0.9169461755   -0.0065080486
 C    2.4991526951   -0.6511099542   -0.0714450443
 C    2.9093061266   -0.0209271858   -1.3261284627
 C    3.2311151823    0.5297143538   -2.3446086804
 H    0.9048357722    1.5435250123   -0.9740569201
 H   -0.7037328388    1.7356342723   -0.5236025029
 H   -1.3804741898   -2.7955009878    0.4921353959
 H    2.7984445353   -0.0161158547    0.7727895257
 H    2.9889723291   -1.6197946175    0.0546387849
 H    3.5330867055    0.9890513341   -3.2539913182