18

 O   -0.1052066785    1.4940662275    0.0724614427
 C    0.0220765859    0.0815027088    0.1208314898
 C   -1.3862770328   -0.4880555882   -0.0185641207
 C   -1.4374740703   -2.0174428263    0.0150491686
 O   -0.8713891869   -2.4664345150    1.2293590711
 C   -2.8885748938   -2.5446753899   -0.0839840883
 O   -2.9143228370   -3.9433803733    0.1405004410
 C   -0.6838827878   -2.6046584467   -1.1309857634
 N   -0.1479714462   -3.1178437966   -2.0179075652
 H    0.7681377567    1.8775599381    0.1934482041
 H    0.6585369979   -0.2924942554   -0.6960057929
 H    0.4617276568   -0.2562437463    1.0687429303
 H   -2.0025930772   -0.1167190191    0.8064162393
 H   -1.8269363572   -0.1278723456   -0.9543912398
 H   -1.1941962254   -3.3719015075    1.3510877360
 H   -3.4656442037   -2.0907405301    0.7262978751
 H   -3.3398068409   -2.2667945125   -1.0445608745
 H   -2.5774313697   -4.3820231420   -0.6502242832