14

 N    0.0268310758    1.3513978045    0.1081669406
 C    0.0597569470   -0.0350738196    0.0222371095
 N   -1.0149327634   -0.7871659242    0.0548857724
 O   -0.5804847975   -2.0977456444    0.0296533491
 C    0.7792371445   -2.1141879035   -0.0267871660
 C    1.4827973289   -3.3828494852   -0.0453915064
 O    0.9719257863   -4.4796460470   -0.0289511711
 C    1.2524551696   -0.8238845947   -0.0300539668
 N    2.5273204066   -0.2934222171   -0.1200159040
 H    0.5733036299    1.8025508642   -0.6166406649
 H   -0.9219898810    1.7063810869    0.1048660938
 H    2.5909556349   -3.2608141677   -0.0746082915
 H    3.2805854546   -0.9461357316    0.0439554717
 H    2.6464444639    0.5473875494    0.4318105736