16

 C   -0.0989088328    1.5424519388   -0.0018199231
 C   -0.0404113114    0.0237562840   -0.0645773575
 C    0.7910159683   -0.5202028727   -1.2241997215
 O    2.1132664409   -0.0257165128   -1.2292809219
 O    0.6327142918   -0.4891313582    1.1378135154
 C   -0.1103766547   -0.6515069527    2.2286321750
 O   -1.2835576172   -0.4292352197    2.3546465134
 C    0.7212579132   -1.1715446682    3.3238540739
 N    1.3334694431   -1.5790858106    4.2141229902
 H    0.9100506606    1.9594939594    0.0083610837
 H   -0.6191538443    1.9212530593   -0.8868366318
 H   -0.6470537228    1.8735287784    0.8824952094
 H   -1.0451873023   -0.4071784604   -0.0853715787
 H    0.7665620990   -1.6195984249   -1.1987866378
 H    0.3299286698   -0.1975608845   -2.1633746244
 H    2.5434220987   -0.3470023050   -0.4291216844