16

 N    0.0555525002    1.2336572861   -0.3935122603
 C   -0.0243155757   -0.0189492954    0.1530892571
 O    0.9103460502   -0.5503705112    0.7291634371
 C   -1.3347505607   -0.6814354266    0.0234117984
 C   -2.7378355110   -0.3772231500   -0.5869729657
 C   -3.3864486665   -1.2510370420    0.4762918877
 C   -2.9455287407   -1.8625041969   -0.8445375277
 C   -1.5528721862   -2.1814450536   -0.2221591606
 C   -1.9892418834   -1.5762489605    1.0845032701
 H    0.9631321972    1.6693358847   -0.4245529729
 H   -0.6635797189    1.5854239824   -1.0012776296
 H   -3.1422345051    0.4776243174   -1.1140217124
 H   -4.3733631090   -1.1861253308    0.9128560319
 H   -3.5315770969   -2.3547064162   -1.6082080933
 H   -0.7896039467   -2.9183441693   -0.4286564826
 H   -1.6299024971   -1.7516657181    2.0885726228