19

 C    0.1432265954    1.6261597643    0.1267581820
 C    1.3370249881    0.7352818119   -0.0718791833
 O    2.0847924181    0.4216076529    1.0740564716
 C    1.4488110586   -0.6300256681    1.8135654370
 C    1.3950319735   -0.2709784645    3.3138303541
 C   -0.0485711914    0.1058580320    3.5424644152
 C   -0.8147606380   -0.1396459766    2.4808570872
 C   -0.0311257623   -0.6976758773    1.3159792423
 C   -0.0270401013    0.1201386359    0.0192888732
 H    0.0241351557    2.0838442784    1.1030147606
 H   -0.1954378802    2.2266757444   -0.7113560904
 H    1.9217673365    0.7677479947   -0.9859096083
 H    1.9958674502   -1.5638933633    1.6331579220
 H    1.6879101973   -1.1227015712    3.9413760636
 H    2.0966119473    0.5407669082    3.5341451051
 H   -0.4011676650    0.5119709501    4.4847135182
 H   -1.8829735329    0.0388082916    2.4226152914
 H   -0.3382056390   -1.7253630365    1.0891329430
 H   -0.5222808506   -0.2889779569   -0.8530451747