16

 N    0.1202590818    1.5443225301    0.0545995382
 C   -0.0444978816    0.1170477840   -0.0311060761
 C   -1.3229122383   -0.6408820437    0.1388832188
 C   -2.5444284603   -0.1130426557   -0.6292575569
 C   -2.3363414946    1.0991297970   -1.4524807130
 N   -1.8484319452   -0.2080533040   -1.9575107156
 C   -0.5960625844   -0.6533343357   -1.2254523612
 C    0.1800836871   -1.6771294334   -1.8455613181
 N    0.8263847874   -2.5055862984   -2.3320434666
 H    0.0757004169    1.8371382355    1.0262147553
 H    1.0334049717    1.8088883458   -0.3016726336
 H    0.7707571249   -0.4865473043    0.3815677585
 H   -1.4034296580   -1.4627971151    0.8383101888
 H   -3.5159356636   -0.5769597084   -0.4973518380
 H   -3.1989179076    1.4224920244   -2.0294439295
 H   -1.6373644362    1.8644317519   -1.1530758610