17

 C    0.1219245159    1.3324131641   -0.1392128028
 N    0.3369987310   -0.1065381045   -0.1159048189
 C    0.5977868975   -0.6557475507    0.9834748063
 N    0.7136657010   -0.2680942120    2.3196066798
 C    1.1056477549   -1.6000215403    2.8021302280
 C    0.8412558991   -2.1464364479    1.3505823296
 N   -0.2587316838   -3.0913852207    1.2473572669
 C    2.0348138572   -2.6965378081    0.7090008691
 N    2.9875616528   -3.1139208901    0.2062821267
 H    1.0577266305    1.8543084792   -0.3777157243
 H   -0.5928049826    1.5769081248   -0.9302024942
 H   -0.2638179385    1.7384185739    0.8082604359
 H    1.0700860741    0.6106116670    2.6622724441
 H    2.1440393915   -1.6902982411    3.1322758404
 H    0.4351039104   -2.0229547373    3.5554570757
 H   -1.1060653039   -2.6477931669    1.5927809468
 H   -0.4265011673   -3.3055714895    0.2677725908