27

 C   -0.8411412958    0.3666051876    3.5152950352
 C   -0.7473091897   -0.9186964205    2.6767499016
 C   -0.7538303666   -2.1374945051    3.6122475047
 C   -1.8506033590   -0.9923620708    1.5854219419
 C   -1.8158581104    0.2356596492    0.6564567147
 C   -1.7381986751   -2.2600254495    0.7474034367
 C   -2.4093661759   -3.5607970231    1.1231730654
 C   -2.8730695669   -2.8067479304   -0.0981793844
 C   -4.2563136565   -2.1922219287   -0.1442342824
 H   -0.0812696576    0.3656767293    4.3037627938
 H   -0.6921817645    1.2703324272    2.9196430473
 H   -1.8204577828    0.4442834014    4.0039575361
 H    0.2208234529   -0.9055733290    2.1527096319
 H   -0.5865148713   -3.0722889494    3.0740614109
 H    0.0295066361   -2.0405987105    4.3715286442
 H   -1.7122714044   -2.2222398082    4.1392224101
 H   -2.8193519009   -1.0012441717    2.1052409912
 H   -2.5549010511    0.1385596041   -0.1429240122
 H   -2.0256965140    1.1662534549    1.1895376191
 H   -0.8310402883    0.3363633493    0.1837138017
 H   -0.7554336344   -2.3676906486    0.2892888715
 H   -1.8656515022   -4.4918988981    1.0008916671
 H   -3.0676978677   -3.5476732602    1.9870342718
 H   -2.5601770876   -3.2305254708   -1.0496431827
 H   -4.5491310179   -1.7676983952    0.8203956182
 H   -4.3218263048   -1.3939633514   -0.8919929038
 H   -5.0040232834   -2.9494230518   -0.4064543996