15

 C    0.0154182642    1.3870121283    0.0829981571
 N   -0.0219862289   -0.0555511985   -0.0219331362
 C   -0.0888630111   -0.7812102140   -1.1869713865
 C   -0.0020677901   -2.0922114039   -0.7754520005
 N    0.0020681752   -3.4369972403   -1.0829878321
 C    0.1242083597   -4.0935138785    0.1324675031
 N    0.1908101073   -3.3117533659    1.1783968348
 C    0.1137140015   -2.0437424225    0.6332125886
 N    0.1061333323   -0.7948835515    1.1027821224
 H    1.0416832873    1.7489362046    0.2073897013
 H   -0.4123700657    1.8242693592   -0.8214269408
 H   -0.5735003837    1.6937304080    0.9489085116
 H   -0.1881981441   -0.2951648948   -2.1428028867
 H   -0.0533771701   -3.8734279945   -1.9858198659
 H    0.1589617163   -5.1737737258    0.1666425299