24

 C   -0.0521282986    1.5459033592   -0.0469178883
 C    0.0035026060    0.0167178590    0.0000141653
 C    0.7371913224   -0.5226033125    1.2327857313
 C    0.7939641905   -2.0523306617    1.2812768148
 C    1.5235226023   -2.5789435144    2.5095048531
 O    1.5265550553   -3.9893239162    2.4685951911
 C    2.1826614697   -4.5799874782    3.5697238452
 C    2.1236240671   -6.0906888022    3.4177735818
 H    0.9544718509    1.9786448134   -0.0643897952
 H   -0.5815514172    1.8999711876   -0.9370505841
 H   -0.5689068969    1.9506797628    0.8305336868
 H   -1.0166835349   -0.3887512092   -0.0186432369
 H    0.4950240554   -0.3610099792   -0.9062230102
 H    1.7581644981   -0.1158384958    1.2517315997
 H    0.2452945097   -0.1438314113    2.1398624257
 H   -0.2213204458   -2.4676483331    1.2737680427
 H    1.2948138266   -2.4395978413    0.3854440663
 H    2.5585721023   -2.1937456148    2.5356109611
 H    1.0295676044   -2.2230235678    3.4313007774
 H    3.2308939257   -4.2370691815    3.6183887919
 H    1.7020224634   -4.2673588464    4.5131354847
 H    2.6250105250   -6.5793846009    4.2586012571
 H    1.0851294151   -6.4324552012    3.3857418734
 H    2.6143968735   -6.4023279041    2.4913175254