22

 C   -0.0499291479    1.5234086574    0.0775426580
 C    0.0037109634   -0.0045034555    0.0017001117
 C    0.7174562415   -0.5194878865   -1.2530188256
 C    0.7712135954   -2.0487847240   -1.3291059792
 C    1.4817469254   -2.5463508519   -2.5781420375
 O    1.4819385685   -3.9670066485   -2.5611027483
 C    2.1208690315   -4.5156409206   -3.6828233728
 C    2.0829477564   -5.9791045725   -3.5964633401
 N    2.0695814415   -7.1327560381   -3.5575663906
 H    0.9569090760    1.9556155115    0.0874187149
 H   -0.5812608688    1.9448277096   -0.7831056562
 H   -0.5646251268    1.8596787907    0.9828158711
 H    0.5098737079   -0.3994577906    0.8922243947
 H   -1.0160647876   -0.4101602796    0.0285908436
 H    0.2109766322   -0.1243170886   -2.1447725639
 H    1.7384588879   -0.1136301119   -1.2802477986
 H    1.2865575694   -2.4535533492   -0.4499642176
 H   -0.2434452645   -2.4642428644   -1.3160928873
 H    0.9736784381   -2.1816013649   -3.4869652870
 H    2.5185750471   -2.1709237793   -2.6124050987
 H    1.6321106613   -4.2083937381   -4.6227216784
 H    3.1747186521   -4.1968509249   -3.7496939921