21

 C   -0.4533064470   -2.2552345225   -2.9805538527
 C   -0.4137852577   -1.1360325631   -1.9338136196
 C   -0.3091204358    0.2356735516   -2.6109877853
 N   -1.5860184490   -1.0877641885   -1.0266562927
 C   -2.5583942707   -2.1633393567   -0.9019308651
 C   -1.6477226507   -1.8212260523    0.2254310209
 C   -0.5791341343   -2.8274567158    0.6425703806
 C    0.5961781270   -2.1913802298    1.2416153614
 N    1.5186061665   -1.6815642300    1.7157147215
 H    0.4170837562   -2.1746790043   -3.6385272818
 H   -0.4340831076   -3.2563807068   -2.5386151680
 H   -1.3522210107   -2.1775512179   -3.6018316851
 H    0.4828772113   -1.2691469788   -1.3151659533
 H   -0.2680951366    1.0275558081   -1.8594200291
 H    0.5889737506    0.2972228576   -3.2343945952
 H   -1.1836813668    0.4173523341   -3.2445925961
 H   -3.6030220773   -1.8604630766   -0.8863038935
 H   -2.3773163080   -3.1094389675   -1.4087047458
 H   -2.0278719260   -1.2392673283    1.0639906314
 H   -1.0047977976   -3.5201164133    1.3782981695
 H   -0.2521466459   -3.4328753691   -0.2083449921