24

 C   -0.1011632103    1.5493495908    0.1074208044
 C   -0.1104919024    0.0188193628    0.0772914136
 C    0.8365175294   -0.5863493744    1.1228232947
 N    0.8458636154   -2.0430587122    1.1477101194
 C    1.9136522320   -2.7292614606    0.6594428503
 O    2.0405223658   -3.9388946108    0.6373244112
 C   -0.3036734232   -2.7484768404    1.7557303300
 C   -1.0190102005   -3.6612311312    0.7506764478
 C    0.1104512285   -3.4978194748    3.0299928576
 H    0.9007675822    1.9452593915   -0.0923773025
 H   -0.7778966787    1.9636109526   -0.6452011762
 H   -0.4178770609    1.9299656101    1.0848586577
 H   -1.1292929885   -0.3484009315    0.2499804262
 H    0.1850491402   -0.3441899929   -0.9143000403
 H    1.8588545407   -0.2454110796    0.9254285007
 H    0.5729920613   -0.2134987020    2.1219983110
 H    2.6946120546   -2.0464406365    0.2662536029
 H   -1.0006975051   -1.9538644495    2.0435410722
 H   -0.3581011275   -4.4675495627    0.4302273655
 H   -1.9096361939   -4.0966908615    1.2148663732
 H   -1.3356198251   -3.0976675205   -0.1321655314
 H    0.5831391186   -2.8180853144    3.7459799850
 H   -0.7712679486   -3.9359046502    3.5082841838
 H    0.8142287161   -4.2965395921    2.7905606132