18

 O   -0.0234860171    0.0578173356   -0.1167858298
 C    0.0046213200    1.2524494041    0.0015009004
 N   -0.9972418132    2.2070208816    0.0787054895
 C   -0.0911086521    3.3609609354    0.0468299275
 C    1.0977647911    2.3400986969    0.0573615771
 C    1.5173485835    2.8213409710   -1.3693741817
 C    0.3513609997    3.8263182366   -1.3481027513
 C   -0.5313488473    4.2661453006   -2.4773564066
 C    0.4020054936    5.2521339970   -1.8137939385
 H   -1.9522322553    2.1319065101   -0.2467000963
 H   -0.2735486964    4.1097268159    0.8194763083
 H    1.8518832791    2.2810926591    0.8384030219
 H    2.5006086616    3.2980169897   -1.3842923551
 H    1.4915770861    2.0476060575   -2.1410296640
 H   -0.2851278947    3.9202760089   -3.4761086368
 H   -1.5967769801    4.3645672715   -2.2924335912
 H   -0.0316406087    6.0138890593   -1.1730722358
 H    1.2799358802    5.5784768493   -2.3622371176