16

 O   -0.1884293179    0.1584038152    0.4855309277
 C    0.1462314182    1.2862580863    0.6760110864
 O    0.4324636535    2.1335460173   -0.3397836750
 C    0.8454120721    3.4719083662    0.0128714951
 C    2.2444473221    3.5010920110    0.4321523240
 C    3.3939390903    3.5391829141    0.7783162044
 C    0.5999114329    4.3666683128   -1.1959628036
 C    0.7865140341    3.8567819819   -2.5718280681
 N   -0.5654832452    4.1542996516   -2.0523622617
 H    0.2502633726    1.7547558503    1.6719568111
 H    0.2113727771    3.8210017854    0.8409131800
 H    4.4113389061    3.5679224186    1.0837609925
 H    0.8220201313    5.4085155960   -0.9786910762
 H    1.1382561867    4.5276027580   -3.3494933214
 H    1.0705219082    2.8161557609   -2.6901880511
 H   -1.0125525420    3.2756754343   -1.7981180140