19

 C   -0.1341308843    1.5350465216   -0.0091821903
 C    0.0156805174    0.0503290888    0.0369327391
 C    0.0594594316   -1.0381566327   -1.0401531482
 C    1.3370956203   -1.6342744519   -0.4601273585
 O    2.5304027718   -1.1452884310   -1.0344088458
 C    0.9234373190   -0.9546979026    0.8777052334
 C   -0.3664348014   -1.7082154307    1.3108041769
 C   -0.9988702210   -1.0526619332    0.0859878575
 O   -2.3421432249   -0.8959180009   -0.1885132553
 H    0.7775890429    2.0347844428   -0.3569184625
 H   -0.9473337204    1.8115322452   -0.6882316320
 H   -0.3769240942    1.9419964804    0.9793212845
 H   -0.2470962835   -0.9607998191   -2.0772344009
 H    1.4481537998   -2.7240966530   -0.4405278017
 H    2.4150347490   -0.1993678373   -1.1824500908
 H    1.6865782397   -0.6756264768    1.6018856280
 H   -0.3151974654   -2.8022848834    1.3716239259
 H   -0.7908587670   -1.3046784550    2.2347069849
 H   -2.6602372594   -1.6901125511   -0.6321485241