21

 C   -0.0301096928    1.4437328874    0.0869049308
 C    0.0040279631   -0.0648522966    0.0073886902
 C    1.0106776256   -0.7260422044   -0.9446378927
 C    0.3342835517   -2.0573817792   -1.3660386241
 C   -0.7394216134   -2.2702718133   -0.2892937064
 C   -0.0891677461   -2.3164019127    1.1367936041
 C   -0.3824983614   -0.8259394322    1.2602976350
 O   -0.4845224928   -0.1357448311    2.4560801603
 C   -1.2933643873   -0.8565413787    0.0331354128
 H    0.9241725377    1.8392232564    0.4531573050
 H   -0.2134266873    1.8787829570   -0.9021614911
 H   -0.8085793761    1.7918467463    0.7691718840
 H    1.2030204422   -0.0789311297   -1.8068002167
 H    1.9768099884   -0.8940534051   -0.4557680523
 H   -0.1375806887   -1.9530745111   -2.3495783117
 H    1.0387702312   -2.8933980239   -1.4266144040
 H   -1.4550002690   -3.0639587887   -0.5041792508
 H   -0.7062231474   -2.8935348854    1.8342646096
 H    0.9497521282   -2.6584298133    1.2169074637
 H   -1.1592854276   -0.5659687242    2.9931727836
 H   -2.2789373382   -0.4494768077   -0.1534543895