18

 O   -0.0931357871    0.0763662910   -0.4564300864
 C   -0.0934960967    1.2225480113   -0.1172518796
 C   -1.1671135414    2.3053396040    0.1392032323
 C    0.0212121093    3.2927746606    0.0929933515
 N    0.9893090047    2.1319657694    0.0636498965
 C    1.6287318407    2.6285114539   -1.2036082213
 C    0.5750261650    3.7518464464   -1.2660881748
 C   -0.2031782013    4.2094285975   -2.4655777685
 C    0.7469964689    5.1530117907   -1.7647706930
 H   -1.9101281096    2.3796502548   -0.6575089924
 H   -1.6770224403    2.2383294410    1.1035680051
 H    0.1236603979    3.9946709184    0.9237056731
 H    2.6542156745    2.9680286022   -1.0321807642
 H    1.6210275843    1.8844000275   -2.0053541421
 H    0.0831132425    3.8190087874   -3.4368099437
 H   -1.2693743374    4.3768724706   -2.3492888904
 H    0.3243128699    5.9596510285   -1.1741374834
 H    1.6789745261    5.4047005848   -2.2609328086