17

 O   -0.1319491650    0.0413918251   -0.3041133386
 C    0.0034488649    1.1763634693    0.0659916127
 C    1.2964462566    1.9689193057   -0.0066755000
 O    2.4376976237    1.1447142404   -0.2135031838
 C    2.9340451127    1.6048771313   -1.4590921538
 C    2.8618795336    3.1585647835   -1.5270619654
 C    2.6001476407    3.0566678607   -3.0468070429
 C    1.7669517228    1.9032474515   -2.4423524989
 C    1.3480648205    2.8538977486   -1.2657059831
 H   -0.8520466922    1.7648612444    0.4760426806
 H    1.4034858314    2.5552866493    0.9183519270
 H    3.8196814180    1.0454586876   -1.7551802644
 H    3.4820011782    3.8742944584   -0.9865525448
 H    2.0376316529    3.8766800500   -3.4990240364
 H    3.4498987395    2.7737395195   -3.6743171963
 H    1.1338540976    1.1780403985   -2.9515163211
 H    0.5912520541    3.6242163262   -1.4125362309