25

 C   -0.1058528144    1.6232906886   -0.0085296711
 C    0.0714547693    0.1109111767    0.0063562716
 C    1.0663259963   -0.6139825499   -0.9518811324
 C    2.3920898698    0.1576732316   -1.0385207136
 C    3.0793571345    0.2652400232    0.3510548878
 C    2.0960753897    0.1484431524    1.5486950473
 C    0.8247616832   -0.6215132900    1.1594129258
 C    1.1728809778   -1.7411188750    0.1257704116
 C    0.1603689613   -2.8763966883    0.0058737676
 H    0.8353935572    2.1689848445    0.1010711809
 H   -0.5653239756    1.9501563562   -0.9486503929
 H   -0.7659921725    1.9438960208    0.8058478803
 H   -0.9165443440   -0.3449409070   -0.1083142384
 H    0.6979289561   -0.8904098676   -1.9453384006
 H    3.0702720499   -0.3462087728   -1.7370858435
 H    2.2057975236    1.1512386875   -1.4622985604
 H    3.8128612503   -0.5425572808    0.4320966580
 H    3.6571305100    1.1922845542    0.4204682599
 H    2.5993531341   -0.3608923670    2.3788217283
 H    1.8180789338    1.1391493337    1.9264298719
 H    0.2417163189   -0.9046306879    2.0420162888
 H    2.1711706560   -2.1784542725    0.2384299422
 H   -0.8663047317   -2.5152082314   -0.1103112447
 H    0.3855579467   -3.5086276568   -0.8604889192
 H    0.1845526196   -3.5148882924    0.8962411752