18

 N   -0.0798260221    1.0599569178    0.0133043426
 H    0.3898089598    0.1570998320    0.1369507543
 H    0.6270992096    1.7361509259   -0.2870097118
 H   -0.7733832007    0.9639679977   -0.7329040703
 C   -0.7028287655    1.4831721914    1.3181086229
 C   -1.3571945532    0.4149968276    2.1345013650
 C   -0.0498130016    1.0343880179    2.5831752799
 C    1.2290958428    0.2047023265    2.5735014404
 O    1.4377385851   -0.4038017897    3.8063841089
 C   -0.1727579780    2.1001523722    3.7355218441
 O    0.5715798052    1.8762219511    4.7170299952
 O   -1.0000971238    2.9961384894    3.5221814201
 H   -1.1028880645    2.4905392994    1.2847505778
 H   -2.2666092391    0.7020062652    2.6495608912
 H   -1.3330133995   -0.6089849568    1.7649228363
 H    1.1853213174   -0.6025075583    1.8103328246
 H    2.0720131230    0.8649382877    2.2858297654
 H    1.2309543750    0.3407164131    4.4374175036