17

 C   -0.2815726392    1.4487303604   -0.0603561779
 N    0.0026384197    0.0191743287    0.0445759106
 C    1.3708802593   -0.4240240069   -0.1935264773
 C    0.7821621484   -0.4770111844    1.1737827307
 C    1.3163725709    0.4237742862    2.2575764651
 C    2.7275725722    0.3276077511    2.6949939976
 O    2.2755677784    1.4249979106    1.9071702204
 C    0.3332395897    0.8545797322    3.2412151229
 N   -0.4654241653    1.1705652536    4.0143205640
 H    0.5509908829    2.1004068635    0.2382437252
 H   -0.5360784497    1.6695376928   -1.1010154895
 H   -1.1516586206    1.6854777256    0.5590636943
 H    1.4861145452   -1.3365648951   -0.7722275250
 H    2.1301550997    0.3368137024   -0.3630722030
 H    0.4248721421   -1.4258208374    1.5722861257
 H    2.9878854063    0.5673203991    3.7231696607
 H    3.3710943001   -0.3850861724    2.1835515655