17

 O   -0.0293646202    1.3907221385   -0.1474490143
 C    0.0283077597   -0.0086170201   -0.0282990263
 C    0.0987705743   -0.6078670145    1.4164970323
 C   -1.3933644983   -0.2235140078    1.5541285290
 C   -1.4049277613   -0.6177883543    0.0449460838
 C   -1.0477685947   -2.1183245196    0.1250117147
 N    0.0160101357   -2.0675564869    1.1856182387
 C   -2.1723421264   -2.9784047925    0.5154260285
 N   -3.0694222483   -3.6490442972    0.7992969214
 H    0.8372319703    1.7481333574    0.0712840491
 H    0.7189512810   -0.4512382826   -0.7635492308
 H    0.8604098701   -0.3321854360    2.1463565570
 H   -2.0006429259   -0.8083132050    2.2464609309
 H   -1.5398950119    0.8453212273    1.6890218443
 H   -2.1931333345   -0.3250671663   -0.6458893060
 H   -0.6618961994   -2.4903492023   -0.8306445461
 H    0.8881240099   -2.4249603780    0.8071386637