19

 C   -0.1127841843    1.5974120702    0.2291878032
 C    0.0435893883    0.0888110900    0.1855427792
 N    1.1820794501   -0.5253941332   -0.6747430828
 C    2.1156504400   -0.1538595574    0.4864194840
 C    0.8657789108   -0.7198446476    1.2065464120
 O    0.5630305487   -0.8040321302    2.5573743339
 C    0.9337441338   -1.8330409748    0.1160917149
 C   -0.2208971625   -2.7367595763   -0.2724388062
 H   -0.3634226560    1.9719228365   -0.7688514382
 H   -0.9413185545    1.8520407124    0.8982764920
 H    0.7695896767    2.1352499178    0.5800612254
 H   -0.9196259297   -0.3465021673   -0.0840784471
 H    3.0324491648   -0.7500032562    0.5068593189
 H    2.3406053617    0.9085782485    0.5588483061
 H    1.2406985200   -1.3316265250    2.9945171575
 H    1.8566984920   -2.4240270209    0.1399614174
 H   -0.0819833730   -3.0989651336   -1.2964349952
 H   -0.2321177606   -3.6090985140    0.3896096484
 H   -1.2044199164   -2.2674441789   -0.2110588035