16

 N   -0.0776817684    1.5283837963   -0.0508418255
 C    1.3364828353    1.8086481437    0.0147742629
 C    2.0986296127    0.8308359812    0.9901609998
 O    3.0937177951    0.5993379772   -0.0308736807
 C    2.0538676386    0.8675073994   -0.9946380389
 C    1.0749796175   -0.3838735410   -0.9919340562
 O    1.5876432610   -1.3259831209   -0.0267135691
 C    1.1255127547   -0.4131683415    0.9928489572
 C   -0.0090788390    0.0885219429    0.0184915599
 H   -0.6012738786    1.9396187952    0.7160099397
 H    1.6143323198    2.8605587122    0.0248448751
 H    2.5175647006    1.1323255445    1.9504420289
 H    2.4235900348    1.1965845615   -1.9652930542
 H    0.8425646498   -0.8245499232   -1.9609258790
 H    0.9357728535   -0.8897915374    1.9548112128
 H   -0.9631247674   -0.4343856599    0.0319658875