17

 C   -0.0618971612    1.5776608658    0.0247804510
 C    0.0711219009    0.0497476938    0.0073817076
 N    0.8232022539   -0.4458137983   -1.1653747074
 C    2.1738565472   -0.8284045179   -0.7018037232
 C    1.9661414787   -1.3798247503    0.7179882141
 O    3.0809342870   -1.3838607926    1.5602247190
 C    0.8660503938   -0.4472463387    1.2197772218
 O    0.7606967523   -0.1035298824    2.3714796969
 H    0.9200840074    2.0532840177   -0.0550651151
 H   -0.6696081089    1.9101539083   -0.8198725293
 H   -0.5272198180    1.9039257891    0.9588994589
 H   -0.9325453951   -0.3916961231    0.0341322858
 H    0.3611071680   -1.2608385108   -1.5508070885
 H    2.6261620339   -1.5428131090   -1.3913971560
 H    2.8252026151    0.0529280586   -0.6542025168
 H    1.5214131985   -2.3902765248    0.6328218051
 H    2.7733228164   -1.0287605754    2.4084587061