18

 C    0.1825233521    1.5036542627    0.0361959704
 C    1.3760330639    0.5676355150   -0.0345060918
 N    2.2083282999    0.3606845182    1.1138711714
 C    1.7924672396   -0.4183403655    2.0220064953
 O    0.6245673058   -1.1003820770    2.1288981214
 C   -0.3634421420   -0.9141332555    1.1168428687
 C   -0.5515694811   -2.0433366502    0.0679154558
 C   -0.6428932905   -0.9469248377   -1.0388695781
 C   -0.0205226483    0.0229125237   -0.0322012520
 H   -0.0110594701    2.0063410990    0.9793806498
 H   -0.0369106476    2.0952290358   -0.8472003901
 H    1.9349763720    0.5774820157   -0.9660573228
 H    2.4095796755   -0.6266601269    2.8935061371
 H   -1.2948074867   -0.6692838669    1.6393989203
 H    0.3594533011   -2.6392826305   -0.0208140685
 H   -1.4075311324   -2.7064352479    0.2028029090
 H   -0.0929254914   -1.1260700963   -1.9656657807
 H   -1.6781571798   -0.6935742858   -1.2876853552