21

 C   -0.1342924108   -0.9740781345   -0.4549296167
 C   -0.1012637918    0.1687150276   -0.0831928354
 C   -0.0336769041    1.5574561070    0.3650005266
 C    1.3600382822    2.1557768975    0.2024563091
 C    1.9667034679    2.6409338141   -1.0924900264
 C    1.0777634581    2.9660827303   -2.2867563679
 C    0.0332373832    4.0028170414   -1.7917940616
 C    0.5843602089    4.5867338957   -0.4625852711
 C    1.6646539899    3.6263339715    0.0220382754
 H   -0.1719224553   -1.9831522324   -0.7824328505
 H   -0.7873262699    2.1432876046   -0.1678197200
 H   -0.3174954878    1.6068932184    1.4249164584
 H    2.0807826164    1.6443171857    0.8362099817
 H    2.9847133140    2.3304004165   -1.3030055151
 H    1.7020336032    3.3986386532   -3.0763783747
 H    0.5997327336    2.0781770978   -2.7140879626
 H   -0.1348395675    4.7884894624   -2.5337990285
 H   -0.9391085763    3.5280366365   -1.6357157872
 H    1.0473859122    5.5642583958   -0.6372808994
 H   -0.2116992488    4.7482984059    0.2734135569
 H    2.4594231229    4.0428005151    0.6325599791