16

 C    0.1085368899    1.4897588880   -0.0774010769
 C    0.0467516005    0.0365244484   -0.0314642106
 C   -0.0115445720   -1.1640658864    0.0093147157
 C   -0.0947040534   -2.6131194396    0.0564149060
 C   -1.5206295311   -3.1649857253    0.2481507575
 O   -2.4383603277   -2.5071380635    0.6536885201
 C   -1.6551796729   -4.6419033008   -0.1162378075
 O   -2.9106034692   -5.1168413521    0.2865655250
 H    0.8228378430    1.8821677329    0.6548044914
 H    0.4178175860    1.8456462675   -1.0663651433
 H   -0.8693326042    1.9312557245    0.1435702793
 H    0.3425116739   -3.0655479674   -0.8445842956
 H    0.5024077856   -3.0081282043    0.8927321796
 H   -1.5007773713   -4.7159736672   -1.2079867583
 H   -0.8177944513   -5.1892648622    0.3517475320
 H   -2.9872678760   -6.0338657524    0.0076546758