16

 C    0.3480423805    1.4261332083   -0.0665307323
 C    0.0657376325   -0.0398032635   -0.0255543987
 C    0.4536038902   -1.0401167382   -0.8872419382
 N   -0.0745275407   -2.1702280562   -0.3564863294
 C   -0.0518245033   -3.5378762285   -0.8605131733
 C    1.2773198793   -3.9724794780   -1.2720891487
 C    2.3630037285   -4.3344351610   -1.6346204282
 N   -0.7583978800   -1.8933078657    0.7709477303
 N   -0.6736202302   -0.6105816428    0.9718884909
 H    0.9198184678    1.7411996322    0.8122447054
 H    0.9211597827    1.6904257229   -0.9586829332
 H   -0.5818001654    2.0033180481   -0.0726929516
 H    1.0475172174   -1.0482365495   -1.7852826659
 H   -0.4369197171   -4.1570433113   -0.0451664520
 H   -0.7518423934   -3.6303773091   -1.7004020576
 H    3.3261461711   -4.6605758776   -1.9422232176