20

 C   -1.3344656731    2.6419812780    1.1864396076
 C   -0.8403836950    1.3978649892    0.4375954843
 C    0.3178831039    0.6876136515    1.1821952259
 C    1.4948030191    1.5372092679    1.3454717298
 N    2.4196629209    2.2205109033    1.4609708032
 C   -1.9743358392    0.4098254687    0.2479480062
 O   -2.9938092200    0.7632164908   -0.6864315628
 C   -2.2054779951   -0.4034088868   -0.9606089029
 C   -1.3482300200   -0.3888435783   -2.2004101814
 H   -0.5307983845    3.3725403069    1.3122618467
 H   -2.1488600291    3.1124699606    0.6299438128
 H   -1.7125018392    2.3779038493    2.1811509137
 H   -0.4724630741    1.7067110246   -0.5449444017
 H   -0.0170844042    0.3650460759    2.1759565874
 H    0.6179348573   -0.2169077718    0.6410701329
 H   -2.3659926916    0.0128513933    1.1902679913
 H   -2.7555439512   -1.3352998275   -0.8113651058
 H   -0.8180351181    0.5572690122   -2.3229323550
 H   -0.6152139707   -1.2024241001   -2.1683498648
 H   -1.9727304260   -0.5398184879   -3.0868971273