14

 N    0.0105225236    1.3480052203    0.2130591873
 C   -0.0657070178    0.0040590572    0.0737256733
 N   -1.1208513207   -0.7238728258    0.1187125640
 C   -0.7702765938   -2.1317555241   -0.0671760078
 C    0.7848752683   -2.2409669030   -0.0808317129
 C    1.3436882410   -3.0556715190   -1.1456519682
 N    1.7665945868   -3.7071394490   -2.0013965694
 C    1.2133441715   -0.7580694582   -0.1423216993
 O    2.3053276436   -0.2904468945   -0.3122709953
 H    0.8828886559    1.7825945660   -0.0423687999
 H   -0.8314332739    1.8949271963    0.1438868689
 H   -1.2061067901   -2.7331925704    0.7361533346
 H   -1.1961502191   -2.4963428728   -1.0078208115
 H    1.1465486747   -2.6269891130    0.8805206561