19

 C   -0.1560304043    1.6029775102   -0.0105630268
 C    0.0198956063    0.0785112666   -0.0084059670
 C    0.8024092066   -0.4672525451   -1.1928002349
 C    1.7948488338   -1.2846269547   -0.8317627036
 C    1.8886524033   -1.3801732161    0.6564957835
 O    2.0751070877   -2.6166084924    1.2832906284
 C    2.2494900215   -0.0911300024    1.3794863294
 C    0.7948306352   -0.4828572349    1.1844544127
 O    0.0642545759   -0.8673557962    2.3046028340
 H    0.8111591949    2.1153802664   -0.0034436647
 H   -0.7035289919    1.9327189175   -0.8996967312
 H   -0.7184987875    1.9250747964    0.8708420230
 H   -0.9807902605   -0.3765429141    0.0097306234
 H    0.5690200761   -0.1792827152   -2.2123673576
 H    2.4775000648   -1.7988253406   -1.4990704293
 H    2.9903470124   -2.6837331828    1.5728316243
 H    2.5903806230   -0.1933117264    2.4056977929
 H    2.7018512607    0.7148526694    0.8113989347
 H    0.2996764819   -1.7887732656    2.4805354890