19

 O    0.0685654441   -0.0244601231    0.2830369231
 C    0.0787135687    1.1700303907    0.2940756899
 O    1.0043559833    1.8998774501   -0.3505737406
 C    0.9458142414    3.3405735270   -0.2357358125
 C    2.0954142792    3.8248385651    0.6483953788
 C    2.2692154765    5.3426281618    0.5150152677
 C    2.5948955161    5.7369861373   -0.9337451489
 C    1.7522767411    4.9851601946   -1.9302396487
 C    1.0137644266    3.9205711231   -1.6220365728
 H   -0.6676069935    1.7948578425    0.8253751894
 H   -0.0192489092    3.5991670885    0.2281197650
 H    1.9124839006    3.5365849831    1.6888876162
 H    3.0072858141    3.3094289556    0.3254302061
 H    1.3427669209    5.8426121674    0.8259445020
 H    3.0549146823    5.6928017309    1.1915603441
 H    2.4603291933    6.8165664648   -1.0739319299
 H    3.6566592824    5.5459500050   -1.1496142948
 H    1.7639148099    5.3449632963   -2.9563890396
 H    0.4195926621    3.4125334894   -2.3762776644