16

 C   -0.0501764450    1.4288324800   -0.0400307070
 O    0.1404710460    0.0365504500    0.0803156206
 C    0.6705373763   -0.5816137994   -1.0806399007
 C    1.1846956817   -1.9870014643   -0.7374565591
 C    0.5781346758   -2.9167549785   -1.7972544823
 O    0.8549900387   -4.0793179967   -1.9713066286
 C   -0.4076595349   -2.1073293242   -2.5586497956
 C   -0.3713408563   -0.8328482405   -2.1588780635
 H    0.8884554909    1.9447814617   -0.2958503322
 H   -0.8035972134    1.6901295790   -0.7977504987
 H   -0.3982512790    1.7890535835    0.9307313543
 H    1.4776480312    0.0504161255   -1.4881778620
 H    2.2725028016   -2.0770304226   -0.7139180642
 H    0.8044423620   -2.2719479584    0.2483807616
 H   -1.0419167182   -2.5378494986   -3.3235818523
 H   -0.9934982073   -0.0338523665   -2.5471555504