14

 C   -0.0469046420    1.4157714204    0.2213195895
 C   -0.5681742341    0.1042374261   -0.3010695925
 O   -1.0826950367   -0.0863211869   -1.3662894639
 O   -0.3622424694   -0.8675338424    0.6470370944
 C   -0.7368872684   -2.1607853979    0.4460919164
 N   -0.4780036252   -2.9807192677    1.4375968318
 O   -0.9420315562   -4.2144389247    1.0056165783
 C   -1.4591562795   -4.0855442474   -0.2240509077
 C   -1.3686996716   -2.8037541726   -0.6580143880
 H    1.0184644013    1.3279266195    0.4518959813
 H   -0.2073290604    2.1910156390   -0.5262999736
 H   -0.5592786128    1.6762801852    1.1516466920
 H   -1.8541089217   -4.9875823433   -0.6654597289
 H   -1.6858366832   -2.3727824075   -1.5871958892