20

 C   -0.0325139060    1.5709578785   -0.0024235295
 C    0.0254153915    0.0358249539    0.0139515076
 C    0.6689467797   -0.5124222952   -1.2705934399
 C    0.9733475483   -2.0098770491   -1.1723768328
 C    1.9689624918   -2.2826403404   -0.0374785535
 C    1.6288750107   -1.5180891363    1.2078933504
 C    0.7545695497   -0.4993733849    1.2430654950
 C    0.4606648960    0.1181620845    2.5009024486
 N    0.1980400465    0.6296350457    3.5070944255
 H    0.9746406542    1.9999546568   -0.0398956859
 H   -0.5805691519    1.9169906719   -0.8842463109
 H   -0.5330140625    1.9649975913    0.8858085237
 H   -1.0099692380   -0.3328056086    0.0672694777
 H    0.0071159005   -0.3063051082   -2.1185682914
 H    1.6018419607    0.0355060197   -1.4616263827
 H    0.0434873150   -2.5589830571   -0.9778107430
 H    1.3695734659   -2.3869397047   -2.1204714650
 H    2.0102733466   -3.3532900410    0.1979628765
 H    2.9900640904   -2.0160344245   -0.3498815179
 H    2.1169129609   -1.8217378823    2.1300389074