20

 C   -0.2338638012    1.0210721505   -0.5627401326
 C    0.9417275291    1.2475431407    0.3643371457
 C    0.4218268589   -0.1415107296    0.1547627488
 N   -0.1481868189   -0.8839116397    1.2528551604
 C   -1.3288623845   -0.3883915769    1.9624139376
 C   -1.4087740361   -1.5678393213    1.0708083096
 C   -2.2331429483   -1.7627558340   -0.2029592601
 O   -2.4771352407   -3.1401615633    0.1551186153
 C   -1.6697797975   -3.0426219493    1.3517076602
 H   -1.2048438203    1.3737681109   -0.2336666919
 H   -0.0785156251    1.1045719680   -1.6330020410
 H    1.9039032551    1.5154661720   -0.0572078954
 H    0.7296191512    1.7105846508    1.3225072244
 H    1.0298672495   -0.7924856933   -0.4668163581
 H   -1.3031693765   -0.5065604758    3.0431254377
 H   -1.8160108194    0.5233682182    1.6203545523
 H   -3.1627346154   -1.1850334203   -0.2804519858
 H   -1.6740163170   -1.6706933654   -1.1428766097
 H   -0.7789492427   -3.6821142106    1.3095881083
 H   -2.2453701504   -3.2751582817    2.2563505943