12

 N    0.2045574354    1.4220363495    0.0052094124
 C   -0.0444153194    0.0408092464    0.0104731755
 C   -1.1470006289   -0.8011188674   -0.0218248664
 O   -2.4637978462   -0.8414403673   -0.0706597455
 N   -2.7389630295   -2.4057617387   -0.0643064665
 N   -1.6578375220   -2.9840609847   -0.0177123279
 C   -0.6050155256   -2.0961406271    0.0122303923
 N    0.7255252622   -2.1441309299    0.0624823620
 N    1.0205228542   -0.8390275278    0.0597493407
 H   -0.1472943352    1.8707214755   -0.8340264091
 H   -0.2120071984    1.8885225627    0.8041283573
 H    1.9862878134   -0.5473545714    0.0929254152