17

 C   -0.5567440720    1.4466467285    0.0215376057
 C    0.0240396174    0.0504297629   -0.0510936443
 O    1.1761120778   -0.0687575072   -0.9256298901
 C    1.9729563398   -0.6948808560    0.0852201615
 C    2.8205292140    0.3392870488    0.8679391285
 C    1.7169363153    0.3555086543    1.9423111998
 O    1.6894539316    0.6616275405    3.1028142963
 C    0.7871055698   -0.5618034886    1.1485649690
 O    0.0852281316   -1.5190033603    1.8537218398
 H    0.1940251194    2.1791811081    0.3317138071
 H   -0.9432434094    1.7462327580   -0.9574132551
 H   -1.3853724700    1.4695077572    0.7368481213
 H   -0.7445113945   -0.6737862923   -0.3532517943
 H    2.4381707917   -1.6306672046   -0.2260167711
 H    3.7656918602   -0.0340943554    1.2744354740
 H    2.9979519231    1.2732049872    0.3307002811
 H    0.3743043443   -1.4787392313    2.7746156809