16

 O   -0.2587313182    1.4580402116    0.2023827179
 C   -0.0583474162    0.0875453305    0.0971230512
 C   -0.4090791207   -0.7553702746    1.3219368473
 N   -0.6481672903   -0.1249901685    2.5620275555
 C   -1.7271866872    0.4592098286    2.8649943739
 N   -2.9143783440    0.6272197227    2.1471057644
 C   -3.1950513863    0.4400839753    0.8014849858
 N   -2.5492328440   -0.1591080814   -0.1132508847
 C   -1.3020829088   -0.7989734183    0.0909305881
 H   -0.9821963447    1.6917120319   -0.3921809461
 H    0.8055903910   -0.1958061711   -0.5028118612
 H    0.2186413345   -1.6367026672    1.4321659110
 H   -1.8031602046    0.9200095180    3.8507552959
 H   -3.6153673118    1.1610099684    2.6402012350
 H   -4.1487448289    0.8969110414    0.5315234264
 H   -1.2132218599   -1.7074180371   -0.4996277106