16

 N   -0.1282258183    1.2698950095    0.0877111853
 C    0.0088629411    0.0102507321    0.0134906770
 N    1.1510009192   -0.7815563298   -0.1007981505
 C    0.7687616374   -2.1189236467   -0.0613549535
 N   -0.4835620408   -2.3408908395    0.0186023635
 C   -1.1280245737   -1.0167502382    0.0478096465
 C   -2.0359444099   -0.8207814735    1.2799305411
 C   -3.2366657461   -1.6429273520    1.2488712640
 C   -4.2347791779   -2.3106081101    1.2120331540
 H    0.7652437173    1.7625651855    0.0492950505
 H    2.0977253410   -0.4407147901   -0.0874186837
 H    1.5294440748   -2.8921200457   -0.1042475508
 H   -1.7430462178   -0.9065720078   -0.8527416752
 H   -1.4540317137   -1.0372094284    2.1838487721
 H   -2.2986319877    0.2427158302    1.3195989678
 H   -5.1133497549   -2.9058425055    1.1850072220