21

 C   -0.0329369150    1.5039628010    0.0869690024
 C    0.1405971310   -0.0029680379    0.0355810646
 C    0.7627279133   -0.5598938778   -1.2644190951
 C    1.6502133197   -1.7454371710   -0.7811906703
 C    1.4382577879   -1.7239336793    0.7514924476
 O    1.0379819354   -0.4037680216    1.0682850841
 C    1.3155367195   -3.0548552810   -1.4612487272
 C    1.3492610461   -4.3643015792   -0.7979003816
 O    0.1054870740   -3.7137331109   -1.0742269882
 H    0.9289501701    2.0034220250   -0.0666405426
 H   -0.7271499888    1.8364044585   -0.6909886577
 H   -0.4303959255    1.8132920997    1.0576516353
 H   -0.8337323072   -0.4937506039    0.2005818049
 H   -0.0059841501   -0.8821095914   -1.9716567110
 H    1.3695558432    0.2067327874   -1.7548675094
 H    2.6994025490   -1.5252546852   -1.0064351976
 H    0.6510161187   -2.4418501075    1.0285123880
 H    2.3427333045   -1.9481014317    1.3222893692
 H    1.4747610823   -3.0485154484   -2.5415777788
 H    1.5462579935   -5.2617102312   -1.3825771465
 H    1.6134332284   -4.4343176035    0.2561133098