22

 C   -0.3575998772    1.6802859668   -0.4745398144
 C   -0.1530585060    0.1675226813   -0.3657084067
 C    0.6288661648   -0.4085883608   -1.5452656694
 N    0.7802177770   -1.8547265936   -1.4130969977
 C    1.5572236772   -2.4827933569   -2.4680802789
 C    1.9434767311   -3.9168240378   -2.0424375626
 N    2.7486481676   -3.8539531632   -0.8222180637
 C    0.7912830949   -2.5271308559   -3.7262027216
 N    0.2101523666   -2.5700480423   -4.7239185631
 H    0.6000207967    2.2113363268   -0.5119403883
 H   -0.9154497806    1.9401065199   -1.3808199260
 H   -0.9178501236    2.0659112938    0.3823097135
 H    0.3795727458   -0.0659520173    0.5665209059
 H   -1.1197891478   -0.3447108570   -0.3050620911
 H    0.0869551093   -0.2050826844   -2.4777923728
 H    1.6040507539    0.1097260868   -1.6326763858
 H    1.2533528690   -2.0868118115   -0.5429420865
 H    2.4932217908   -1.9321721916   -2.6960123387
 H    1.0201319198   -4.4593129679   -1.8205520978
 H    2.4336424553   -4.4190982487   -2.8883290875
 H    2.7493356009   -4.7522617419   -0.3528391934
 H    3.7159240847   -3.6380753547   -1.0426516036