20

 C    0.2634350158    1.4631563214    0.0362478079
 C   -0.0394187899   -0.0408555370    0.0114591236
 C   -1.5436757036   -0.2863916989   -0.0388791600
 N    0.6151372182   -0.6670874909   -1.1739750533
 C    2.0183304786   -0.9399527705   -0.8279031972
 C    2.0826478325   -0.8857961374    0.6964368974
 O    3.0516698224   -0.8390715404    1.4129212244
 C    0.6505670249   -0.7600483510    1.2015047650
 O    0.5830024960   -0.1410419947    2.4526284500
 H    1.3402959665    1.6612955287    0.0165896911
 H   -0.1818475988    1.9469883574   -0.8367655356
 H   -0.1360790514    1.9148733782    0.9469504329
 H   -1.9745139624    0.1514744507   -0.9446407931
 H   -1.7688621018   -1.3595078865   -0.0343878439
 H   -2.0338139365    0.1616065437    0.8297652161
 H    0.1420027705   -1.5395149124   -1.3832579618
 H    2.3600924448   -1.9081811804   -1.2069996792
 H    2.6986708198   -0.1821581044   -1.2369773466
 H    0.2351842711   -1.7862026936    1.2448302651
 H    1.4853981535   -0.1623761021    2.8078825871