18

 O   -0.8747015363    0.9695355811    0.1883385252
 C    0.2712455104    0.6799132064   -0.0436592863
 C    1.4247373161    1.6562828734   -0.0274170706
 C    1.3976075555    2.7994897749    1.0031505754
 C    1.8534069785    1.6553910594    1.9704335072
 N    2.6098560379    1.1122275322    0.7494065313
 C    3.6030311086    2.2232220583    0.6237573038
 C    3.5354063067    3.2409011844   -0.4814275319
 C    2.7655202863    3.4842295995    0.7966976369
 H    0.5693151841   -0.3521760225   -0.3356439593
 H    1.6337589362    1.8744696202   -1.0802569426
 H    0.5162373433    3.4189649822    1.1660759113
 H    2.4936538094    1.9168025624    2.8156868826
 H    1.0640068528    0.9670389125    2.2812384864
 H    4.5376504776    2.0353899998    1.1372779104
 H    4.4401013141    3.8327734159   -0.5872880693
 H    3.0478420112    3.0574800117   -1.4315729071
 H    3.0397564174    4.3020015082    1.4524869966