18

 C    0.0008228356    1.5411803542    0.0534538385
 N    1.2337291866    0.7031924430    0.0530165231
 C   -0.0814334614    0.0772246115   -0.0095036973
 C   -0.5471321116   -0.9906393662    0.9816260748
 O   -1.9719967489   -0.9611258642    0.7859036081
 C   -1.9754640321   -1.4105771614   -0.5818726711
 C   -1.4212507779   -2.8470190232   -0.4521154142
 C   -0.1328369123   -2.0969649170   -0.0844951639
 C   -0.5397299065   -0.9198363258   -1.0574572594
 H   -0.1913523260    2.0631642013    0.9866915715
 H   -0.2365361606    2.1104746221   -0.8419679276
 H    1.6595947650    0.7233241792   -0.8714417651
 H   -0.2789520621   -1.0067484272    2.0356180944
 H   -2.9103825686   -1.1519546803   -1.0757396208
 H   -1.9059526051   -3.4976021727    0.2796454226
 H   -1.3192449006   -3.3499254858   -1.4177382541
 H    0.8636258806   -2.5286916128   -0.0320605885
 H   -0.3043261441   -0.8796825550   -2.1197882109