20

 C   -0.1198152047    1.5421627922   -0.0538024620
 C    0.0683749478    0.0270727755   -0.0043289774
 C    0.8467527599   -0.4890097090   -1.2291566933
 C    1.1524135611   -1.9577290700   -1.1067748237
 C    1.0863669136   -2.6026955575    0.0550625481
 C    0.7595196857   -1.9256769855    1.3555827509
 N    0.7065191924   -0.4734674563    1.2179811790
 C    1.2525512438    0.2905352886    2.2042640646
 O    1.7791187635   -0.1462101111    3.2109434663
 H    0.8341453639    2.0773481958   -0.0824296787
 H   -0.6645616285    1.7917954166   -0.9690430616
 H   -0.7027356467    1.9130798770    0.7936408008
 H   -0.9314017233   -0.4321554545   -0.0408855247
 H    0.2545788877   -0.3005621006   -2.1337996858
 H    1.7744460631    0.0902424808   -1.3464257698
 H    1.4250205329   -2.4903921827   -2.0137642137
 H    1.2768960557   -3.6707937642    0.1116234329
 H   -0.1960670279   -2.3075331306    1.7524493680
 H    1.5134792771   -2.1430021018    2.1173022741
 H    1.1764617330    1.3709903474    2.0063570361