20

 C    0.0152950505    1.4747590643    0.0393473181
 O   -0.2250451484    0.0966395222    0.1946397442
 C    0.7021108889   -0.5283861898    1.0527861284
 C    0.3675128322   -2.0144379229    1.1112144945
 C    1.2919603849   -2.7873823427    2.0271811828
 C    1.2780584274   -4.3291490471    1.9456440565
 C    2.7055444418   -4.1630609169    1.4689904380
 N    3.6202378555   -4.9473080403    1.1249000421
 O    2.6855150571   -2.7845388712    1.5453119916
 H    1.0105886030    1.6705584476   -0.3899581001
 H   -0.7456968128    1.8649529136   -0.6407386553
 H   -0.0551771345    2.0132629273    0.9980015885
 H    1.7317984152   -0.3892155864    0.6858870570
 H    0.6547861105   -0.0836600545    2.0630843171
 H   -0.6631988076   -2.1373077922    1.4660271775
 H    0.4148535113   -2.4331439893    0.0996409900
 H    1.2711488097   -2.3910951315    3.0479451883
 H    1.1696748512   -4.8638266636    2.8902927492
 H    0.5967226372   -4.7529450061    1.2053398705
 H    4.4672672769   -4.4380363504    0.8667868011