20

 C    0.0253617706    1.3818771866    0.0264418638
 N    0.1713214662   -0.0640052502    0.1714397279
 C    1.4976276388   -0.6451869035   -0.0086698931
 C    0.8539384284   -0.6168533223    1.3385359469
 C    1.4188477751    0.2778159088    2.4453218492
 O    2.4296838010    1.1877889504    2.0424812427
 C    0.2102420847   -1.9023461392    1.8679133852
 C   -0.8427249986   -1.6557916087    2.8492727060
 C   -1.7008307042   -1.4345520528    3.6615582901
 H    0.8853928580    1.9597441913    0.3868992165
 H   -0.1335267051    1.6063525221   -1.0330187497
 H   -0.8679710503    1.7018040395    0.5723234892
 H    1.5436583840   -1.5703713024   -0.5802293289
 H    2.3274430061    0.0378035667   -0.1802018300
 H    0.6144860516    0.8914854367    2.8625965926
 H    1.7746881701   -0.3683068480    3.2615519904
 H    3.2092660022    0.6755795064    1.8051616007
 H   -0.2043092503   -2.4501330333    1.0154727704
 H    0.9842647216   -2.5403977652    2.3159783879
 H   -2.4650651897   -1.2474199930    4.3744445721