23

 C   -0.0885826815    1.5480434864    0.0145137880
 C    0.0312484843    0.0351890047   -0.0078082951
 C    1.0978252047   -0.6569982496   -0.9091439950
 C    1.1288509660   -1.7790401876    0.1721390798
 C    2.4013014657   -2.5674974549    0.4227204035
 C    0.6941383810   -0.6925297031    1.1949440070
 C   -0.0834808607   -2.6947975464   -0.0736404317
 O   -1.1667412493   -2.0042045149   -0.6787989853
 C   -1.3199678952   -0.6510039439   -0.2763565237
 H    0.8731151217    2.0125727738    0.2563252250
 H   -0.4155832992    1.9378200813   -0.9564931745
 H   -0.8150238889    1.8791692992    0.7667210797
 H    0.8122369323   -0.9308603817   -1.9282501799
 H    2.0347376909   -0.0916172117   -0.9237475514
 H    3.2387536477   -1.8976022297    0.6441637865
 H    2.2869616633   -3.2481207790    1.2752784250
 H    2.6757723046   -3.1718949544   -0.4496780983
 H    1.5523539731   -0.1346795889    1.5844330214
 H    0.0520282079   -0.9982848838    2.0289129456
 H    0.1747268906   -3.5027244356   -0.7686178562
 H   -0.3930125985   -3.1580916213    0.8792842689
 H   -1.9553744603   -0.5756588331    0.6231424474
 H   -1.8490483802   -0.1576210658   -1.1004061466