17

 O   -0.0895017950   -0.0059353427   -0.0146801782
 C   -0.0641530180    1.1971825813   -0.0018507937
 N   -1.0454298785    2.1570211202   -0.0261751937
 C   -0.1522646600    3.3192649641   -0.0030709852
 C    1.0192444530    2.3030840129    0.0577480762
 C    2.2554091803    2.3324375722    0.9723758101
 C    2.8272006413    1.3133647425   -0.0408193514
 N    2.1554732696    2.3514321617   -0.9717256522
 C    2.7754073973    3.3943174226   -0.0186638868
 H   -2.0486613092    2.0819308844   -0.0958811181
 H   -0.1755728964    3.9230618588   -0.9156963151
 H   -0.2708865819    3.9601242121    0.8768175198
 H    2.2914765713    2.3216887692    2.0665416112
 H    3.9128738630    1.2804797217   -0.1611253020
 H    2.3711884086    0.3252649314   -0.0923079436
 H    2.2826080270    4.3697570376   -0.0510066049
 H    3.8577085076    3.4935649699   -0.1389886325