23

 C    0.0474208630    1.5133644952    0.1119365539
 C   -0.0113727273    0.0217952666   -0.0034716634
 C   -0.0312352477   -0.7329040924   -1.1148528481
 C   -0.0251752772   -0.2919241639   -2.5462078465
 C   -0.0137181021   -2.1904953197   -0.7733839684
 C    1.2300252149   -2.6700317701   -0.0433737646
 C    0.0017003227   -2.2806492876    0.7415092889
 C   -0.7589082196   -3.3378995597    1.5058383798
 C   -0.0458252457   -0.8369211298    1.2494161358
 H    0.9551226561    1.8375617772    0.6380268968
 H    0.0333890295    2.0104415551   -0.8611158130
 H   -0.8000701558    1.8966771110    0.6959974877
 H   -0.0436584618    0.7953898644   -2.6518393483
 H    0.8633235502   -0.6676045428   -3.0699584888
 H   -0.8937798451   -0.6945909663   -3.0833954893
 H   -0.5627569073   -2.8972462399   -1.3892959846
 H    1.4631274378   -3.7298393049   -0.0892632742
 H    2.0967048359   -2.0155457754   -0.0402282060
 H   -0.7208889988   -4.3052058364    0.9943522358
 H   -0.3426944793   -3.4807576467    2.5106375297
 H   -1.8140153460   -3.0631319949    1.6219103590
 H    0.7859426303   -0.6059575238    1.9296542219
 H   -0.9655864870   -0.6518392053    1.8255211962