17

 O    0.0138799875    1.4663819052   -0.0500784446
 C    0.0866847038    0.0632130076    0.1216449391
 C   -1.2972477937   -0.5633046979    0.0443473010
 O   -1.8874830691   -0.2630260231   -1.2373371947
 C   -2.3524014105   -1.5557937234   -1.7152339607
 O   -2.7276896515   -2.2218380632   -0.5345684696
 C   -1.4237547174   -2.1264355072    0.0774066277
 C   -0.5219817676   -2.6809733848   -1.0155359471
 C   -1.1125722880   -2.3273711221   -2.1587117248
 H   -0.4735190203    1.6086785835   -0.8702049378
 H    0.7454295764   -0.3989027387   -0.6274638282
 H    0.5217273023   -0.1095684188    1.1129159312
 H   -1.9395935342   -0.1408963074    0.8259087004
 H   -3.1862522709   -1.4127240937   -2.3985813871
 H   -1.4106962278   -2.5884859480    1.0618292938
 H    0.4423315656   -3.1438676181   -0.8606308939
 H   -0.7603528246   -2.4281732098   -3.1753494348