22

 C    0.1472267280    1.5603664883    0.1957217790
 C   -0.0887760018    0.0510434571    0.0678971887
 C    0.6305567309   -0.5619136895   -1.1294649494
 C    2.1723848969   -0.6698832560   -1.2039044343
 C    2.6361831880   -1.4953908004    0.0110022669
 C    1.8786450972   -2.6196058071   -0.6684854579
 N    2.0225447928   -1.9886510130   -2.0325168552
 C    0.6723636183   -2.0674711555   -1.3684967373
 C   -0.4257807348   -2.9354885437   -1.9025223775
 H    1.2104652489    1.7864921200    0.3320801823
 H   -0.1893371153    2.0907699772   -0.7020446391
 H   -0.3927086235    1.9774491814    1.0511316255
 H    0.2212915261   -0.4517517798    0.9911899831
 H   -1.1646022693   -0.1439620867   -0.0325896895
 H    0.2809014193   -0.0860994252   -2.0554677430
 H    2.7794883292    0.1406310398   -1.6026851864
 H    3.7135390384   -1.6766615594   -0.0313973532
 H    2.3568537386   -1.1736980625    1.0192441979
 H    2.0116814478   -3.6878980507   -0.5331487961
 H   -1.1962119039   -3.1101944232   -1.1427760630
 H   -0.9037042374   -2.4713709258   -2.7718543118
 H   -0.0330442245   -3.9081942053   -2.2148062495