17

 C   -0.0652484178    1.6032878165    0.0079694115
 C    0.1544309150    0.0945883894   -0.0068407094
 C    0.9178171578   -0.4948646150   -1.2059461974
 O    1.9343951720    0.4235444405   -1.5718026755
 C    1.5168811388   -1.8039617081   -0.6299711786
 N    1.6804449903   -1.4883251073    0.7735987594
 C    0.9460125727   -0.4185656310    1.2083094375
 O    0.9096667141    0.0135541213    2.3392332123
 H    0.8755125975    2.1337908653   -0.1461433624
 H   -0.7651135684    1.9101239925   -0.7747925547
 H   -0.4717386865    1.8942963823    0.9797146819
 H   -0.8184172187   -0.4152118254    0.0443993383
 H    0.2579342158   -0.7054255211   -2.0578131061
 H    2.4126545333    0.0619005274   -2.3239697938
 H    0.8369752088   -2.6541081637   -0.7910733816
 H    2.4736563557   -2.0405268321   -1.1092023619
 H    2.2213211396   -2.0407354015    1.4186915904