18

 C    0.0727779909    1.1536166513   -0.0926402373
 C   -0.0888423458   -0.3523176201   -0.0190505505
 O    0.7832674332   -1.1331597629   -0.3391700395
 N   -1.2969068058   -0.7698091280    0.5242437592
 C   -2.6360527250   -0.4521496316    0.0806675812
 C   -2.1306108605   -1.8722937640    0.1045556229
 C   -1.8779547389   -2.6304343952   -1.1866117598
 C   -0.8954398275   -3.7811810365   -1.0004200523
 O   -1.1719067524   -4.9292704531   -1.2393787625
 H    1.1274867519    1.3916334733   -0.2291402642
 H   -0.4891511932    1.5489181333   -0.9465389752
 H   -0.3129999436    1.6375403747    0.8081683942
 H   -3.3316024010   -0.1047850671    0.8404983099
 H   -2.7520049727    0.0138696444   -0.8960169163
 H   -2.4718858573   -2.4965081787    0.9296231120
 H   -2.8180144041   -3.0472899342   -1.5612861342
 H   -1.4688350444   -1.9483726280   -1.9419998397
 H    0.0991389762   -3.4759136078   -0.6219774578