19

 C   -0.4260367111    1.5138614583   -0.0999016802
 C   -0.1496794735    0.0476896778   -0.1144332468
 C    0.1563637829   -0.8090809490   -1.1441910184
 C    0.3321528154   -2.1188375001   -0.6018985447
 C    0.1236962388   -2.0221585160    0.7553396185
 N   -0.1677935406   -0.7094308663    1.0413160465
 N    0.0884993879   -2.9666118965    1.7948406345
 C    0.8171835416   -4.2116692996    1.6031603306
 C    1.3218864140   -3.2011176610    2.5699596157
 H    0.2965090333    2.0699213473    0.5118416230
 H   -0.3687611677    1.9097021909   -1.1166223663
 H   -1.4261611042    1.7469238582    0.2884861847
 H    0.2493618960   -0.5265737157   -2.1822978203
 H    0.5605298188   -3.0206700880   -1.1473876895
 H   -0.4087489930   -0.3775992971    1.9594729287
 H    0.3092449668   -5.1052675102    1.9531327451
 H    1.3810002513   -4.3322952952    0.6818014394
 H    2.2061707323   -2.6381965250    2.2821128009
 H    1.1776887213   -3.3377286028    3.6373255487