16

 C    0.0498542227    1.5849103851   -0.0357459464
 C    0.0172739145    0.0464114344   -0.0442339420
 C   -1.4315623652   -0.5225053160    0.0402213830
 C   -2.0984268349   -0.1634557896    1.2802435209
 C   -2.6406598500    0.1345088955    2.3203898834
 C   -3.2541590258    0.4669843259    3.4886444133
 C   -3.7976511661    0.7625496164    4.5253998316
 C    0.6752250892   -0.4844057807   -1.2421485904
 N    1.1816776353   -0.9015245788   -2.1935680425
 H    1.0786551591    1.9507032134   -0.0642675547
 H   -0.4815696115    1.9883598554   -0.9024555484
 H   -0.4309061734    1.9555340678    0.8724685991
 H    0.5727131099   -0.3258619559    0.8244953567
 H   -2.0075218483   -0.1534565922   -0.8177426259
 H   -1.3944828054   -1.6137840543   -0.0577419081
 H   -4.2773578401    1.0211464435    5.4367619103