21

 C    0.3579951594    1.5019588529    0.2510728588
 C    0.1918476781   -0.0022618003    0.1389575144
 C    0.6460246780   -0.6374754796   -1.1983926959
 C    1.2368832885   -1.9814813295   -0.7756355453
 C    2.5986724489   -2.0252029594   -0.0793980164
 C    3.5841506432   -0.8656340018   -0.0534637516
 O    3.9119189909   -0.4606653518    1.2642213094
 C    1.3287993354   -1.9372543457    0.7223101335
 O    0.9924534334   -0.6384659136    1.1585737297
 H    1.3994472949    1.7908307438    0.0776452215
 H   -0.2702290879    2.0083177271   -0.4883964549
 H    0.0642346893    1.8504086992    1.2451055003
 H   -0.8601540800   -0.2711742635    0.3223150281
 H   -0.2016206049   -0.7808879382   -1.8739110960
 H    1.3666486048    0.0045162837   -1.7157408153
 H    0.9066815961   -2.8760438401   -1.2898678616
 H    3.0578716525   -3.0103805235   -0.0769207004
 H    4.5230984921   -1.1737052005   -0.5241282473
 H    3.2055321112   -0.0177141725   -0.6418259941
 H    3.0707367627   -0.2167057800    1.6713200358
 H    1.0018491536   -2.7346256668    1.3821668971