18

 C    0.0849808684    1.5950187848   -0.0162681456
 C   -0.0438902775    0.0663637931    0.0353955331
 O   -1.4001561717   -0.3333500373    0.0538998930
 C    0.6958801174   -0.6112969715   -1.1380642211
 O    2.0561732057   -0.6951656662   -0.7246373762
 C    2.0640080569   -1.0414475684    0.6544845854
 C    0.7616988800   -0.5087722286    1.1928418261
 N    0.2830486932   -0.5408997405    2.3654951684
 O    1.1688341913   -1.1503476748    3.2684145562
 H    1.1301388336    1.8947252322   -0.1416061067
 H   -0.4972879291    1.9798690585   -0.8585343478
 H   -0.2951331161    2.0394183610    0.9082349019
 H   -1.6918237532   -0.2973814964    0.9727293751
 H    0.2566519697   -1.6060117862   -1.3058480993
 H    0.6646134427   -0.0398205592   -2.0679977151
 H    2.1136329607   -2.1321295083    0.8051446355
 H    2.9427700927   -0.5983492674    1.1328351456
 H    0.6811959653   -1.1158631947    4.0985974115