18

 C    0.1249483305   -1.2366612355    0.0114459863
 C    0.0101453123   -0.0405531054    0.0481577620
 C   -0.0726029294    1.4161361764    0.0963685175
 C    1.3008848408    2.0563469164   -0.0617814747
 C    2.3242289448    1.8693764290    1.0840961539
 O    2.5924099338    3.2920680913    1.1371288546
 C    1.6630281658    3.5625717500    0.0760278813
 C    2.3109887264    3.4660710751   -1.3222494961
 N    1.8430706679    2.0549277647   -1.4335059046
 H    0.2062815022   -2.2947612062   -0.0235823004
 H   -0.7269411693    1.7800204940   -0.7036038695
 H   -0.5154198885    1.7304321755    1.0502790360
 H    1.9051204452    1.5077989080    2.0317036016
 H    3.2147605823    1.2783058466    0.8368785536
 H    0.9798007901    4.3831709117    0.3051808692
 H    1.8828352882    4.1074996090   -2.1010851312
 H    3.3949607159    3.6191465149   -1.2840770720
 H    2.5549678807    1.3578199945   -1.6244740875