21

 C   -0.2893911255    1.3155580863   -1.0333082412
 O   -0.2215782297    0.3677714179    0.0142802552
 C   -1.3341643857   -0.5060840801    0.1176271373
 C   -0.9582953691   -1.9090362158   -0.4185150816
 C   -0.6865511474   -1.9510299443   -1.8499350654
 C   -0.4798730348   -1.9936654345   -3.0338477709
 C   -1.7664773761   -0.5966881692    1.5714956017
 C   -0.7454496831   -0.5496702889    2.6806483685
 C   -1.6957106805    0.6046110687    2.4745080863
 H    0.6202755049    1.9187724454   -0.9722387018
 H   -0.3333612214    0.8340283591   -2.0171707549
 H   -1.1598465098    1.9795921187   -0.9227591155
 H   -2.1703472090   -0.1157473975   -0.4811690927
 H   -0.0801660882   -2.2526977563    0.1404967663
 H   -1.7736403183   -2.6055237608   -0.1842467067
 H   -0.2904212348   -2.0362163656   -4.0776370725
 H   -2.6119154512   -1.2627079254    1.7228442389
 H   -0.8885741206   -1.1959857134    3.5393186210
 H    0.2875882023   -0.3874921401    2.3965702629
 H   -1.2760180637    1.5129579438    2.0589063256
 H   -2.4970183384    0.7551608319    3.1894050492