16

 O   -0.0508782048    1.3423046256   -0.0171161052
 C    0.0291775804   -0.0474204461   -0.0474918588
 C    1.0619608816   -0.7431801007   -0.9386750028
 C    0.4034126953   -2.1088539541   -1.2831992904
 C   -0.7149670661   -2.2204463974   -0.2497725076
 O   -0.0973403064   -2.1887291059    1.0870088371
 C   -0.4417053829   -0.8081326714    1.1852065692
 C   -1.2843001942   -0.7997387402   -0.0551329530
 H    0.6790564022    1.6733801387    0.5176557890
 H    1.2423728032   -0.1328671534   -1.8279032983
 H    2.0188468210   -0.8777138858   -0.4242561859
 H   -0.0237591853   -2.1012903302   -2.2925314226
 H    1.0986038087   -2.9497186788   -1.2142060813
 H   -1.3973389137   -3.0659556537   -0.3504933681
 H   -0.5788858342   -0.3670654911    2.1665673325
 H   -2.2616920346   -0.3980725954   -0.2813542738