15

 C    0.1398664278    1.2619832596    0.5937115432
 C   -0.1860552997    0.2392848854   -0.5101399445
 C   -1.4554513022   -0.4465402876   -0.2994086905
 C   -2.5098555222   -0.9971212888   -0.1128864970
 C   -3.7726655678   -1.6966925005    0.1303844591
 O   -3.6101680040   -2.9787516938    0.7107802943
 C   -4.6768003844   -0.8514745751    0.9526500493
 N   -5.3821897210   -0.2119596741    1.6065297201
 H    1.0971409655    1.7481381023    0.3860742471
 H   -0.6338691141    2.0317284879    0.6514680490
 H    0.2051826731    0.7742057286    1.5697930928
 H   -0.2110101297    0.7404604066   -1.4858808694
 H    0.6155747849   -0.5071853235   -0.5752151871
 H   -4.2832964591   -1.8809144949   -0.8230401374
 H   -3.0618314670   -2.8767387520    1.4978911109