15

 C    0.0877945814    1.4886267766    0.1094276176
 C   -0.0772267221    0.0045555215    0.1534581528
 C   -1.3633376156   -0.8172367481   -0.0646592054
 C   -0.7868864417   -1.8450427051    0.9493748459
 O   -1.2262518557   -2.8138752642    1.4837800283
 C    0.4942811369   -1.0188032511    1.1144418568
 O    0.9917698037   -0.8330224405   -0.2367935430
 C    1.4433654808   -0.8326651965    2.2331582727
 O    1.2494597893   -1.2422327486    3.3489851316
 H    1.0923455608    1.7789723756    0.4249789418
 H   -0.0676655329    1.8511240918   -0.9126294441
 H   -0.6462084397    1.9783744923    0.7557272093
 H   -2.2740612967   -0.3595786879    0.3332752680
 H   -1.5307132664   -1.1566004120   -1.0889609607
 H    2.3561065579   -0.2636914139    1.9513657184