12

 N    0.0425703391    1.3186714986   -0.0587347865
 C   -0.0556238805   -0.0247197398   -0.0231138159
 N   -1.2188189879   -0.6144697461   -0.0072561910
 C   -1.1690940715   -1.9761045670   -0.0027846164
 C   -0.0278766753   -2.7182573825   -0.0097126319
 C    1.2481342448   -2.0666337726   -0.0196621119
 O    2.3595853617   -2.5075767516   -0.0221224548
 O    1.1366425990   -0.6266466326   -0.0256412592
 H    0.9394638484    1.7555442541    0.0596603159
 H   -0.7998491150    1.8552566454    0.0512276898
 H   -2.1380566408   -2.4686566349    0.0083145592
 H   -0.0352299220   -3.7989961911   -0.0047291073