20

 C    0.2736007542    1.7512364026    0.1098619711
 C    0.0951824761    0.2527487705   -0.0251581754
 C    0.5030034027   -0.5659499784   -1.2075496331
 C    1.1984040347    0.0222768793   -2.4291479381
 O    0.3619493922    0.9398754037   -3.1400825140
 C    2.5512170574    0.6056095858   -2.1320246278
 C    3.1624267376    0.4823347689   -0.9569702730
 C    2.5650905241   -0.2365424444    0.2206574562
 N    1.1894162382   -0.7176109198    0.0893915125
 H    1.1448136219    2.1358201204   -0.4227298571
 H   -0.6200470140    2.2663309380   -0.2614312890
 H    0.3808426648    2.0269880173    1.1651497831
 H   -0.7993860288   -0.0962241668    0.4919452562
 H   -0.1354692529   -1.4132889445   -1.4522125380
 H    1.3368959682   -0.7949178054   -3.1494020627
 H    0.2113980109    1.6969934912   -2.5647605379
 H    3.0234162920    1.1249011089   -2.9619455145
 H    4.1575206463    0.8968485563   -0.8071464956
 H    3.1941604883   -1.1085988730    0.4523607719
 H    2.6243287560    0.4045456094    1.1113167249