19

 C    0.1715239495    1.2103609907    0.3686405016
 C    1.4093351250    1.9187650039   -0.2209115670
 C    2.1006808128    0.8036492104   -0.9768520831
 C    3.1980461852    0.9942850072   -2.0140367812
 C    3.8858905488   -0.3560340059   -2.0342178239
 C    3.4177488927   -1.1798295516   -1.0912309037
 C    2.3005842384   -0.5728933960   -0.3175762731
 C    1.0627415197   -0.2688192043   -1.1470165836
 O   -0.1153894014    0.0970689729   -0.4833657170
 H    0.3797421070    0.8555945508    1.3876541917
 H   -0.7199231467    1.8423006348    0.4077410982
 H    1.1166684323    2.7098655753   -0.9216207859
 H    2.0236568695    2.3759405922    0.5612139947
 H    2.7934314486    1.2735038080   -2.9958979835
 H    3.8974733484    1.7954284167   -1.7314718459
 H    4.6684135926   -0.5977106322   -2.7442669197
 H    3.7689098361   -2.1900489033   -0.9130005596
 H    2.1966249976   -0.7506618606    0.7481783447
 H    0.8750816740   -0.8067855591   -2.0702849640