21

 C   -0.0173354501    1.5242858502   -0.1106551892
 C    0.0119099790    0.0022581531    0.0157809581
 O    0.7114015700   -0.4064407694    1.1910660970
 C   -1.3927260149   -0.6163383231   -0.0324213403
 C   -1.3682001121   -2.1411109145   -0.0479772211
 C   -2.7612477762   -2.8041420611   -0.0059353966
 O   -2.6428381163   -3.9015448186   -0.8972554139
 C   -1.7805960520   -3.4374564502   -1.9029927493
 O   -0.8060956740   -2.6308955236   -1.2767197234
 H    0.9962075514    1.9290019984   -0.0452720384
 H   -0.4558435559    1.8362800901   -1.0639718638
 H   -0.6174114101    1.9713857720    0.6928532124
 H    0.5963247908   -0.4199046512   -0.8089339687
 H    0.2912641979    0.0236412774    1.9446416579
 H   -1.9637571285   -0.2743178406    0.8444944261
 H   -1.9275543571   -0.2578932763   -0.9208016004
 H   -0.7336737112   -2.4981020245    0.7706233464
 H   -3.0353106499   -3.1862474103    0.9794800895
 H   -3.5405168356   -2.1033213495   -0.3476626558
 H   -1.2986158860   -4.2950804382   -2.3825595779
 H   -2.3391273794   -2.8490286502   -2.6554038586