17

 O   -0.0157408412    0.0041826897   -0.0950057375
 C    0.0130074681    1.1985373071   -0.0398773431
 O   -1.1173984219    1.9641529528    0.0001765618
 C   -0.7167300336    3.3552633646    0.1902936106
 C    0.6214708636    3.4215729882   -0.5593015506
 C    1.2316383787    2.1323854237    0.0075122292
 C    1.6511230553    2.3552787374    1.4811449728
 C    0.6118954398    3.1388599786    2.2481655504
 C   -0.4894628639    3.6139299293    1.6660807249
 H   -1.5130695495    3.9684853100   -0.2301719413
 H    0.4675245078    3.3512537220   -1.6399128143
 H    1.1904658519    4.3254360516   -0.3329421997
 H    2.0503482735    1.7044373085   -0.5710311860
 H    1.8322889859    1.3903550271    1.9702866531
 H    2.6107235618    2.8903828057    1.5067545868
 H    0.7942326576    3.2978636307    3.3077316488
 H   -1.2426918238    4.1571507030    2.2264421741