22

 C   -0.1786714441    1.8065808539   -0.1201036420
 C   -0.3707173417    0.2862803795   -0.1705116593
 C    0.6145874512   -0.4608114498   -1.0769621734
 C    0.4650011526   -0.0552568474   -2.5475561351
 C    2.1101578615   -0.4596683656   -0.6140855086
 C    2.1722055754   -1.9790171234   -0.9193151184
 O    2.9001310702   -2.8355467969   -0.0745627350
 C    0.6220260916   -2.0155741443   -0.9088881781
 H    0.8402864494    2.0671292925    0.1870143100
 H   -0.3624173564    2.2751899102   -1.0916193623
 H   -0.8673466255    2.2615921763    0.5985560804
 H   -0.2778549746   -0.1156381601    0.8470371878
 H   -1.3958074324    0.0567681869   -0.4935605779
 H    0.6971629274    1.0034970502   -2.7007147145
 H    1.1359612268   -0.6311082587   -3.1930937984
 H   -0.5592688621   -0.2292518774   -2.8976364376
 H    2.8136695474    0.1972749730   -1.1325040008
 H    2.1929313597   -0.2784602092    0.4643004246
 H    2.5675391301   -2.1658330426   -1.9214042077
 H    2.5782109578   -2.7081251432    0.8241528990
 H    0.2470741112   -2.3109026422    0.0782674283
 H    0.1157739145   -2.6179852118   -1.6682473609