15

 N    0.0494805327   -1.1906012640   -0.0595669992
 C    0.0362119650   -0.0353144473   -0.0103781751
 C    0.0295975262    1.4235647047    0.0592202306
 C   -0.1517725181    2.1317030102    1.4059878649
 C    1.2316441052    2.2570256322    2.0594281905
 C    2.2471939884    1.6101408187    1.1196788865
 C    1.3887612685    2.1946974483   -0.0333502756
 C    0.7926335374    3.2367935789    0.9985825848
 H   -0.6809769041    1.8163847292   -0.6731876353
 H   -1.0630503031    2.2047729164    1.9836746998
 H    1.3154084755    2.4275497036    3.1246289259
 H    3.2144747570    2.1152426846    1.1796962916
 H    2.3900636866    0.5251382176    1.1466693456
 H    1.8154244514    2.4094646126   -1.0096662351
 H    0.6800952614    4.3102345045    0.9867566601