13

 O   -0.1796727774    0.0205604904    0.0019853315
 C   -0.0271819226    1.2114159102    0.0097430766
 N    1.1844576971    1.8867142358    0.0022467979
 C    1.2488277278    3.3436552094    0.0129565584
 C    2.7250421649    3.6148981701   -0.0007728861
 C    3.4156416215    2.4750560989   -0.0171424365
 C    2.4900412670    1.3116832639   -0.0161099256
 O    2.7547975206    0.1397914732   -0.0283627578
 H   -0.8726315599    1.9315017678    0.0241905866
 H    0.7482505841    3.7780865323   -0.8630017103
 H    0.7672294481    3.7642461628    0.9061384043
 H    3.1207940044    4.6219817489    0.0028101449
 H    4.4872373744    2.3381288762   -0.0298043739