17

 C   -0.0408782282    1.5213504767    0.0849382411
 C   -0.0279566679    0.0234900058    0.0021455848
 C    1.1721755852   -0.7971084203   -0.3656274638
 C    0.5947750563   -0.9857515301    1.0285754175
 C    1.3313128523   -0.6778946033    2.2102023657
 N    1.9339803079   -0.4321943262    3.1678129909
 C   -0.6724062511   -1.8070364898    0.9549906845
 N   -1.8015354877   -0.9288069979    1.3429865805
 C   -1.2591177929   -0.8605699126   -0.0349773585
 H    0.9247639771    1.9081487079    0.4235846190
 H   -0.2532145352    1.9633453942   -0.8953466942
 H   -0.8086930781    1.8551410514    0.7883784235
 H    1.0962363238   -1.6179195917   -1.0731998662
 H    2.1146730745   -0.2598932769   -0.4012502320
 H   -0.7513938731   -2.8859000499    1.0046234285
 H   -2.6501333233   -1.4963516791    1.3117425405
 H   -1.8789508097   -1.0809273683   -0.8957086818