19

 C   -0.0260534435    1.4610134695    0.0633886162
 C    0.0536063638   -0.0632452836   -0.0182526666
 N    0.7068608596   -0.5524027394   -1.2446975235
 C    2.0848131484   -0.7496730266   -1.1993746307
 O    2.8343211543   -1.0118438211   -2.1029871558
 C   -0.0986043756   -0.6784278047   -2.3894892673
 N   -1.2899181217   -0.2302827740   -2.3692467460
 O    0.5484291040   -1.3187673345   -3.3782633029
 C   -0.1346461351   -1.4682799392   -4.6136712015
 H    0.9717845026    1.9109386376    0.0386717459
 H   -0.6122036168    1.8540719794   -0.7691565109
 H   -0.5093976157    1.7586076244    0.9994166413
 H    0.6232347142   -0.4613667076    0.8269859426
 H   -0.9459235603   -0.4966219508    0.0148529445
 H    2.4363782137   -0.6218421499   -0.1563826992
 H   -1.7878048499   -0.4213932394   -3.2324925357
 H   -0.4242589876   -0.4960366588   -5.0288988445
 H    0.5741164838   -1.9545271884   -5.2839280179
 H   -1.0251829882   -2.0992547130   -4.5056323382