16

 O   -0.8211525806    1.0917883221    0.2680088263
 C    0.2808985231    0.9074796382   -0.1884797709
 C    1.4049697100    1.8585484544   -0.0336121149
 C    1.2310703990    3.2539282856    0.5152401948
 C    2.6492687975    3.7418871260    0.3172247796
 C    3.6466927922    2.6019968723    0.4913622953
 C    3.2481648845    3.0622033864   -0.8855173346
 N    2.4367755070    1.8059445540   -1.1434174428
 C    2.7990832745    1.3516882587    0.2194137464
 H    0.5335753633   -0.0080313410   -0.7653802871
 H    0.4983761010    3.8293921015   -0.0582468320
 H    0.9174742935    3.2374129267    1.5629065624
 H    2.9609608160    4.7490633616    0.5630278096
 H    4.5857094589    2.6616497196    1.0213781948
 H    3.7926707265    3.5257050281   -1.6960698919
 H    3.0520111237    0.3199514758    0.4359502448