20

 C   -0.1519408885    1.5295581450    0.0684992384
 C    0.0044638733    0.0053568806    0.0433875058
 C    0.6801557232   -0.4639401148   -1.2683065259
 C    0.4346728294   -1.9281974533   -1.6217486103
 O    0.9447937720   -2.8485928235   -0.6640513091
 C    0.3311248496   -2.7930530335    0.5781181890
 O    0.8992951358   -1.8340940473    1.4627610680
 C    0.7646356699   -0.4852837255    1.2643361645
 N    1.2867452631    0.3258829079    2.0843472028
 H    0.8214691541    2.0207307057   -0.0034624230
 H   -0.7727274475    1.8529046255   -0.7732365322
 H   -0.6144939172    1.8623685593    0.9990757053
 H   -1.0021819196   -0.4379160619    0.0771114043
 H    0.2869807060    0.1407312972   -2.0943979767
 H    1.7574337791   -0.2691781401   -1.2158577825
 H   -0.6458173655   -2.1019274730   -1.7548457929
 H    0.9310456341   -2.1823164262   -2.5623012293
 H   -0.7523166030   -2.6246526587    0.4808453603
 H    0.5168963052   -3.7473873673    1.0739687541
 H    1.7638791063   -0.1892640062    2.8268011994