17

 C   -0.0783668963    1.4552594131    0.0339119363
 C   -0.0293090917   -0.0278511731   -0.0304358506
 C   -0.0031783677   -0.9103054659   -1.0318112995
 C    0.0522741544   -2.2482905651   -0.2783404214
 C   -1.0551632611   -2.0559948881    0.7944808526
 C    0.0169311828   -0.9866650192    1.2020197478
 O    1.0388833377   -1.9586707025    0.7728269118
 C    0.1532191391   -0.4447263263    2.5273824656
 C    0.2421364625    0.0265525419    3.6295297012
 H    0.7885331960    1.8541642134    0.5743421462
 H   -0.0957109804    1.8958980647   -0.9663522714
 H   -0.9662591611    1.8006032331    0.5778942295
 H   -0.0167209532   -0.7562775920   -2.1008374023
 H    0.2253257610   -3.1796031525   -0.8135700280
 H   -2.0410973965   -1.7070715220    0.4824606987
 H   -1.1075769089   -2.8763960510    1.5131514841
 H    0.3270083834    0.4344876215    4.6065457494