16

 N    0.0640275259    1.1527893081    0.3397685150
 C    0.0209609678   -0.0585333945    0.0300016538
 O    1.0037662768   -0.9097180265   -0.4383151241
 C    0.0368108376   -1.9906714211   -0.6492904811
 C    0.2540902094   -3.2377461145    0.2183244693
 C   -0.5861958602   -3.0124393641    1.4637103051
 O   -0.2276728537   -1.8365605503    2.1915309432
 C   -1.3710822509   -1.7685894394    1.3338368647
 C   -1.0727141380   -1.1134096186   -0.0060007047
 H    1.0053791021    1.5334292599    0.2290976030
 H   -0.0394460052   -2.2038668623   -1.7173377659
 H   -0.0927342921   -4.1318439357   -0.3117454848
 H    1.3139602641   -3.3749196389    0.4524948543
 H   -0.9095514707   -3.8554856100    2.0704776744
 H   -2.3221706846   -1.6018299386    1.8308479512
 H   -1.9655528782   -0.8739735935   -0.5830415734