23

 C    0.3989158172    1.2862489979    0.1981996940
 O   -0.2903543573    0.1642508381   -0.3159552741
 C    0.4552194567   -0.5338014059   -1.2678033570
 C    1.4221254327   -1.6353751470   -0.8971199896
 C    1.3418304728   -2.2455042504    0.4993987718
 C   -0.1511424831   -2.5705994654    0.7355148153
 C   -0.7710908007   -2.7706644216   -0.6702146856
 C   -2.2646096708   -2.4390919166   -0.7436119806
 C    0.1096355844   -1.9504920788   -1.6115318494
 H    1.3398309704    0.9992381503    0.6882277306
 H    0.6314077402    2.0124966201   -0.5959904935
 H   -0.2576449928    1.7621983158    0.9303435901
 H    0.7618233117    0.0934237440   -2.1083442623
 H    2.3751792354   -1.6700527560   -1.4156454056
 H    1.9433961701   -3.1622386365    0.5092431896
 H    1.7496783616   -1.5934299120    1.2796111504
 H   -0.2865511552   -3.4526815044    1.3687215661
 H   -0.6418460737   -1.7304516091    1.2303713689
 H   -0.6355518229   -3.8219507320   -0.9612909795
 H   -2.4352829705   -1.3902573073   -0.4852636499
 H   -2.6613704251   -2.6098775856   -1.7503900115
 H   -2.8403644886   -3.0632548026   -0.0511800107
 H    0.0851102076   -2.2084678749   -2.6659914576