21

 C   -0.0372297332    1.5508771943   -0.0235834129
 C    0.0630156313    0.0431188993    0.0842886026
 C    1.2876971758   -0.7773659106   -0.2139033168
 C    2.5668735559   -0.0830619412    0.2728533130
 C    1.9863925772   -0.0505432731    1.7187275411
 C    2.7849435635   -0.7117020814    2.8620602709
 O    2.7606261996    0.4949415831    3.6478370119
 C    1.9978994348    1.1883165789    2.6399398702
 C    0.7107064805   -0.7231360840    1.2107070642
 H    0.8827380943    2.0561797374    0.2808678273
 H   -0.2463941168    1.8505759995   -1.0565110903
 H   -0.8485210478    1.9351970152    0.6041926796
 H   -0.8404042654   -0.4625198170   -0.2540684707
 H    1.2653021611   -1.5984228539   -0.9204805741
 H    3.4480697897   -0.7273312480    0.2117183361
 H    2.8125829830    0.8797729419   -0.1877853422
 H    2.2780610606   -1.5435898314    3.3703681222
 H    3.8084730552   -1.0205135721    2.6090688102
 H    2.5339374901    2.0654815424    2.2522089870
 H    1.0164783675    1.5072246717    3.0142620755
 H    0.1708849333   -1.4867583010    1.7610736852