19

 C   -0.1154004316    1.4593562064    0.0477698309
 C    0.0302523143   -0.0504458239    0.0168119719
 C   -1.1402734335   -0.7732420253   -0.6238892963
 C    1.3880866213   -0.6440620546   -0.1558334407
 O    2.4808028044    0.2218586509   -0.2838950116
 C    0.7527659439   -0.6921774624    1.2416069472
 O    1.2957356204    0.1637864976    2.1998776084
 C    0.3574652045   -2.0006982042    1.8087414200
 O   -0.0173422466   -2.9601824591    1.1712361784
 H    0.7097249456    1.9527087711    0.5588893436
 H   -0.1649181625    1.8471822380   -0.9752868563
 H   -1.0435766312    1.7346334953    0.5583975118
 H   -1.2470484823   -0.4499682922   -1.6658573566
 H   -1.0153749854   -1.8559407387   -0.6016084268
 H   -2.0720180142   -0.5301409684   -0.1016765558
 H    1.4668534071   -1.5929722782   -0.6828061825
 H    3.2852304162   -0.3070496040   -0.2497880518
 H    2.1103068863    0.5212944584    1.8190518413
 H    0.4618372933   -2.0367934067    2.9144901850