19

 C   -0.1347216827    1.4023620948   -0.1081461974
 C    0.0712905426   -0.0924736127   -0.0407302415
 C    1.4642018260   -0.6803367771   -0.0892115546
 C    0.6803395965   -0.7063444791    1.1959646816
 N    0.9946907269    0.0287640966    2.4440451647
 C    0.5837404442   -1.1639980197    3.2630003353
 C    0.1999245745   -1.8726325399    1.9797704383
 N   -0.3166606728   -2.9734800868    1.6306819241
 O   -0.6207222733   -3.7640427165    2.7568605018
 H    0.6231578308    1.9272643307    0.4805736105
 H   -0.0807987255    1.7636756145   -1.1407999631
 H   -1.1119057842    1.6816332767    0.2987709649
 H   -0.7071096252   -0.6966043697   -0.4999529690
 H    1.6277778728   -1.6233844886   -0.5999874784
 H    2.2975973598    0.0157376596   -0.1385745679
 H    1.9895281305    0.2100673014    2.5335346257
 H    1.3915439054   -1.6535291790    3.8184296222
 H   -0.2395585520   -0.9529160103    3.9526058188
 H   -1.0018314142   -4.5516731249    2.3544900238