16

 C   -0.0113246357    1.5236652392    0.0487090075
 C    0.0125039652    0.0379034256   -0.0305557641
 C    0.0098313064   -0.8279999451   -1.0952085869
 O   -0.0183929241   -0.4153618655   -2.3960424538
 C   -0.0172347445   -1.3459121002   -3.3864768851
 N   -0.0436651356   -0.9461458520   -4.5829713327
 N    0.0382039271   -2.1349807898   -0.7065301446
 C    0.0588453423   -2.0906963150    0.6096982564
 N    0.0446341955   -0.8118401246    1.0654259722
 H    0.8753403173    1.9282728270    0.5521212371
 H   -0.0343574673    1.9311883824   -0.9640950761
 H   -0.8946460448    1.8983996478    0.5803386967
 H    0.0074268518   -2.3704173180   -3.0125044882
 H   -0.0389173007   -1.7509111438   -5.2070232204
 H    0.0839671771   -2.9453004347    1.2679746901
 H    0.0553780599   -0.5230075532    2.0293271119