20

 C    0.0296006659    1.5647226497    0.2095824242
 C   -0.1042220335    0.0807867658   -0.1431978363
 N   -1.4687891409   -0.4105446865   -0.0694490437
 C   -2.1768505298   -0.6574077018    1.1834534946
 C   -3.6445046000   -0.8370817427    0.7364359959
 C   -3.5091160815   -1.3812483621   -0.6873331730
 O   -4.5668138032   -1.0347868082   -1.5423455838
 C   -2.1903979411   -0.7673397168   -1.1646160476
 O   -1.8837188344   -0.6287091237   -2.3359382267
 H    1.0758952130    1.8754245781    0.1310534457
 H   -0.5633729842    2.1776770903   -0.4748779457
 H   -0.3019226851    1.7719232843    1.2319921514
 H    0.2237008389   -0.0924947240   -1.1716282782
 H    0.5285252561   -0.5254978314    0.5185860797
 H   -1.7866827740   -1.5568520766    1.6821779175
 H   -2.0526121573    0.1812777152    1.8752646596
 H   -4.2101997168   -1.4844801441    1.4083123074
 H   -4.1465149507    0.1335620866    0.6830837737
 H   -3.3668449668   -2.4769311147   -0.6622229334
 H   -4.1554508944   -0.8905624173   -2.4078172114