19

 O   -0.3318034033    0.2572722234   -0.1615086500
 C    0.0276128240    1.3462712985    0.1996345665
 C    1.3924197498    1.9435415015   -0.0697579023
 O    2.3336361700    1.0277381946   -0.6281978548
 C    2.3644812753    1.7319450602   -1.8868322616
 C    1.4698482377    2.8690272231   -1.3365313074
 C    0.2144427331    3.2147401350   -2.0869442702
 C   -0.5267173449    4.4977629646   -1.7925861750
 C    0.2261735880    4.3446875492   -3.0888192799
 H   -0.6490614875    2.0311646042    0.7641476918
 H    1.7562828622    2.4058779985    0.8601683543
 H    3.3838324649    2.0087622077   -2.1772462293
 H    1.9049299804    1.1445981465   -2.6915366452
 H    2.0388067326    3.7773898314   -1.1212889689
 H   -0.4021379227    2.3584200896   -2.3476887979
 H   -1.6103338429    4.4806981457   -1.8197012884
 H   -0.1120576248    5.1634077195   -1.0424220460
 H    1.1471849276    4.9058665227   -3.2092807897
 H   -0.3407959995    4.2220462641   -4.0045476958