18

 C   -0.0450031789    1.1341128762   -0.6240731186
 O   -0.2529073618   -0.2658241345   -0.5159625080
 C   -1.3579775329   -0.6105764286    0.2796065532
 O   -2.5852407086   -0.2360664024   -0.3038204407
 C   -3.0847926292   -1.0602954978   -1.3588889032
 C   -2.1373770696   -2.1979236161   -1.7415375380
 N   -1.6919667714   -2.8563828779   -0.5240900789
 C   -1.2421060613   -2.1253758037    0.5313342360
 O   -0.8078550580   -2.5881718993    1.5648334218
 H    0.8362190962    1.2761713274   -1.2526787032
 H   -0.9062389612    1.6338962563   -1.0824089638
 H    0.1411771557    1.5824535489    0.3622314117
 H   -1.3246083425   -0.0919941481    1.2447931655
 H   -4.0399228533   -1.4821793239   -1.0211971297
 H   -3.2784611335   -0.4261673650   -2.2317076201
 H   -2.6740409572   -2.9170073221   -2.3655889321
 H   -1.2866122591   -1.8120158405   -2.3139295278
 H   -1.5841505236   -3.8578764988   -0.4750381942