19

 C   -0.1516050171    1.6466451675   -0.1207847495
 C    0.0038414418    0.1365686227    0.0059361209
 C    1.1197411926   -0.5807784807   -0.8539397379
 O    2.0236605388    0.2300692367   -1.5723690032
 C    1.7372732778   -1.1614196248    0.4114913319
 C    2.1148257232   -0.0931442362    1.3715786333
 C    0.6474529740   -0.4394811814    1.2749347380
 C   -0.0623935960   -1.0753304748    2.3956876964
 O    0.4714863635   -1.5781073301    3.3585264766
 H    0.8017976121    2.1658933169    0.0029012190
 H   -0.5505223985    1.9181253598   -1.1049722270
 H   -0.8476275656    2.0292716528    0.6330772496
 H   -0.9605202228   -0.3517616549   -0.1754819117
 H    0.6899986956   -1.3592470060   -1.4964083091
 H    1.5719901108    0.5695556584   -2.3517784046
 H    2.0614046875   -2.1865201757    0.5392874881
 H    2.5769572966   -0.4399580223    2.2891235615
 H    2.4602643452    0.8673386121    1.0058145564
 H   -1.1719793193   -1.0878116200    2.2870919914