20

 C    0.1825783814    1.5501956317   -0.2069530416
 C   -0.0869728563    0.0619335931    0.0806739526
 C    0.6301944307   -0.4611025500    1.2857856736
 C    0.0841072833   -0.9402430581    2.4065945567
 N    1.0438261952   -1.3638523628    3.3389131656
 C    2.3918304510   -1.0443123186    2.8373341402
 C    2.1443667189   -0.5692370240    1.3801089065
 C    0.7626078614   -1.9392005590    4.5397961369
 O   -0.3546989690   -2.1685558559    4.9576336388
 H    1.2459154039    1.7386345138   -0.3867267477
 H   -0.3661017486    1.8780346447   -1.0950980273
 H   -0.1300441293    2.1732326917    0.6366639177
 H   -1.1638620483   -0.0942586131    0.2085664636
 H    0.2070149855   -0.5243327275   -0.8023975973
 H   -0.9558574458   -1.0515421765    2.6753136102
 H    2.8399480382   -0.2495030794    3.4436956930
 H    3.0432125406   -1.9202700608    2.8939555485
 H    2.5308735444   -1.2875683083    0.6446479979
 H    2.6521907055    0.3798936142    1.1804247649
 H    1.6847986673   -2.1823078850    5.1037127773