18

 C   -0.0258755094    1.6285468993    0.1675485215
 C    1.4706116814    1.2254739928    0.0584426347
 C    1.1356274355    0.0184525142    1.0176709238
 C    0.0200291684    0.0862500256   -0.0418997906
 O   -1.0690909849   -0.7453367107   -0.2948459650
 C   -1.3751603642   -0.7589102357   -1.6381597546
 N   -0.8024621275   -0.2004383556   -2.6167736081
 C    0.4217820520    0.6015825608   -2.4522008086
 C    1.0917464687    0.2678108046   -1.1248462980
 H   -0.3657194367    1.9731352550    1.1466885720
 H   -0.4463791767    2.2352882473   -0.6342248850
 H    2.3325574755    1.8832682515    0.1394816911
 H    1.8051307641   -0.8433332816    0.9697518234
 H    0.8712496539    0.2800458551    2.0448690758
 H   -2.2648694292   -1.3654376444   -1.7923538199
 H    1.0737932102    0.3746098347   -3.3015991140
 H    0.1541082743    1.6594394278   -2.5556342833
 H    1.7619004645   -0.5913419906   -1.2279239754