19

 C   -0.1710063475    1.4790300733   -0.2605424807
 N    0.0287074380    0.0443433718   -0.0732369941
 C    1.3955541301   -0.5013933269   -0.1762395190
 C    2.5256475690    0.3678248838   -0.3862816749
 N    3.4319323170    1.0680425273   -0.5545064942
 C    0.6587141233   -0.4187335412    1.1337224539
 C    1.1224762215    0.3630743505    2.3737966614
 C    0.9827149195   -0.9615685834    3.1833553904
 C    0.1994221961   -1.5977807801    1.9961257145
 H    0.6290212445    2.1042018089    0.1581327220
 H   -0.2490742754    1.6888529499   -1.3306657474
 H   -1.1175630980    1.7556186040    0.2126461217
 H    1.4653939945   -1.4529440889   -0.6973993701
 H    2.1094488950    0.8281818757    2.3324227096
 H    0.3914040262    1.1193225367    2.6759569219
 H    1.9475147720   -1.4443865167    3.3520319089
 H    0.4537393283   -0.8951376533    4.1351066096
 H   -0.8844711403   -1.5835629745    2.1432164658
 H    0.4964217963   -2.5980358567    1.6729469304