17

 O   -0.0003116418    1.4274781896    0.0091954141
 C    0.0395853134    0.0079495941   -0.0383093665
 C    0.8671423163   -0.5662507632    1.1286676960
 C    0.8236486351   -2.0860916072    1.2081738330
 O   -0.0270450881   -2.6578501519    2.2112472229
 C   -0.4239350965   -2.7793092114    0.8496906018
 C   -1.5982078858   -1.9553110147    0.3828941913
 O   -1.9699616215   -0.8355207296    1.1845706833
 C   -1.3578196355   -0.5790976741   -0.0861369458
 H   -0.4560944526    1.6743895936    0.8225664871
 H    0.5310330592   -0.2239893997   -0.9922730447
 H    1.8961964178   -0.2118073844    1.0293365949
 H    0.4655411415   -0.1691318492    2.0663154366
 H    1.7666795689   -2.6162493501    1.0826450746
 H   -0.3882330059   -3.7917542755    0.4472250451
 H   -2.4395687067   -2.5134617746   -0.0259937775
 H   -2.0193517776   -0.1421748516   -0.8337625661