15

 N   -0.1841960860    1.4096332195    0.1151862509
 C    0.0043135100   -0.0373772374   -0.0030215889
 C    0.7598482777   -0.4324485329   -1.2196007238
 N    1.3257905256   -0.6991871224   -2.1921349774
 C    0.6841164587   -0.5800012695    1.2307425835
 N    1.7494533255    0.0480003443    1.7215100378
 N    2.1018080494   -0.6812273261    2.7922027959
 C    1.2993410141   -1.7527538367    2.9948552637
 C    0.3554692065   -1.7227003102    1.9901206926
 H    0.7073835656    1.8325569472    0.3574552055
 H   -0.4715595607    1.7964532650   -0.7788711007
 H   -0.9816519104   -0.5101948424   -0.0826723219
 H    2.8944316624   -0.3906250196    3.3396191731
 H    1.4562002087   -2.4328471491    3.8166995044
 H   -0.4514065271   -2.4188840797    1.8302148953