17

 C   -0.2553879600    1.5307403641    0.0630670557
 C    0.0481118889    0.0495529500   -0.0075702450
 C   -0.6776474354   -0.8849013941    0.9453839428
 C    0.7886962604   -0.5947773535    1.1265837094
 O    1.7232464872   -1.6211856653    0.8750284515
 C    1.8069346640   -2.0782605317   -0.3998276648
 N    1.2398225826   -1.6641416457   -1.4483870055
 C    0.3862433299   -0.4848468113   -1.3949024469
 H    0.5881449318    2.1269572113   -0.3030112779
 H   -1.1312087442    1.7792691181   -0.5480672375
 H   -0.4704250657    1.8465618859    1.0890860152
 H   -1.3763813881   -0.4626332196    1.6597389903
 H   -0.9389184781   -1.8747512946    0.5844793215
 H    1.1211672025   -0.0007216084    1.9703396191
 H    2.4817047062   -2.9313502369   -0.4326821723
 H   -0.5310255213   -0.7032842313   -1.9585145109
 H    0.8987743994    0.3067912629   -1.9582492646