18

 C   -0.0572703761    1.5456070506    0.0816025693
 C    1.4638491762    1.2677960622    0.0528771548
 C    1.1835331465    0.0642413290    1.0289835034
 C    0.0932988470   -0.0025201554   -0.0796673010
 C   -0.9011649582   -0.8756218337   -0.7926266754
 O   -0.7943929325   -0.4258857253   -2.1600806945
 C    0.4056280414    0.3611701044   -2.3961562581
 C    1.2167388743    0.2459967492   -1.1124907542
 H   -0.4710956549    1.8882215092    1.0335904981
 H   -0.4858331150    2.1022363300   -0.7519244956
 H    2.2734257234    1.9937976309    0.1419648506
 H    1.9231371970   -0.7407332602    1.0405347725
 H    0.8536242239    0.3265175412    2.0375192617
 H   -0.6429512334   -1.9422796898   -0.7182465960
 H   -1.9417967600   -0.7422922376   -0.4790551002
 H    0.9290430233   -0.0712467076   -3.2552745479
 H    0.1092776557    1.3824881119   -2.6611674465
 H    1.9644944612   -0.5510527390   -1.1714685209