17

 C   -0.2354942584    1.5504977154    0.0577488085
 C   -0.0363424964    0.0413586269    0.0163739437
 O   -1.2444562546   -0.6556301544    0.2443717907
 C    0.6623687098   -0.5413158806   -1.2838987341
 N    1.7531445254   -0.9901919636   -0.3961321600
 C    2.9821727280   -1.5124045415   -0.0791577534
 C    3.0674539319   -1.3057944934    1.2879566407
 N    1.9513734173   -0.6621467487    1.8019433773
 C    1.2046421997   -0.5061574466    0.7342142380
 H    0.6853089222    2.0813448570   -0.2003464258
 H   -1.0282513579    1.8449607409   -0.6363257987
 H   -0.5264208131    1.8628109434    1.0665131910
 H   -1.5230509384   -0.4789140005    1.1496680559
 H    0.1048461223   -1.3559919485   -1.7495613425
 H    0.9716088491    0.1981080746   -2.0268325062
 H    3.6507473958   -1.9728822217   -0.7859097319
 H    3.8833220574   -1.5939472287    1.9344980670