19

 C    0.2394638534    1.2453757178    0.2646247830
 O   -0.2877433312    0.0379235184   -0.2758123181
 C    0.5427103946   -0.6594895865   -1.0672540843
 N    0.1706482685   -1.7424847015   -1.5945313209
 C    1.0987176315   -2.4266143325   -2.4189270993
 C    2.5696626991   -2.1206042187   -2.8467321781
 N    2.2863249253   -3.4451248872   -3.5642853033
 C    1.6146476764   -3.8755533063   -2.2498448192
 C    0.9172271888   -2.8317492113   -3.9012010796
 H    1.1142160630    1.0528511152    0.8971364662
 H    0.5128797926    1.9529184277   -0.5271805150
 H   -0.5536699390    1.6795500346    0.8738469029
 H    1.5374293860   -0.2076429197   -1.2018785720
 H    2.7500499132   -1.2870471867   -3.5318683491
 H    3.3580705806   -2.1970501446   -2.0921876467
 H    2.3232976412   -4.0766613515   -1.4415081901
 H    0.8977603801   -4.6914937507   -2.3699235889
 H    0.1506076569   -3.5732565836   -4.1390373928
 H    0.9649087391   -2.0436076527   -4.6579022849