22

 C    1.2863476646   -0.2618394388   -0.5604406033
 C    0.2474389898   -1.1800192958   -1.1040061929
 N   -0.0915930899   -0.2036186726   -0.0773435890
 C   -0.3605401692   -0.6351233432    1.2743586822
 C    0.2941980982   -1.8897337036    1.9279281455
 C   -1.1055608778   -2.3066879298    2.4751718696
 C   -1.7872398260   -1.1403841424    1.7041957674
 C   -1.9988219503    0.1446674771    2.5351878860
 C   -0.5215652805    0.5620388824    2.2623289764
 H    2.0388038441   -0.7024640231    0.0910690295
 H    1.6259985252    0.5956726316   -1.1345886494
 H   -0.1937700663   -0.9947085503   -2.0795476892
 H    0.3194065311   -2.2315252867   -0.8353239377
 H    0.6849265043   -2.6123010470    1.2060837448
 H    1.0772136775   -1.6935794702    2.6662551612
 H   -1.4252369682   -3.3025859119    2.1601659818
 H   -1.2103879905   -2.2470338799    3.5621774625
 H   -2.5546623065   -1.4184885878    0.9805541634
 H   -2.7135390833    0.8311134502    2.0746471034
 H   -2.2863257191    0.0000744541    3.5808871286
 H    0.1431841550    0.5271142502    3.1299813787
 H   -0.4092415124    1.5297609575    1.7706801605