17

 C    0.0048670974   -1.1756947487   -0.0220030195
 C    0.0350301129    0.0259778384   -0.0048142333
 C    0.0293968429    1.4681457360   -0.0129198822
 C   -1.1753356521    2.1281507341   -0.6669762869
 C   -1.1170239355    3.6669430213   -0.5949556957
 C    0.2359136105    4.2074849110   -0.9765867295
 C    1.3576987243    3.5327454843   -0.7197531826
 C    1.3159329926    2.2142944515   -0.0427001499
 O    0.5349011130    2.1078676202    1.1668653913
 H   -0.0100636828   -2.2375201627   -0.0275777365
 H   -1.2011284351    1.7998748216   -1.7130883008
 H   -2.0934832709    1.7627296662   -0.1964676803
 H   -1.8936944744    4.0879106755   -1.2415936665
 H   -1.3569468475    3.9873884772    0.4261066780
 H    0.2819337059    5.1806167629   -1.4570696959
 H    2.3317288759    3.9231807360   -0.9967224133
 H    2.2375947628    1.6378797952   -0.0109110964