19

 C   -0.0980738459    1.6098951524    0.1117527534
 C    1.3984230288    1.2198097053    0.0691398765
 O    1.1018882889    0.1234736687    1.0267384210
 C    0.0270723783    0.0730540396    0.0029092191
 C    1.1213049800    0.2249933121   -1.0911457958
 C    0.7937717287    0.6820887403   -2.5275096323
 C    1.8276353602   -0.0861392648   -3.3661080384
 O    2.0513060587   -1.2930055086   -2.6581161285
 C    2.1130013282   -0.9428109053   -1.2824214319
 H   -0.4440579405    1.9696451431    1.0811197577
 H   -0.5240194612    2.1637832976   -0.7271549749
 H    2.2844983555    1.8270343915    0.2632596531
 H   -0.7355132403   -0.7001114168    0.1113206506
 H   -0.2194336737    0.3738094811   -2.8046213517
 H    0.8640677179    1.7640494252   -2.6650770739
 H    1.4852983007   -0.3393947948   -4.3725075326
 H    2.7619792545    0.4944375376   -3.4539282652
 H    3.1328536903   -0.6254791180   -1.0100304421
 H    1.8651896507   -1.8267024263   -0.6929537042