19

 C   -0.3096484481    1.4730200543   -0.0948947676
 C    0.1431995031    0.0069258639    0.0399904820
 C    0.8423798238   -0.5133300032   -1.1768726684
 C    2.1032844809   -0.9354943664   -1.3033787089
 C    2.3530143266   -1.3465429296   -2.7004916929
 O    3.3457681851   -1.7748367008   -3.2180245219
 O    1.1827835237   -1.1519229005   -3.3986589089
 C    0.1694712400   -0.6367121308   -2.5288029045
 C   -1.0468613183   -1.5609127695   -2.5556104356
 H    0.5435122774    2.1297393612   -0.2886668164
 H   -1.0255851605    1.6012551333   -0.9123510487
 H   -0.7941707532    1.8067665931    0.8268150536
 H    0.8078065660   -0.0952076445    0.9035969999
 H   -0.7354732361   -0.6187992961    0.2459627108
 H    2.8690534750   -0.9936364513   -0.5430683558
 H   -0.1161392193    0.3537027370   -2.9097309052
 H   -0.7845694193   -2.5493540337   -2.1680071701
 H   -1.8591774582   -1.1481194814   -1.9496523555
 H   -1.4051216685   -1.6721555951   -3.5817319659