23

 C   -0.1237884033    1.5756056904   -0.1047258810
 C   -0.0285461895    0.0684013023    0.0154950739
 C    0.9002540043   -0.6658241464   -0.9919648467
 C    1.5953827474   -1.4334354855    0.1648812777
 C    0.6918159783   -0.7270726440    1.2143372899
 C    1.3821432612   -0.0873669830    2.4015231967
 C   -0.6079749652   -1.4974046177    1.4334277253
 C   -1.7530400599   -0.5649958677    1.7112361837
 C   -1.2944664981   -0.7393282742    0.2909987629
 H    0.8684119456    2.0411432742   -0.0882195599
 H   -0.6012354378    1.8570756045   -1.0519724498
 H   -0.7144692283    2.0154302001    0.7054787445
 H    0.3834102713   -1.2768398275   -1.7376753773
 H    1.5740063193    0.0131916294   -1.5220466450
 H    1.5127122076   -2.5239321379    0.1417865179
 H    2.6532794930   -1.1786457546    0.2740897195
 H    2.1718183458    0.6018167929    2.0807451899
 H    0.6824452627    0.4730493802    3.0301231458
 H    1.8524425492   -0.8527073844    3.0320227173
 H   -0.6650968802   -2.5556547541    1.6681938789
 H   -2.6932968110   -1.0495080309    1.9547544501
 H   -1.5948963455    0.3727646549    2.2384751235
 H   -1.9538065865   -1.1325739811   -0.4763989077