18

 C   -0.0639128160    1.4196672003   -0.0011253106
 N   -0.0613617868   -0.0275983952    0.0215790874
 N    0.0299809119   -0.7507991227   -1.0924113563
 C    0.0759884888   -2.0125380545   -0.6582055176
 C    0.1655200499   -3.1824832092   -1.5826763396
 C    0.0171376804   -1.9913114745    0.7524713839
 C    0.0583464574   -3.1302732616    1.7226520903
 O    1.2205333242   -3.9419415938    1.5656178321
 N   -0.0598481291   -0.7185675379    1.1538800176
 H    0.9521664748    1.8096336608   -0.1191138510
 H   -0.6766767115    1.7589180322   -0.8371858130
 H   -0.4810090279    1.7702243465    0.9423075865
 H    0.8183114935   -3.9488735231   -1.1576732058
 H   -0.8175695761   -3.6408037110   -1.7442005224
 H    0.5531778948   -2.8728596515   -2.5555502984
 H   -0.0293397131   -2.7312281425    2.7422033196
 H   -0.7843368719   -3.8107321000    1.5600010489
 H    1.9862679868   -3.3683563721    1.6764268683