19

 C    0.1187604578    1.5200635595   -0.0091911862
 C   -0.0108367148    0.0002950809    0.0403454600
 C   -1.4761613626   -0.4543264934    0.0088186881
 O    0.6879273783   -0.5125668453   -1.1139800651
 C    1.3311378442   -1.7440446581   -0.8108553573
 C    1.5462776178   -1.7359103466    0.6871961291
 N    2.1774469679   -0.4823372675    1.1523675170
 C    0.7111716663   -0.6401318299    1.2217195315
 H    1.1716312103    1.7997324115    0.0611718429
 H   -0.2863472849    1.9020177099   -0.9507431162
 H   -0.4315622396    1.9852789856    0.8151817555
 H   -1.9566282792   -0.0990163306   -0.9069229881
 H   -1.5499656636   -1.5463087240    0.0316860800
 H   -2.0322241475   -0.0583911769    0.8655238637
 H    0.7099105793   -2.6102453845   -1.0918488142
 H    2.2618340128   -1.7829171486   -1.3871720992
 H    1.7172918027   -2.6636175687    1.2228788773
 H    2.5706341476   -0.6333551003    2.0785501101
 H    0.2154951872   -0.6963384931    2.1853814910