19

 C   -0.3489503922    1.4181692378   -0.0792507617
 C    0.0264034273   -0.0384891981    0.0792636133
 O    0.1926064970   -0.5355744027    1.1765954725
 C    0.1991408317   -0.8488268218   -1.1988511080
 C    0.1143576246   -2.3631134492   -0.9793101097
 O    1.1010266480   -2.8236337940   -0.1003936357
 C   -1.3382568348   -2.8827926026   -0.7745899095
 O   -1.3879440123   -3.3500095674   -2.1388668149
 C    0.0364669316   -3.1750074288   -2.2868589560
 H    0.3053778344    1.9084484994   -0.8081647319
 H   -1.3698157174    1.4914837149   -0.4726893568
 H   -0.2929746102    1.9291381759    0.8824271266
 H   -0.5342146530   -0.5232835807   -1.9457125684
 H    1.1887175318   -0.5961663553   -1.6073113004
 H    1.0133005378   -2.2826660425    0.6994951218
 H   -1.3833692842   -3.7055897791   -0.0501192642
 H   -2.1289317321   -2.1544320234   -0.5591745315
 H    0.2975165990   -2.6669271010   -3.2224560895
 H    0.5856663531   -4.1220096313   -2.2116350460