18

 C    0.3077665744    1.2712920715    0.8549658361
 C    0.0543577235   -0.0757175317    0.1432372945
 N    0.6211526992   -1.2747085033    0.7674413959
 C    2.0701089186   -1.3211465328    0.8172169913
 C    2.6546261660   -0.7631091137    2.1274173898
 N    4.0042961971   -0.5878530365    2.1324151291
 O    1.9493803255   -0.5240801999    3.0892231108
 C   -1.3955506980   -0.2863431216   -0.0199516630
 N   -2.5365981124   -0.4229390052   -0.1370566595
 H    1.3792747113    1.4844612061    0.8863843463
 H   -0.1890834726    2.0859561716    0.3201599841
 H   -0.0644468615    1.2400038589    1.8811289971
 H    0.4718363582   -0.0174256112   -0.8710679015
 H    0.2759803633   -1.3506344690    1.7218597835
 H    2.4065281352   -2.3654331553    0.7374877002
 H    2.4980358925   -0.7955039676   -0.0442640395
 H    4.5818912682   -0.8766043894    1.3617465347
 H    4.4525681413   -0.3415673709    3.0003375001