20

 C   -0.1326373561    1.5193373905   -0.2400825026
 C   -0.1371355559    0.0320356246   -0.5697781249
 O    0.5528389531   -0.4452339974   -1.4471897837
 N   -0.9821501508   -0.7172064124    0.2188692910
 C   -1.0602799236   -2.1323101913    0.1804766457
 C   -1.3314003585   -2.8617351875   -1.0976926180
 C   -2.2970085720   -3.0364536710    0.0424851274
 C   -1.7104579544   -4.0115259611    1.0707320385
 C   -0.4598698019   -3.0826105745    1.2282916295
 H    0.6423460540    1.7235195769    0.5067910396
 H    0.1167583697    2.0759579314   -1.1439471440
 H   -1.0894346010    1.8719062621    0.1558646416
 H   -1.4476340023   -0.2461837681    0.9794431841
 H   -1.6727622760   -2.2296739695   -1.9088390210
 H   -0.6811134630   -3.6763275395   -1.4075846799
 H   -3.3399301074   -2.7562795092   -0.0469387595
 H   -2.2954553087   -4.0827225843    1.9902543875
 H   -1.5180062986   -5.0233661343    0.7006627890
 H    0.5205206368   -3.5060375529    0.9878064892
 H   -0.4112677336   -2.6311553328    2.2230006606