17

 C   -0.2288026703    1.5328472584    0.2216076930
 C    0.0236710672    0.0502364625   -0.0191902856
 C    0.8188321944   -0.3592887427   -1.3274994361
 N    1.8134752692   -0.9966180414   -0.4361133845
 C    1.1919628071   -0.5916692639    0.7286776536
 N    1.7678657664   -0.7974034489    1.8440997335
 C    3.0224047059   -1.4688169038    1.4258295999
 C    3.0659533962   -1.5224542355   -0.1378042563
 O    3.9346003636   -1.9138360036   -0.8718633850
 H    0.6914682107    2.1142404703    0.1087649455
 H   -0.9689120902    1.9201203119   -0.4853054754
 H   -0.6068925789    1.6962195507    1.2345729132
 H   -0.8999667652   -0.5252818878    0.0891967947
 H    0.3178597347   -1.0586309988   -1.9997115786
 H    1.2230109055    0.4831497224   -1.8950397655
 H    3.8959603592   -0.9277853470    1.8032461386
 H    3.0717460344   -2.4872071528    1.8264342850