16

 C    0.0222065057    1.5481788989    0.0109275607
 C   -0.0460139161    0.0543045324   -0.0335765205
 C   -0.8624867680   -0.8119648247    0.8287218186
 N    0.6215080566   -0.8362730441    1.0386391150
 C    1.1595126657   -1.6677414761   -0.0329063196
 O    1.8998714826   -2.5959340641    0.0260815624
 C    0.5539393128   -0.8028129659   -1.1381365590
 C    0.1632647409   -1.0755790590   -2.5239252447
 O    1.3163266829   -0.2861609747   -2.2048661534
 H    0.9958234250    1.9006298651   -0.3400470300
 H   -0.7482615635    1.9879745572   -0.6319884925
 H   -0.1367040561    1.9096921753    1.0301405773
 H   -1.3835904011   -0.3638781429    1.6692414963
 H   -1.3433913030   -1.6988521217    0.4222492038
 H    0.3746045645   -2.0518013595   -2.9557018969
 H   -0.6723163089   -0.5284314063   -2.9572108574