21

 O   -0.1829811024    1.3305107797   -0.4997079517
 C   -0.0020344363   -0.0508281305   -0.2286112665
 C   -1.3706208834   -0.6297080093    0.1140146003
 C   -1.3590869353   -2.1404590248    0.4057484518
 C   -0.7659287031   -2.4847929367    1.7873822558
 O   -0.4751448046   -3.8593286502    1.9235679753
 C   -2.7736016685   -2.6814684361    0.3068373808
 C   -3.2194840834   -3.5625673980   -0.7789939812
 O   -2.9513048509   -4.0941435754    0.5240624070
 H    0.6779962937    1.7166652834   -0.6845274588
 H    0.4119402138   -0.5791503914   -1.1032464032
 H    0.7015612122   -0.2014467236    0.6040934836
 H   -1.7785463771   -0.0827193385    0.9735198397
 H   -2.0394644785   -0.4191519888   -0.7292578361
 H   -0.7393552333   -2.6550748377   -0.3404429698
 H    0.1794365494   -1.9529353077    1.9372832449
 H   -1.4588127593   -2.1318716789    2.5723897782
 H   -1.2512035141   -4.3436288659    1.6134284874
 H   -3.5315466856   -2.0781108079    0.8106124116
 H   -4.2673082293   -3.5824897783   -1.0726318678
 H   -2.5120658041   -3.8522326233   -1.5543355712