19

 C   -0.0291187260    1.5371729886    0.0180093335
 C    0.1216638870    0.0407098500    0.0024959265
 C    0.4451758854   -0.6609787174   -1.3065089132
 O    1.0783509659   -1.9032297546   -0.9556675144
 C    1.3885296349   -1.9424150768    0.3736398834
 N    2.1245152211   -2.8076777328    0.9250298151
 C    0.7408370033   -0.7902743718    1.0731375954
 C    1.3054230077   -0.3275628208    2.3850115381
 N   -0.7360282346   -0.8316998566    0.8278509866
 H    0.8431947201    2.0285696290   -0.4257999422
 H   -0.9126597290    1.8453837904   -0.5526461738
 H   -0.1453076626    1.9137496351    1.0385613186
 H   -0.4496782778   -0.8889221699   -1.8930884280
 H    1.1401721912   -0.0706742058   -1.9164124350
 H    2.4748807206   -3.4747619956    0.2352592735
 H    2.3658190793   -0.0780587573    2.2873623231
 H    0.7741708650    0.5520205732    2.7609738374
 H    1.2261079986   -1.1277362683    3.1263234033
 H   -1.1785996401   -0.2636108084    1.5502667019