18

 O   -0.2003267579    1.1642886088    0.8386210583
 N   -0.0519184650   -0.2005456947    0.5209961361
 C   -1.0416572187   -0.6176132462   -0.1481804750
 C   -2.3639548900   -0.0467010616   -0.6173481756
 C   -2.8245947418   -1.5121765491   -0.8714424641
 C   -4.0017685898   -2.1290805476   -0.0878290159
 C   -4.5950563577   -2.4062449096   -1.4824572076
 O   -3.4490013178   -1.8097204758   -2.1284926756
 C   -1.3607244535   -2.0056224460   -0.6582492591
 H    0.5971794517    1.3399213047    1.3493546268
 H   -2.9293402214    0.5513286239    0.1021341371
 H   -2.2779928735    0.5132015959   -1.5550206350
 H   -3.7537085847   -3.0131287441    0.5021428834
 H   -4.5632728660   -1.4280672694    0.5322073097
 H   -4.7111374203   -3.4620349474   -1.7530419534
 H   -5.5216740221   -1.8726522457   -1.7233237722
 H   -0.8854294415   -2.2255668981   -1.6206129497
 H   -1.2009367898   -2.8471980679    0.0207351919