19

 O   -0.0025351076   -0.1190297955   -0.4325904483
 C    0.0626144453    1.0421296818   -0.1213371862
 C    1.3341457352    1.8645510815   -0.1167579176
 C    1.2718771444    2.9682105151   -1.1643780033
 C    1.3306278752    2.5598939925   -2.6697418030
 C    2.5085314976    3.5580212602   -2.8999546929
 C    2.3989187469    4.0152184498   -1.4304247815
 O    1.4754905171    5.1081657951   -1.2498210846
 C    0.3966966002    4.2127358510   -0.9043203367
 H   -0.8542862213    1.6060263294    0.1711107234
 H    1.4553878492    2.3123350954    0.8794304377
 H    2.1776310991    1.1929840033   -0.3043385797
 H    1.6031484788    1.5128963551   -2.8205668019
 H    0.4167234104    2.7579686060   -3.2358400448
 H    3.4550728746    3.0620455824   -3.1308614064
 H    2.3404330777    4.3587271703   -3.6227051587
 H    3.3083886627    4.1361176219   -0.8344920341
 H   -0.4810453999    4.3439230980   -1.5496684941
 H    0.0907943745    4.3456684465    0.1430678627