18

 O   -0.0226569466    1.3967895843   -0.0908017550
 C    0.0113339014   -0.0056436387    0.0909190840
 C   -1.3565679044   -0.6151641102   -0.0477085092
 C   -2.2617242896   -0.5322909416   -1.3006161769
 C   -3.0973613962   -1.5606262378   -0.4594632880
 C   -1.7139886996   -2.1190233892    0.0318766149
 C   -3.4378171977   -0.6839596298    0.7189238299
 N   -4.5264733775   -0.5422046728    1.3328842766
 O   -2.2388307968   -0.0481837840    0.9878316400
 H   -0.6670532052    1.7408684831    0.5384277604
 H    0.6704885106   -0.4111439664   -0.6832516165
 H    0.4331248328   -0.2828563262    1.0702331609
 H   -2.7098328403    0.4348061101   -1.5328968099
 H   -1.8083059977   -0.9821194785   -2.1853948368
 H   -3.8914992848   -2.1794383364   -0.8656414755
 H   -1.2128062725   -2.7215171050   -0.7275866950
 H   -1.6666158199   -2.5961430361    1.0128167537
 H   -4.4288886658    0.1324938154    2.0940322825