21

 C   -0.0217019235    1.3516295786   -0.1780072539
 O   -0.0628411773    0.0131451647    0.2604754700
 C   -1.3085219942   -0.6230307389    0.0668221334
 C   -1.6803317226   -0.9250967391   -1.4057771691
 C   -2.6762813892   -2.0928089946   -1.2956461977
 C   -2.1251971366   -2.9373614370   -0.1474934841
 O   -0.9338674817   -3.6681162427   -0.5261830947
 C   -0.1178455514   -2.9098984260    0.3965086892
 C   -1.2986938657   -1.9925680331    0.7639329898
 H    0.9556977076    1.7530511608    0.1009359520
 H   -0.1389620524    1.4385219984   -1.2678441017
 H   -0.8045983460    1.9600676124    0.3022607389
 H   -2.1056273861   -0.0031139362    0.5140107384
 H   -2.0920286828   -0.0603353241   -1.9318828579
 H   -0.7786356437   -1.2457462829   -1.9383085994
 H   -3.6760175648   -1.7281100830   -1.0270374549
 H   -2.7706075358   -2.6734863859   -2.2174751516
 H   -2.8658453133   -3.5969663218    0.3180229582
 H    0.2459611346   -3.5355243170    1.2210107164
 H    0.7329573849   -2.4269671961   -0.0939930650
 H   -1.5454781999   -1.9327888069    1.8235574536