21

 O   -0.1173070305    1.3861689219   -0.1527690653
 C    0.0250303310   -0.0228757937   -0.0726314358
 C   -1.3751309536   -0.6222620946   -0.0058742787
 C   -1.3807233447   -2.1594652992    0.0832239436
 C   -0.7852698152   -2.6193253433    1.4021475413
 O    0.1843790770   -3.3226301823    1.5233064414
 C   -2.7932356848   -2.7170960068   -0.0300470209
 C   -3.3719133354   -3.0420004459   -1.3844829648
 C   -3.0151711233   -4.1541323401   -0.4297717221
 H    0.7610746695    1.7765017882   -0.1793261957
 H    0.5572208343   -0.4238144354   -0.9507660147
 H    0.6068072247   -0.3158545033    0.8161775829
 H   -1.8990171447   -0.1952628832    0.8591246614
 H   -1.9371291690   -0.3127009127   -0.8933356063
 H   -0.7588012954   -2.5862307730   -0.7129215053
 H   -1.3427661503   -2.2518842952    2.2982523471
 H   -3.4890747481   -2.3093169033    0.6995192926
 H   -4.4202124562   -2.8271962134   -1.5594012379
 H   -2.7382832672   -2.8970793064   -2.2533882528
 H   -2.1393300922   -4.7538620678   -0.6543146937
 H   -3.8187375661   -4.7039422505    0.0470973337