23

 C    0.1155221643    1.4231208385   -0.4901771468
 C    0.2862098594   -0.0619283463   -0.2572701063
 C    1.6481407771   -0.6431541190    0.0560411785
 C    0.5796917118   -0.6004088754    1.1137244626
 C    0.6817191305    0.1609890777    2.4440857817
 C    0.4748333857   -1.2009143967    3.1640944963
 O   -0.3265441435   -1.2679016990    4.3165559822
 C   -0.0315037129   -1.8266199132    1.8187443650
 C   -1.5506212682   -1.9434645828    1.7112205486
 H    0.7816545597    2.0034439593    0.1566420989
 H    0.3445895118    1.6918308618   -1.5274357792
 H   -0.9109727346    1.7465956819   -0.2822429381
 H   -0.3534859777   -0.6885134294   -0.8759396260
 H    1.9126947702   -1.6049059568   -0.3733725901
 H    2.4819470589    0.0476056778    0.1488289945
 H    1.6034410677    0.7071104872    2.6607659481
 H   -0.1670296570    0.8363011621    2.6099154622
 H    1.4340645552   -1.6389006994    3.4516526734
 H   -1.1703507795   -0.8484063972    4.1197773424
 H    0.4283629557   -2.7882948442    1.5675848264
 H   -2.0509740573   -0.9857153435    1.9002641502
 H   -1.8487285097   -2.2640130814    0.7080334604
 H   -1.9374407177   -2.6752137122    2.4278360850