21

 C   -0.2245579214    1.5964508568   -0.1168537166
 C    0.0110579116    0.0931884658   -0.0296938267
 C    1.0262242459   -0.5915996857   -1.0592663443
 C    1.9440232388   -0.8539966978    0.1482777423
 C    2.6580705086   -1.7477531629    1.2082604540
 C    2.0921734197   -0.4599951911    1.9947545545
 C    2.6523899180    0.3646474943    0.8258878648
 C    0.7894902859   -0.6522405981    1.1487084952
 O   -0.0591704367   -1.7154316907    1.5343730135
 H    0.6919095858    2.1775786866   -0.2422065872
 H   -0.8660521549    1.8220728824   -0.9766669035
 H   -0.7362985457    1.9615438631    0.7798905094
 H   -0.9628148880   -0.3995136539   -0.0698730401
 H    0.5926570027   -1.4911694544   -1.5023921274
 H    1.4347128684    0.0395264321   -1.8540389496
 H    2.1995870210   -2.7146631157    1.4221448815
 H    3.7487799908   -1.8315901782    1.1730667265
 H    2.2180255619   -0.2596569592    3.0660128475
 H    3.7405637233    0.3787360099    0.7245690267
 H    2.2368314809    1.3593536830    0.6824493687
 H    0.3418742132   -2.1764699663    2.2766952308