20

 C   -0.1638358145    1.5094965437    0.1008647899
 C    0.0332345763   -0.0092002383   -0.0104878231
 C    0.7976388580   -0.4262835848   -1.2784465842
 C    2.2574719278    0.0534356224   -1.2465759600
 C    2.8738858943   -0.2304273742    0.0954518867
 C    2.1412490744   -0.5216935186    1.1735881936
 N    0.7398268545   -0.5377326485    1.1651476261
 C    0.0470954723   -0.9781484137    2.2655366131
 O    0.5449660151   -1.3819827760    3.2934888347
 H    0.7943002305    2.0281195759    0.1906368115
 H   -0.6829290454    1.8922767964   -0.7837326702
 H   -0.7623481703    1.7569155292    0.9823527616
 H   -0.9526942399   -0.4871643698   -0.0252764164
 H    0.7806391466   -1.5194265943   -1.3469813753
 H    0.2763221048   -0.0371381289   -2.1584910501
 H    2.8267522095   -0.4480947695   -2.0382810354
 H    2.3165177083    1.1263539859   -1.4805068700
 H    3.9537055437   -0.2147176467    0.1924261128
 H    2.5608033821   -0.7712043623    2.1395439042
 H   -1.0471871880   -0.9241079976    2.1042398004