12

 C   -0.0356428118    1.4831219239    0.0525594470
 C   -0.0127609751   -0.0085269520    0.0428535881
 N   -0.0358417136   -0.6811252208   -1.0787917409
 O   -0.0043676029   -2.0358840323   -0.7234120610
 C    0.0367427857   -2.1397163477    0.5993123263
 C    0.0349939835   -0.9005328040    1.1708570162
 C    0.0709089229   -0.5629278564    2.5429699816
 N    0.1004407979   -0.2597806255    3.6600713665
 H    0.8554941900    1.8792583983    0.5491323181
 H   -0.0721185892    1.8619429163   -0.9697603329
 H   -0.9073559246    1.8518881141    0.6018891678
 H    0.0643561272   -3.1363835139    1.0117161632