16

 O    0.1234157795   -0.0882431248   -0.0000970562
 C    0.0929483837    1.1220080046    0.0077588266
 N   -1.0405287243    1.9164736097    0.0288115656
 C   -0.7585582003    3.3200875634    0.0332138087
 C   -1.4687288135    4.2631744634   -0.9850868216
 O   -1.8145646217    5.1887174003    0.0594755706
 C   -1.4392703790    4.2507590095    1.0825787613
 C    0.7461714417    3.3368219717    0.0118753237
 C    1.2304097338    2.0952051350   -0.0025418496
 H   -1.9655542260    1.5206867574    0.0393484018
 H   -0.8484280349    4.7202276565   -1.7628104844
 H   -2.3531841463    3.8025834439   -1.4463011332
 H   -2.3103044874    3.7845113818    1.5632377018
 H   -0.7969868019    4.6985520959    1.8477440395
 H    1.2979588769    4.2684304313    0.0096613592
 H    2.2616831697    1.7736972905   -0.0191856438