24

 C    2.0174081372    0.8771878447   -0.5712466548
 C    1.1570366718   -0.3291989669   -0.2335568370
 C    0.1839873105   -0.6778347244   -1.3464994100
 C    1.7815097017   -1.4697836231    0.5453341707
 C    0.7465764331   -0.5910674204    1.2163098269
 C    1.1886001197    0.3648899709    2.3135179068
 N   -0.5409155275   -1.2452153017    1.3616364153
 C   -0.9414448379   -1.8480978303    2.6229687592
 C   -1.6306912005   -0.6303818092    2.1029600952
 H    2.7865856100    1.0807221197    0.1768541376
 H    2.5300964296    0.7136285472   -1.5265479898
 H    1.4074714052    1.7822018876   -0.6807071379
 H    0.7317749383   -0.9365866880   -2.2605677123
 H   -0.4560143990   -1.5151498328   -1.0696344211
 H   -0.4622850443    0.1766805412   -1.5826557329
 H    1.4758286061   -2.4799158237    0.2946784052
 H    2.8149126062   -1.3765155713    0.8654118781
 H    2.2361210679    0.6463179095    2.1974617758
 H    0.5997065621    1.2888039730    2.3167753604
 H    1.0972350179   -0.0953161584    3.3036369369
 H   -1.4082000499   -2.8268338338    2.5461107861
 H   -0.3085537925   -1.7202768197    3.4987697428
 H   -1.4506958188    0.2989057535    2.6385250322
 H   -2.6126837770   -0.7005882036    1.6419921468