17

 O   -0.1852779357    1.2904925815   -0.1091049658
 C    0.0052703149   -0.0723202744   -0.0585462335
 C    0.9962976492   -0.9066746558   -0.8709770051
 C    0.1480898209   -2.1318512480   -0.4163520076
 O    0.1090831292   -3.3151756311   -1.1306040165
 C    0.3922204942   -2.2323164255    1.1042911637
 C   -0.3584491086   -0.9060400404    1.2158109034
 C   -1.0678501638   -1.1057608350   -0.1112653303
 O   -2.3639854915   -1.0083361102   -0.5351771982
 H    0.4778096825    1.7117101926    0.4490183499
 H    0.8791401769   -0.7069497419   -1.9416729372
 H    2.0587071009   -0.9052309418   -0.5995150005
 H   -0.0194132301   -3.1061518547   -2.0620655218
 H   -0.1716695046   -3.0609106579    1.5429775491
 H    1.4367812375   -2.2792241143    1.4314632618
 H   -0.7278252776   -0.3937079584    2.0950816701
 H   -2.8917437243   -1.6613873547   -0.0614921013