17

 C    0.0467229757    1.5178149568   -0.0182807302
 C   -0.0627153532    0.0251636000    0.1224353649
 C   -1.3722434465   -0.6991479637   -0.2160829976
 C   -1.3100237480   -1.9536549093    0.6193826152
 C   -0.2101183518   -1.9964810380    1.3916867038
 C    0.1098892495   -3.0503852895    2.3555499307
 O    1.0848848649   -3.0429892776    3.0739460070
 C    0.6471182228   -0.8010940611    1.1211526034
 O    1.0868953657   -0.7412251400   -0.2548652828
 H    1.0315970449    1.8596578474    0.3082450734
 H   -0.0881568451    1.8192973657   -1.0630552589
 H   -0.7181014961    2.0243886928    0.5794847446
 H   -2.2527030282   -0.0954161726    0.0412729731
 H   -1.4439859937   -0.9201928807   -1.2880440654
 H   -2.0689847017   -2.7286880688    0.5797474010
 H   -0.6316419833   -3.8794614377    2.3959021153
 H    1.3485309541   -0.4239830635    1.8571693325