18

 N   -0.3377745243    1.1092773206    0.0552782377
 C   -0.1622969383   -0.2717850078    0.4983971223
 C    1.1020273999   -0.3669144622    1.4015418083
 N    2.2918231255    0.2294469672    0.7854365143
 C    0.8117919901    0.3626442400    2.6573221968
 N    0.5315641097    0.9297427978    3.6244402666
 C    1.4710531666   -1.8045078599    1.7739888629
 C    0.5491509511   -2.9426630931    1.7516707495
 O    1.4942029289   -2.7353067338    0.6932357719
 H   -0.9556279296    1.1493248297   -0.7468398917
 H   -0.7669205241    1.6648444704    0.7891952877
 H   -1.0317739495   -0.6787182148    1.0352997694
 H    0.0249885907   -0.9058495792   -0.3728401597
 H    2.6043535828   -0.3996116973    0.0491706688
 H    1.9930180706    1.0882748899    0.3259773677
 H    2.3419969765   -1.8531878387    2.4264516221
 H    0.7529440971   -3.7964141631    2.3950463562
 H   -0.4933967438   -2.8087938857    1.4760379893