16

 C    0.2149952242    1.5526879256   -0.1007783588
 N    1.2540141534    0.5219963822   -0.2113691993
 C   -0.1405432101    0.1147544337    0.0390123972
 C   -0.4129702612   -0.5082699232    1.3493058067
 O   -0.7480098397   -1.8967642812    1.4218322275
 C   -1.6398981018   -0.9529586111    2.0164354106
 C   -1.0370308861   -0.5220363445    3.4156870610
 O    0.1843942484   -1.2305226490    3.6036769500
 C    0.1927075620   -0.0869565123    2.7542946263
 H    0.2917508020    2.1869943319    0.7783148423
 H   -0.1245577515    2.0670732267   -0.9959902633
 H    1.4998525953    0.3597556593   -1.1837359307
 H   -0.6985595937   -0.3376213451   -0.7776262709
 H   -2.6771693607   -0.9469828105    1.7041885319
 H   -1.5648578272   -0.1477868897    4.2836461838
 H    0.8912796067    0.7125025472    2.9636641757