17

 C    0.1174344412    1.2946290044   -0.1289674450
 O    0.0755807035   -0.1070273079    0.0119495577
 C    0.6167524744   -0.5674196233    1.2362603824
 C    0.6161852264   -2.0882337424    1.1665477449
 O    1.3522448375   -2.5254805221    0.0298836604
 C    1.2744667896   -2.7508918407    2.3717175170
 O    1.2848179889   -4.1559776964    2.2330386369
 H    1.1488042717    1.6769996062   -0.0843935528
 H   -0.3104457048    1.5383014834   -1.1042712555
 H   -0.4709843886    1.7976566272    0.6533464909
 H    1.6464708281   -0.1945214596    1.3625922196
 H    0.0152483814   -0.2122297608    2.0889957006
 H   -0.4266867940   -2.4363978862    1.0966250169
 H    1.0287602815   -2.0084902383   -0.7172026905
 H    2.2954577887   -2.3499627526    2.4856615178
 H    0.7148988345   -2.5190334834    3.2841485079
 H    1.6108240300   -4.3272876575    1.3410626909