15

 N    0.1492912625    1.4365723256   -0.0170533840
 C    0.0408083328    0.0154456714    0.0128118568
 C   -0.4618257610   -0.6880101315    1.2604965761
 C   -0.9915133969    0.0663365201    2.3559185000
 N   -1.4476426732    0.6711565021    3.2309496680
 C   -1.2996392582   -0.7079098591   -0.0550875876
 O   -2.3822915920    0.1637812731   -0.1127189070
 C   -1.4313625517   -1.9635209683   -0.7364919475
 C   -1.5365120537   -3.0201025337   -1.3023215677
 H    0.1980739041    1.7587327538   -0.9789299947
 H   -0.6729721863    1.8655966265    0.3968867039
 H    0.8638045316   -0.4930062242   -0.4782739031
 H    0.0305291893   -1.6133795642    1.5367915301
 H   -3.1115189255   -0.2081287187    0.3979796447
 H   -1.6330422916   -3.9484695728   -1.8094998779