16

 C    0.0209899586    1.5379232295    0.0661258676
 C    0.0029664020    0.0231966579   -0.0442173620
 C    0.7327344279   -0.5304072462   -1.2650894268
 C    0.7634630097   -2.0598588564   -1.1832272423
 N    1.1605145528   -2.5550788818    0.1327154077
 C    1.0717257642   -1.7635679158    1.1141679985
 O    0.6089524253   -0.4904358376    1.1629982700
 H    1.0498458542    1.9103906306    0.0757020933
 H   -0.5030694734    1.9842144224   -0.7844467297
 H   -0.4712543750    1.8622219463    0.9869031132
 H   -1.0370111086   -0.3342082257   -0.0548080704
 H    0.2395096814   -0.1891509947   -2.1813821902
 H    1.7559839916   -0.1355008802   -1.2752290292
 H   -0.2218355060   -2.4784447665   -1.4299113137
 H    1.4595030193   -2.4713349494   -1.9224079333
 H    1.3991297362   -2.0708476724    2.1063214072