19

 O   -0.1644383467    1.5763669692   -0.0890029323
 C    0.0520181164    0.1867989728    0.0518632221
 C   -1.2656021685   -0.5728568403    0.0303309968
 O   -1.8664759554   -0.3795209865   -1.2548432112
 C   -2.8571657307   -1.3677055812   -1.3334182058
 O   -2.3572050297   -2.5160757716   -0.6671994129
 C   -1.2432924441   -2.1091216636    0.1512074617
 C    0.0001053085   -2.8190956847   -0.3848318960
 O   -0.2026875951   -4.2163573242   -0.4082925486
 H   -0.6705588658    1.6953094629   -0.9007432769
 H    0.7168374136   -0.1989494496   -0.7341115066
 H    0.5468080422    0.0405218507    1.0175109289
 H   -1.9246453952   -0.1501914115    0.8049381535
 H   -3.7868430244   -1.0349618086   -0.8401022049
 H   -3.0497186343   -1.5971654743   -2.3861701043
 H   -1.4344713474   -2.4387420661    1.1784938335
 H    0.2390473150   -2.4289363210   -1.3864463021
 H    0.8598086126   -2.6323356302    0.2681331335
 H   -1.0423397211   -4.3510115922   -0.8648843984