19

 C    0.0804498668    1.1615401632    0.3475235455
 C    1.4232999224    1.9057033991    0.1429741335
 C    2.3062330582    0.7394928096   -0.1802501828
 C    3.4761546654    0.3589345532    0.3207894847
 C    3.9453223767   -1.0593302166    0.1036952739
 C    2.7072069527   -1.9549205533   -0.0060932824
 O    1.8500729811   -1.5186789525   -1.0564974123
 C    1.4466026148   -0.1842108301   -1.0067287896
 O    0.1385692874   -0.0308373853   -0.4460220989
 H   -0.0544766515    0.8886528526    1.4027933771
 H   -0.7844626814    1.7556230586    0.0339818746
 H    1.3462148732    2.6033089333   -0.7003301038
 H    1.7388112563    2.4678820799    1.0243590631
 H    4.0526837386    1.0189242170    0.9638592992
 H    4.5619376309   -1.1596769427   -0.7991812776
 H    4.5633956839   -1.3872660760    0.9469306909
 H    2.9724685386   -2.9841834549   -0.2605910743
 H    2.1711399992   -1.9615250563    0.9537641349
 H    1.4035940566    0.1298593113   -2.0615713657