16

 O   -0.1607653867    0.0529435048   -0.0875780276
 C   -0.1066136470    1.2378732639    0.0088822518
 N   -1.1841292026    2.2181054222   -0.0276405477
 C   -1.0149100344    3.0212867237    1.2236148024
 C   -0.0992977600    3.3030146178    0.1112078509
 C    1.0227709078    2.2764908306    0.0490181574
 C    2.2480503952    2.2206683821    0.9816297285
 O    3.1613958642    2.2530165856   -0.1308770535
 C    2.0800002285    2.2714686088   -1.0797967207
 H   -1.8495142576    3.6937709619    1.3910255035
 H   -0.6516716683    2.5202363222    2.1178091511
 H   -0.1602325034    4.1980051315   -0.4962081275
 H    2.3648900660    3.0861921335    1.6455679864
 H    2.3406024502    1.2954613457    1.5631170910
 H    2.0692525565    1.3776627897   -1.7142107180
 H    2.0907720215    3.1699229362   -1.7092548381