23

 C   -0.0924527013    1.5082545140    0.0914305928
 C    0.0080757252    0.0017142062    0.0458106813
 C    0.8962014653   -0.7401364060   -0.9962696280
 C    0.8389300683   -1.8891882554    0.0163035548
 C   -0.6740172576   -2.1432681211    0.4342648525
 C   -0.2890455978   -1.7558544490    1.8846528517
 C    0.7499900794   -0.8564261950    1.1930423422
 C    1.9321022594   -0.2512938894    1.9069434645
 C   -1.2947772334   -0.8245651483   -0.0671467216
 H    0.8917722595    1.9786824977    0.1905118724
 H   -0.5527834793    1.8969168957   -0.8249845238
 H   -0.7087330593    1.8419247048    0.9346014366
 H    0.4905130325   -0.8776156665   -2.0046079071
 H    1.9052164658   -0.3220930028   -1.0662099076
 H    1.5206527779   -2.7398326446    0.0219364304
 H   -1.1870249249   -3.0773515548    0.2067667212
 H   -1.0635493831   -1.3138208567    2.5223458090
 H    0.2083418495   -2.5692609687    2.4239354843
 H    2.4672522685   -1.0069577478    2.4928118232
 H    2.6494141274    0.1953411324    1.2092898076
 H    1.6148220421    0.5386079799    2.5986644168
 H   -2.1014187211   -0.4715807949    0.5839339928
 H   -1.6718789829   -0.8606740896   -1.0942050661