21

 C    0.3097803224    1.5993052264   -0.1726023713
 C    0.0449000910    0.0930534232    0.0315401975
 C    0.5665085583   -0.7660009438   -1.1499785915
 C   -0.1774299832   -0.5042572278   -2.4377744743
 O    0.2059477768    0.6303655028   -3.2282559227
 C    0.3855170088   -0.6758016459   -3.7886157153
 C    1.7937363529   -1.1201155145   -4.0913490663
 C    0.6238796948   -0.3739045820    1.2904829332
 C    1.1216383060   -0.7569855778    2.3158246222
 H    1.3851203100    1.7929734238   -0.2293466077
 H   -0.1476845159    1.9488045490   -1.1003354376
 H   -0.0947653732    2.1753894855    0.6635566443
 H   -1.0434904867   -0.0551150599    0.0900779469
 H    1.6362076320   -0.5806167288   -1.2787894810
 H    0.4492279431   -1.8250484186   -0.8907772564
 H   -1.2618749365   -0.6172110210   -2.3485564481
 H   -0.3316760031   -0.9044978766   -4.5805709678
 H    2.4829370314   -0.8789010981   -3.2802120484
 H    1.8216875575   -2.2014304858   -4.2649807144
 H    2.1554108545   -0.6273874899   -4.9999053760
 H    1.5494585692   -1.0934146601    3.2274357648