15

 C   -0.0608020941    1.5268118845   -0.0753022858
 C    0.0108548503   -0.0086311132    0.0180452550
 C    0.7145321164   -0.4780717035    1.2028920295
 C    1.3001083554   -0.8534348852    2.1891454482
 C    1.9808771039   -1.2898222896    3.3357798935
 C    2.5835490606   -0.6261525712    4.3693649484
 N    3.0918984520   -1.5751393039    5.2146504507
 N    2.8488511097   -2.7330840999    4.7821526537
 O    2.1273595849   -2.6066633552    3.5609901275
 H    0.9411583340    1.9621191783   -0.1106235350
 H   -0.5978085798    1.8221096148   -0.9806888158
 H   -0.5836157783    1.9456152827    0.7883727148
 H   -1.0024923216   -0.4302335225    0.0170639606
 H    0.5071888960   -0.4138904748   -0.8730447217
 H    2.6816740906    0.4289542687    4.5543349863