19

 O    0.1074093318    1.2929309187   -0.3407264033
 C    0.0409148195   -0.1307533169   -0.0850098437
 C    0.8490349372   -0.5069031529    1.1245372389
 C    0.2955248963   -0.6793605259    2.3294118529
 C   -1.1567594961   -0.5570119394    2.5892392598
 C   -1.8579402166    0.7628442937    2.2725003276
 C   -2.0648478595   -0.4296272912    1.3854299660
 C   -1.4439605472   -0.5617603368    0.0035154421
 O   -2.1967590135    0.1170287500   -0.9844083779
 H    0.4033848813    1.7183998130    0.4694568965
 H    0.4609571442   -0.5934335507   -0.9849724748
 H    1.9248018103   -0.5859067895    0.9966514904
 H    0.9287953719   -0.9178703595    3.1806363063
 H   -1.5262220294   -1.0971729326    3.4546235396
 H   -2.6777149038    1.0614738148    2.9170361783
 H   -1.2453857629    1.5846661389    1.9225924921
 H   -3.0383817051   -0.9046217865    1.4581811690
 H   -1.4806891681   -1.6259392307   -0.2630346631
 H   -1.8504499103    1.0201844134   -0.9868518267