17

 C    0.0280153781    1.6725944156    0.3777065044
 C   -0.0043186551    0.1657192010    0.1336764973
 C    0.9410189155   -0.4411150447   -0.9630342684
 C    1.6216121440   -1.2771015145    0.1230222162
 N    2.1677426643   -0.3142824205    1.1138564442
 C    0.7442337996   -0.7144513191    1.1786832457
 C   -1.4331031085   -0.3242232386    0.0108776974
 O   -1.8530444272   -1.0893611403   -0.8189190508
 H    1.0449137866    1.9773093558    0.6332361799
 H   -0.2889715155    2.2234509452   -0.5143193348
 H   -0.6365031015    1.9572546105    1.2022483253
 H    0.3689667425   -1.0361001835   -1.6763311012
 H    1.5889252940    0.2692574163   -1.4809930857
 H    2.0398052648   -2.2714305282    0.0301878295
 H    2.6581220831   -0.8549758663    1.8264714136
 H    0.3291722125   -1.1660290599    2.0723956857
 H   -2.1086099274    0.0831299312    0.8001241114