17

 O    0.0167266802    1.5221289737    0.0073967127
 C    0.0216841139    0.1307572268   -0.0194590637
 C    0.1571655606   -0.6184587052    1.3015669971
 O   -0.9723981464    0.0029413072    2.0419749285
 C   -2.1031638189   -0.0156567206    1.0953368380
 C   -1.3443041942   -0.7075624048   -0.0124855541
 O   -1.6541370847   -1.4746030099   -1.1646066366
 C   -0.5968019795   -2.4124157867   -0.7463336189
 C   -0.5773580002   -1.8297784192    0.7027232127
 H   -0.2708263287    1.7756727729    0.8944747707
 H    0.6838159475   -0.1982035657   -0.8191720860
 H    1.0186533118   -0.6182460797    1.9676606595
 H   -2.9312196532   -0.5942315835    1.5116191137
 H   -2.4194342599    1.0110600760    0.8873085875
 H   -0.9572475304   -3.4418241477   -0.8020159847
 H    0.3037713681   -2.3010479495   -1.3561268014
 H   -1.1021752159   -2.4510131141    1.4272540952