18

 C   -0.0580064293    1.3681230745   -0.1859710835
 O   -0.0317432223   -0.0384671250   -0.2375023468
 C   -1.2654069755   -0.6190256300    0.1255152003
 C   -1.1058390775   -2.1049472765    0.1126646990
 N   -2.1388151583   -2.9300534939   -0.0746444183
 N   -1.5981549609   -4.1405552963    0.0224202874
 C   -2.3722717763   -5.3459539002   -0.1874866619
 N   -0.2893038721   -4.1704365963    0.2419228290
 C    0.0468635430   -2.8805806850    0.3086474580
 H    0.9337880796    1.7230722257   -0.4751828349
 H   -0.8030372992    1.7882393775   -0.8798587621
 H   -0.2878381871    1.7357294158    0.8268447577
 H   -1.5668751676   -0.2718369648    1.1299864621
 H   -2.0697768781   -0.3230914243   -0.5666667902
 H   -2.5271704239   -5.5259922030   -1.2558181166
 H   -1.8187296304   -6.1778409277    0.2461011812
 H   -3.3407972153   -5.2363666430    0.3020536067
 H    1.0631268413   -2.5700831477    0.4831562527