17

 C    0.0513429769    1.4069920357   -0.1348188654
 C    0.0073805122   -0.0793006508   -0.0155109490
 O    0.5303138622   -0.9173020637   -1.0931992164
 C    0.0689474624   -1.8958353169   -0.1107286528
 C    0.2209853577   -3.3532572176   -0.4014737636
 C    0.5014871724   -1.0258864429    1.1229842374
 N   -0.8448254662   -1.0188468787    1.7831860473
 C   -1.1754534097   -1.0406639762    0.3207994472
 H    1.0830127553    1.7554363821   -0.2426807370
 H   -0.5195800865    1.7416975671   -1.0062585267
 H   -0.3808235065    1.8561462667    0.7640611235
 H    1.2756908582   -3.6107173981   -0.5382978269
 H   -0.1763134080   -3.9486039970    0.4273501874
 H   -0.3220770655   -3.6223601684   -1.3125637268
 H    1.4481804382   -1.0114932717    1.6658548854
 H   -1.0371615426   -1.9323888440    2.2021013371
 H   -2.1923021805   -1.0434852854   -0.0756234706