21

 C   -0.9122871470    1.1056633010   -0.1260594357
 C    0.0016107102   -0.1208985773    0.0088295655
 C    0.6445513854   -0.5778107360   -1.2917952927
 C    1.6800514789    0.3802358191   -1.8739576466
 N    2.0691388160   -0.0031846347   -3.2150784312
 C    3.3453506145    0.0621738695   -3.6679530388
 O    4.2972636374    0.4684701979   -3.0327010518
 C    0.7776773194   -2.0340832672   -1.5416200185
 N   -0.2032172851   -1.2349383133   -2.3075525138
 H   -0.3613073454    1.9970403645   -0.4387933923
 H   -1.7061030959    0.9317355511   -0.8602741409
 H   -1.3884847412    1.3342380582    0.8318867461
 H    0.7924265504    0.0889310121    0.7406974724
 H   -0.5780695385   -0.9566085905    0.4197505437
 H    1.2737054171    1.4006903600   -1.8743333971
 H    2.5831641215    0.3934888454   -1.2570583226
 H    1.3365525766   -0.3802639311   -3.7995806146
 H    3.4278813043   -0.3055007793   -4.7104927247
 H    1.6078221969   -2.4136584879   -2.1296413658
 H    0.4080348970   -2.7162903538   -0.7810289814
 H   -1.1421458927   -1.3852498976   -1.9474646490