17

 C    0.0237810490    1.5362817635    0.1111844397
 O    1.4673999654    1.5255753506   -0.1456514186
 C    1.4269001885    0.0920996726   -0.2697158251
 C    1.2692580701   -0.5722646048   -1.6622111616
 C   -0.1490050801   -1.0118497042   -1.1775853519
 O   -0.0357734076   -2.0843073720   -0.2097459419
 C    0.2212558885   -1.2031242039    0.9114813316
 C    1.7327591046   -0.8117022263    0.9529304624
 C   -0.0811162252    0.0117256781   -0.0097978981
 H   -0.2075513810    1.9489580961    1.0998063380
 H   -0.5177161470    2.1091651520   -0.6502456685
 H    1.2113907988    0.1930894247   -2.4416912135
 H    1.9601887763   -1.3634783500   -1.9624770814
 H   -0.9557643386   -1.1993167531   -1.8899043482
 H   -0.2997728511   -1.5381973814    1.8112909497
 H    2.4596135178   -1.6214682764    0.8553313282
 H    1.9680028818   -0.1977680154    1.8272589791