21

 C    0.1141114852    1.4234799536   -0.3691033219
 C   -0.0125110217    0.0175477509    0.2297162417
 C   -1.4079639931   -0.5574359243    0.1087733928
 O   -2.3752352136    0.0854717216    0.9059797116
 C   -2.0102495803   -1.1091117421   -1.1855890609
 C   -0.9770326161   -1.9367275031   -1.9298701957
 O   -0.6550270540   -2.6885197609   -0.7281565390
 C   -1.7048485327   -2.0264388621   -0.0032516175
 C   -2.5215648192   -2.8445029867    0.9397596009
 H    1.1300486472    1.8121842345   -0.2535598334
 H   -0.1258564519    1.4235534360   -1.4380290964
 H   -0.5609985837    2.1305524450    0.1267916700
 H    0.7000079356   -0.6649289663   -0.2411955955
 H    0.2403797832    0.0459452878    1.2964906068
 H   -2.5982974559    0.9235613862    0.4867354407
 H   -2.9597150142   -0.7564927922   -1.5681981866
 H   -1.4080034453   -2.5985838578   -2.6903450384
 H   -0.1029316029   -1.4228048662   -2.3475112299
 H   -1.8753413657   -3.2869274327    1.7066746238
 H   -3.2601711619   -2.2114202417    1.4347100687
 H   -3.0325217191   -3.6590830596    0.4172808683