17

 O   -0.2031210768    1.3805463498    0.1334360403
 C    0.0052488294    0.0056512715   -0.0024907902
 C    0.7899957670   -0.2862771764   -1.2702210635
 O    1.1477178027    0.6118925790   -1.9958179243
 C    0.7361336547   -0.5669881685    1.2242969981
 O    0.7742204888   -1.9617444438    1.0225612064
 C    2.0606653433    0.1305586823    1.6262179044
 O    1.5196551332    0.5170415593    2.9018820039
 C    0.2368930672   -0.0674250690    2.6024623132
 H    0.2103644844    1.7849709614   -0.6471641993
 H   -0.9523217293   -0.5382418066   -0.0840191981
 H    1.0158075791   -1.3456530901   -1.4827834810
 H    1.2227527741   -2.3710756540    1.7699025025
 H    2.9202473629   -0.5475017239    1.7176124666
 H    2.3413028751    0.9973333815    1.0170478978
 H   -0.5620623746    0.6800259963    2.5748526495
 H   -0.0316510514   -0.8752106788    3.2971816038