22

 C    0.1147668009    1.5880135762    0.0833868369
 C   -0.2078649911    0.0964691317   -0.0120941666
 N    0.4970551000   -0.5187100254   -1.1178935143
 C    0.0300089303   -0.2343222882   -2.4944063556
 C    0.2130277365   -1.7175675117   -2.8587416954
 O    1.5642485021   -2.0875894371   -3.1824456963
 C    1.8420037297   -2.4886726968   -1.8166402154
 C    0.4544664014   -1.9937003735   -1.3491612325
 C   -0.3840260306   -2.8640412001   -0.4438505828
 H    1.1906026021    1.7400563049    0.2076756953
 H   -0.1980911338    2.1177387009   -0.8225524540
 H   -0.4078695166    2.0424496088    0.9308761110
 H    0.1024731557   -0.4024148912    0.9132415257
 H   -1.3071695512   -0.0274533419   -0.0876293687
 H   -1.0303042963    0.0681089546   -2.5370398246
 H    0.6340201395    0.4851180921   -3.0565756877
 H   -0.5256485395   -2.2017732801   -3.5019140277
 H    1.9968117254   -3.5746150757   -1.7496839082
 H    2.6972733831   -1.9565159026   -1.3880900463
 H    0.0386639752   -2.9078581311    0.5665484379
 H   -1.4115917598   -2.4975973612   -0.3613490438
 H   -0.4190352628   -3.8868618126   -0.8312532070