14

 O   -0.2375242942    0.1882506114    0.4406369183
 C   -0.0674410651    1.2997638618    0.0605194790
 O   -0.9926593813    2.1552352057   -0.4864703766
 C    0.0049493474    3.2184986531   -0.6503917741
 C   -0.1662490909    4.3336596911    0.3707866805
 O    0.3139738842    3.8002650035    1.5980238239
 C    1.4414426659    2.9905753381    1.2889870626
 C    1.0886429470    2.3021677121   -0.0358189992
 H    0.0723397123    3.5296601083   -1.6920959278
 H    0.4266947365    5.2085868407    0.0557497232
 H   -1.2061162506    4.6366395473    0.5108835104
 H    2.3479362755    3.6037023593    1.1625463128
 H    1.5962497420    2.2951115357    2.1167385792
 H    1.9393062413    1.9861982120   -0.6376080323