17

 C    0.1860299819    1.5993985652   -0.1074963315
 C    0.1140173020    0.0881202102    0.0332521415
 N    0.6732881012   -0.7165737038   -1.0839459911
 C   -0.2346753350   -1.2795911541   -2.0633279878
 C    1.3830345532   -1.6503221801   -0.1883072441
 C    2.7562971484   -1.9753090010   -0.5464729351
 N    3.8511040618   -2.2255232711   -0.8191706338
 C    1.1100940081   -0.6207339914    0.9578176753
 O    1.5312348124   -0.4587751539    2.0558533268
 H    1.2007094063    1.9129566257   -0.3641610255
 H   -0.4930703262    1.9461677211   -0.8923713712
 H   -0.1062096490    2.0776623730    0.8319866127
 H   -0.9100495974   -0.2272499347    0.3078281623
 H   -0.7370669901   -0.4709789146   -2.6017735983
 H    0.3280273647   -1.8678733273   -2.7937483731
 H   -1.0074806778   -1.9293074902   -1.6123142317
 H    0.8303063254   -2.5829724033    0.0233317147