17

 O    0.3592039764    1.1918779375   -0.3731305161
 C    0.0199331809   -0.1665604212   -0.1928888159
 C    0.7573594322   -0.8476466936    0.9923941747
 C   -0.1982421367   -1.9289755426    1.5375482445
 C   -1.5803908217   -1.4126617775    1.1821976072
 O   -1.8001387390   -0.0343667204    1.4698457330
 C   -1.4538193352   -0.3937078886    0.1144733626
 C   -2.5284586413   -0.2080916911   -0.8975375408
 O   -2.3326348436   -0.1815234519   -2.0857700202
 H    0.1053035531    1.6582470731    0.4322448605
 H    0.2478755203   -0.6535636347   -1.1461762267
 H    1.7289018898   -1.2466154223    0.6954807724
 H    0.9378563245   -0.0880592432    1.7584038039
 H   -0.0515113819   -2.8914923912    1.0337353866
 H   -0.0830013067   -2.1025220166    2.6119053696
 H   -2.4592505265   -2.0469965708    1.2752946958
 H   -3.5443219246   -0.1107192448   -0.4542910411