21

 C   -1.6281110421   -1.0773778021    2.2932260729
 C   -0.6970340358   -1.0355508536    1.1089131371
 O   -0.5212388557    0.2153983117    0.4217373791
 C    0.6207535821   -0.3795687864    1.0471984528
 C    1.3389724023    0.3839385249    2.1601002477
 C    2.0335082426   -0.5996865215    3.1089883767
 C    2.3744794638    1.3226042321    1.4859907232
 C    0.4050923591    1.3217111333    2.9199027026
 O    0.3701798668    1.4227970977    4.1209495016
 H   -1.4480356122   -0.2748912613    3.0090797618
 H   -2.6659130052   -1.0012481417    1.9520606427
 H   -1.5197438284   -2.0333076779    2.8168915865
 H   -0.8316261721   -1.8734723171    0.4204917854
 H    1.3295085976   -0.8077237361    0.3317452614
 H    2.7275028464   -1.2418966800    2.5569665933
 H    2.5955418964   -0.0612643083    3.8755373599
 H    1.3060024455   -1.2368146856    3.6186105313
 H    1.8867091054    2.0312052296    0.8091716346
 H    2.9345186818    1.8883509495    2.2364313973
 H    3.0872193723    0.7326418309    0.9009262251
 H   -0.2206977506    1.9645430319    2.2673221771