21

 C    0.4593696784    1.5456667550   -0.0554698708
 C    0.1268213494    0.0774396548    0.0813280779
 O    0.8739324218   -0.7857711326   -0.8314615650
 C    1.2639641094   -1.6792980018    0.2398609129
 C    0.9291395749   -3.1186702135   -0.0396774291
 C    2.6279607518   -1.2847917409    0.8582371519
 C    3.7123313979   -0.7031769997   -0.0196848327
 O    1.9689043275   -0.2993296912    1.7124039424
 C    0.6612851965   -0.7165280061    1.2864654278
 H    1.4950366576    1.7330525868    0.2344988549
 H    0.3108164852    1.8696577904   -1.0900524252
 H   -0.1975351480    2.1430919881    0.5860581035
 H   -0.9500814111   -0.0956539872   -0.0629590318
 H    1.4950151626   -3.4726602473   -0.9089851468
 H    1.1811301554   -3.7544640147    0.8146130368
 H   -0.1349024526   -3.2360679537   -0.2638604157
 H    3.0281790604   -2.0928136083    1.4886952018
 H    3.2873196503   -0.0067462877   -0.7450183749
 H    4.4501866431   -0.1786273700    0.5951458316
 H    4.2300669288   -1.5019466785   -0.5620368554
 H   -0.0047778094   -0.9643123519    2.1156852158