19

 C    0.0172816132    1.5858733923   -0.0323794817
 C    0.0111320418    0.0556610743   -0.0076632148
 C    0.6951885804   -0.5252266418    1.2343552718
 C    0.7523382298   -2.0573155816    1.2298115937
 O    1.4293182998   -2.5714870635    0.0968417626
 C    1.3752242746   -2.5899429873    2.5424373145
 C    1.4182120505   -4.0487442181    2.6012666460
 N    1.4446401910   -5.2022041104    2.6588215943
 H    1.0399210774    1.9796658416   -0.0261031829
 H   -0.4797438303    1.9687574456   -0.9287341299
 H   -0.5011552878    2.0020988336    0.8387114977
 H   -1.0229681521   -0.3101869720   -0.0493750479
 H    0.5075305689   -0.3389866169   -0.9004266458
 H    1.7219835826   -0.1340974127    1.3106697805
 H    0.1741688658   -0.1874016865    2.1400884855
 H   -0.2646326275   -2.4581018697    1.1471914459
 H    2.3237484976   -2.2109950553    0.0873546951
 H    2.3967462861   -2.2022139003    2.6483687844
 H    0.8074021580   -2.2194948713    3.4034798709