15

 C    0.0690689008    1.5775479239    0.1765197694
 C    0.0576219441    0.0851745637   -0.0425336488
 O    0.9103945656   -0.2673979911   -1.1179838442
 C    1.5109036944   -1.5050565676   -0.8102038640
 C    2.9742003310   -1.4919022609   -1.2448592612
 O    3.5916587889   -2.4801584340   -1.5211592384
 C    1.3774261849   -1.6150032624    0.7205157805
 O    1.8779353039   -2.4032373408    1.4595410067
 O    0.5627304896   -0.6029699472    1.1087417194
 H    1.0852430890    1.9134006703    0.3960531944
 H   -0.2872257282    2.0785320201   -0.7271286511
 H   -0.5878863420    1.8403757890    1.0088422082
 H   -0.9589275033   -0.2933433236   -0.2282369179
 H    1.0052439451   -2.3621757387   -1.2770636822
 H    3.4067359161   -0.4687075308   -1.2727811308