18

 O   -0.1404589823   -0.0299529025    0.1982326105
 C   -0.0096283575    1.1538086399    0.0301541526
 C    1.3262725139    1.8244983039   -0.2363747379
 C    1.2516420372    2.8304692030   -1.3539281857
 N    0.2562075133    2.8597639556   -2.1387302386
 C    0.2027135645    3.8769051954   -3.1839003754
 C    1.1490550320    5.0528294805   -2.9244333784
 C    2.4995922906    4.4954347018   -2.4970843272
 O    2.3575318506    3.6223528502   -1.3652739920
 H   -0.8695941854    1.8514145579    0.0900826867
 H    1.6496735618    2.3388166728    0.6795326935
 H    2.0786302574    1.0594617505   -0.4525954956
 H    0.4387945796    3.3986123728   -4.1442348615
 H   -0.8334549629    4.2224681157   -3.2650431405
 H    1.2642754632    5.6793668875   -3.8146102805
 H    0.7510332648    5.6858581899   -2.1233269812
 H    2.9633130373    3.9283097352   -3.3149386603
 H    3.1966385517    5.2747292200   -2.1810911785