19

 C    0.1434229491    1.3003615085    0.0846418944
 O   -0.0605120700   -0.1183103058    0.0492733123
 C   -1.3451833123   -0.5189663784    0.0862973963
 O   -2.2802675733    0.2436636142    0.1307626364
 C   -1.4381287206   -2.0299495456    0.0848181066
 C   -2.8598948397   -2.5314306756   -0.1657847661
 C   -3.3143162765   -2.3825292472   -1.6284099548
 C   -3.0413707611   -3.9616401536    0.3003179044
 O   -2.2170812329   -4.6146910515    0.8883100006
 H    1.2228872809    1.4454852071    0.0448158713
 H   -0.3397746091    1.7803785010   -0.7700273858
 H   -0.2665276910    1.7263640418    1.0038052311
 H   -0.7350106926   -2.4294719217   -0.6531150240
 H   -1.0775508351   -2.3956926882    1.0529698915
 H   -3.5500716571   -1.9309602739    0.4464031857
 H   -3.3163893247   -1.3278408723   -1.9118487335
 H   -2.6468703731   -2.9252574271   -2.3066982745
 H   -4.3281560552   -2.7709752097   -1.7696745553
 H   -4.0420572356   -4.3898418819    0.0587132134