21

 C   -0.7901665745    1.1419621297   -0.1201490257
 C    0.1835299642   -0.0256162233   -0.0767253687
 C    1.5969634655    0.1345453360   -0.7179004007
 C    2.1433295942   -0.6890643604    0.4461058560
 C    2.9665589631   -1.8946976775    0.4334940984
 O    3.4584378398   -0.6505048876    0.9646921377
 C    0.8737694177   -0.4562405223    1.2724421591
 C    1.0464646084    0.6489635849    2.3084524980
 O    0.3863535351   -1.6442066453    1.8673990863
 H   -0.3390768127    2.0644547223    0.2598835316
 H   -1.1183730092    1.3360360556   -1.1470283488
 H   -1.6868435852    0.9373267796    0.4760659614
 H   -0.2921474380   -0.9266573549   -0.4767190333
 H    1.7434926994   -0.2549700965   -1.7273143629
 H    1.9528326102    1.1695863103   -0.6824683410
 H    2.7795639749   -2.6727261068    1.1700058835
 H    3.4338617348   -2.2187091034   -0.4957436876
 H    1.4669652932    1.5577614481    1.8694554294
 H    0.0839468098    0.9136507618    2.7630201756
 H    1.7287246164    0.3096574037    3.0925423000
 H   -0.2519494769   -1.4059341539    2.5475720817