15

 N   -0.0040265375    1.4772882771   -0.2696551617
 C    0.1798657615    0.1500867310   -0.2573393673
 O    1.2347061720   -0.4037101530   -0.4949180177
 N   -1.0018884506   -0.6513066182    0.0709346999
 C   -0.7428761127   -2.0259090001    0.0671285331
 N   -1.6034548774   -2.9319050880    0.3205116988
 C   -2.2861700631   -0.0700512050    0.3637745397
 N   -3.2580283329   -0.9503466659    0.6431177850
 O   -2.4691146448    1.1415048905    0.3560052389
 H    0.8024514316    2.0333957292   -0.4943624630
 H   -0.9224234209    1.8569183474   -0.0586526918
 H    0.2997495416   -2.2050802786   -0.1836866781
 H   -1.1761972287   -3.8515426192    0.2549410296
 H   -3.0607473725   -1.9533957944    0.6386310468
 H   -4.1595021055   -0.5554589428    0.8494863277