18

 C    0.0203778751    1.5736354376    0.0271360163
 C    0.0399868304    0.0708073854    0.0736284189
 C   -1.2234525207   -0.7920567012    0.2472104131
 N   -0.3926123678   -1.8878267223    0.8468716212
 C    0.8907423146   -1.8602132710    0.0683921370
 C    0.6678731787   -0.8922420750    1.1643140647
 C    0.8436431825   -0.7558355274   -0.9982304628
 C    0.2644926566   -0.9934446345   -2.3078432429
 C   -0.2222088130   -1.1795602856   -3.3922871453
 H    1.0331928048    1.9905803102    0.0332636004
 H   -0.4781987089    1.9213864548   -0.8848824700
 H   -0.5199775197    1.9889330093    0.8845519396
 H   -1.8929462199   -0.4084655597    1.0220703764
 H   -1.7936263790   -1.0649782799   -0.6468248017
 H    1.4681828562   -2.7746861918    0.0522000621
 H    1.1171151113   -0.7550298859    2.1389444777
 H    1.8467585502   -0.3268105714   -1.0977700286
 H   -0.6483456913   -1.3513953914   -4.3497197259