17

 C    0.0879598254    0.9368272371   -0.6620556315
 N   -0.4275652434    0.4942106888    0.6346096332
 C    0.4845095022   -0.2032359966    1.4636253167
 C    1.7905117357    0.0370828301    1.7741334775
 O    2.6066643871    1.0465132453    1.4190936123
 O    2.3092935066   -0.9258964062    2.5506563708
 C    1.2881021994   -1.8503494089    2.7846378788
 C    0.1637804960   -1.4443028304    2.1390640744
 N   -1.1172059923   -1.9910574481    2.1079631260
 H    0.4035198879    0.0616662839   -1.2384222286
 H   -0.7157851210    1.4348375614   -1.2133349490
 H    0.9439781375    1.6238635148   -0.5960678933
 H   -0.8621432661    1.2688563670    1.1243294894
 H    3.4946364396    0.8331356794    1.7302001692
 H    1.5507491750   -2.6822644693    3.4120317654
 H   -1.1406554152   -3.0009864286    2.1298844448
 H   -1.6309157444   -1.6299770199    1.3117681640