17

 C   -0.0026013335    1.5623521743    0.0492829979
 C    0.0249981562    0.0552011102    0.0708819426
 N   -1.3056961793   -0.5756352328   -0.0834265761
 C   -1.1748282020   -1.7406992925    0.4130016354
 N    0.0643956940   -2.0611881216    1.0508154615
 C    1.2708361072   -1.7183881783    0.1971488588
 C    0.7349233742   -0.7579123753    1.1977448398
 C    0.9636008124   -0.7353019314   -0.9357987148
 O    0.4864467303   -1.1554608821   -2.1766280948
 H    1.0032129538    1.9740196547    0.1787459146
 H   -0.4026325104    1.9222049105   -0.9028569420
 H   -0.6401624435    1.9495159182    0.8506038719
 H   -1.9480805454   -2.5025595408    0.3865042146
 H    2.0896740044   -2.4243929868    0.2585508651
 H    1.1118777219   -0.4411102029    2.1632540066
 H    1.8643006298   -0.1399440093   -1.1144749216
 H   -0.4436635299   -1.3879860741   -2.0655256597