19

 C    0.0548580614    1.4999237245   -0.0157943368
 C    1.3570341098    0.7385444444   -0.0519815635
 C    2.1033183641    0.5516086986    1.2872120034
 C    1.1518005356   -0.3314646502    2.0701654292
 C    0.3463886523   -0.2655765916    3.3833255266
 C   -0.9397091678   -0.6296585668    2.5471485254
 C   -0.0452581458   -0.6647208406    1.2901848989
 O    0.9787382092   -1.6433300480    1.5250039874
 C    0.0201991391   -0.0105042619   -0.0446325008
 H   -0.2207826811    2.0092717705    0.9035824584
 H   -0.2533586748    2.0201391019   -0.9161260893
 H    1.9413707022    0.7785921766   -0.9641025047
 H    3.0798883110    0.0785565743    1.1423516762
 H    2.2721543655    1.5073441633    1.7965849953
 H    0.6538935602   -0.9683167700    4.1609532105
 H    0.2947747571    0.7417088164    3.8044166683
 H   -1.4424942571   -1.5679830788    2.7905691239
 H   -1.6707189845    0.1816310234    2.5321216889
 H   -0.3391304965   -0.5124226260   -0.9366296573