16

 C    0.0899581153    1.4808650308   -0.0972866845
 C    0.0154473803   -0.0294043973   -0.0179761632
 O    0.7119293130   -0.5626441454   -1.1778110270
 C    0.7330461994   -1.8793600610   -1.2988854024
 O    0.2650369498   -2.6822578839   -0.5302843964
 C    1.4538526516   -2.3362173782   -2.5844235739
 O    1.6252353097   -3.7201802872   -2.5665623869
 C    0.6782025938   -1.8834627644   -3.7613590806
 N    0.0740393804   -1.5359234908   -4.6823141001
 H    1.1281597364    1.8231718962   -0.0840663039
 H   -0.3856705681    1.8475017229   -1.0105907879
 H   -0.4280032930    1.9168990657    0.7617140713
 H    0.4966858335   -0.4251437153    0.8808704480
 H   -1.0139527584   -0.3976641725   -0.0396392204
 H    2.4318627540   -1.8388334985   -2.6228450416
 H    1.0246956623   -4.0492622113   -1.8779461706