18

 C   -0.0523679762    1.5456484889   -0.0280415537
 C   -0.0559966547    0.0079264649    0.0379116399
 C    0.7721870111   -0.4779990038    1.1438298651
 N    1.4031844986   -0.8684841425    2.0304681056
 C   -1.5004247380   -0.5568714949    0.1751453937
 O   -2.2713726537   -0.1197201435   -0.9400949345
 C   -2.8169476039   -1.2386970369   -1.6416954514
 C   -2.3226135590   -2.4431481276   -0.8938948272
 C   -1.5850663965   -2.0594395181    0.1409428442
 H    0.9585189312    1.9279441432   -0.1876520606
 H   -0.6921793510    1.8659166655   -0.8520962957
 H   -0.4379483282    1.9736436428    0.9019564139
 H    0.3596961453   -0.3972449103   -0.8926121451
 H   -1.9320611020   -0.1415256725    1.1003058702
 H   -3.9153545236   -1.1683899602   -1.6483022825
 H   -2.4837277097   -1.2216215118   -2.6903091521
 H   -2.5601003873   -3.4584933327   -1.1839437230
 H   -1.0952192325   -2.6892260607    0.8712495433