14

 O   -0.0052477065    0.0591364481   -0.0313193258
 C   -0.0066219463    1.2492883011    0.0007289720
 C   -1.1617505035    2.3009947833    0.0470293397
 C   -0.6790329590    3.0671347742    1.3076256149
 O    0.7578692701    3.0250193808    1.2267284459
 C    1.1042193481    2.3261924026    0.0010076415
 C    0.6283196403    3.1120182613   -1.1906832547
 C   -0.7187244872    3.0847501853   -1.1644423102
 H   -2.1817437296    1.9265242868    0.0758197714
 H   -1.0177025628    4.1090518449    1.3218121535
 H   -1.0067842746    2.5674885060    2.2274596607
 H    2.1417156257    2.0101549173    0.0575501983
 H    1.2639649211    3.6015349900   -1.9161090740
 H   -1.3970116457    3.5459646082   -1.8707697130