17

 C    0.0094072288    1.3955820967    0.0290507681
 O   -0.0276015778   -0.0278983382   -0.0539158966
 C   -1.2307212911   -0.6136697514   -0.0269762392
 N   -2.3201381549    0.1440204968    0.0741912352
 C   -3.4845573470   -0.5110571131    0.0950176798
 C   -3.5900644069   -1.8942525062    0.0180208513
 C   -4.9082747473   -2.6194531970    0.0426437500
 C   -2.3625576498   -2.5607752529   -0.0848405029
 N   -1.1864972853   -1.9483104923   -0.1088131699
 H    1.0670161061    1.6596880228   -0.0095837501
 H   -0.5272811423    1.8541764555   -0.8062584987
 H   -0.4362935989    1.7486728936    0.9632688098
 H   -4.3782267673    0.1063299735    0.1777420709
 H   -5.0624196385   -3.2086311896   -0.8681538017
 H   -4.9728661247   -3.3117667343    0.8893955295
 H   -5.7407520858   -1.9152065974    0.1264040857
 H   -2.3343952772   -3.6482210368   -0.1511382211