19

 C    0.2149933397    0.7591354615    0.4570410572
 O   -0.4217708152    0.2257769156   -0.6977115548
 C    0.4039935483   -0.5425803050   -1.5377490433
 C    0.5238701795   -2.0191534051   -1.1081210825
 N   -0.8012531622   -2.5426539978   -0.8773140975
 C    1.4366096712   -2.8264735770   -2.0712587849
 O    2.4573606888   -2.9363543163   -1.0308528621
 C    1.6434175649   -2.3301307702   -0.1013894890
 N    1.7958478697   -2.1784367567    1.1355040685
 H    0.5365818299   -0.0235869475    1.1523066136
 H    1.0893672140    1.3645018215    0.1755886221
 H   -0.5190149705    1.4066502230    0.9425450158
 H   -0.0774857955   -0.5333982353   -2.5224580856
 H    1.4054124587   -0.0978917081   -1.6355715908
 H   -0.7764381583   -3.3486782921   -0.2617459325
 H   -1.3550178285   -1.8244139180   -0.4188289014
 H    1.0433711112   -3.8080366934   -2.3451013254
 H    1.8231494432   -2.3047082527   -2.9512657037
 H    2.6799019612   -2.5753934661    1.4587518263