21

 O   -0.1929800298    1.3901799014   -0.7120442936
 C   -0.0167521491    0.1847037641    0.0227981168
 C   -1.3552149437   -0.5012854123    0.1029291869
 C   -1.8356211701   -1.3902812201   -1.0176611949
 C   -1.5060280309   -1.9890218023    0.3302507244
 C   -0.3368219403   -2.9354832802    0.5091583676
 C   -0.7288884302   -4.3936310084    0.1802314320
 C    0.3751918222   -5.3302865870    0.3472512263
 C    1.3058804695   -6.0773878587    0.4921187417
 H    0.6406852649    1.8698316263   -0.7000495085
 H    0.7223481533   -0.4680524597   -0.4656847176
 H    0.3560721250    0.3953784764    1.0385065844
 H   -2.1113431957    0.1209674449    0.5740834928
 H   -2.8716042898   -1.3255797744   -1.3307932781
 H   -1.1379598636   -1.5757701693   -1.8293771329
 H   -2.3670307005   -2.2587422021    0.9390386853
 H    0.5007645816   -2.6489017255   -0.1341053206
 H    0.0345842742   -2.8951085609    1.5401482782
 H   -1.5673215552   -4.6978345849    0.8206451634
 H   -1.1027531071   -4.4417686335   -0.8503275154
 H    2.1185988253   -6.7489026439    0.6167031218