17

 O    0.1544587335    1.2777868568    0.4029632587
 C    0.0307404459    0.0005991087   -0.1928814985
 C   -1.3890856180   -0.5453268999   -0.0927918966
 C   -2.3901298796    0.1921203560   -0.8177183242
 C   -3.2302078206    0.8011056847   -1.4262743529
 C   -1.7141434737   -2.0462693885    0.0159369910
 C   -0.6885680967   -2.7565070279    0.8920283661
 O   -0.8497416207   -1.7631412918    1.9451086295
 C   -1.9033237554   -1.1467936639    1.2064887606
 H   -0.0071027028    1.1703233678    1.3464167242
 H    0.2955076436    0.1299625933   -1.2462295180
 H    0.7365092687   -0.7119498053    0.2487131772
 H   -3.9622191190    1.3530042809   -1.9618768501
 H   -2.4363584494   -2.5134469094   -0.6381064957
 H   -1.0417751281   -3.7334343302    1.2397806858
 H    0.3458435398   -2.8405694380    0.5437396728
 H   -2.7758079774   -0.7905709135    1.7407556100