19

 C   -0.6086433782    1.2004783629   -0.7251489958
 O   -0.7178873894   -0.2085165053   -0.6808058135
 C   -0.8863720138   -0.7186654599    0.6313702675
 C   -1.0289818099   -2.2428611573    0.5899984456
 N   -1.1416356046   -2.7045152726    1.9675240858
 C   -2.2082076019   -2.6721298553   -0.3409762402
 O   -1.9884176999   -2.3835310883   -1.7002732318
 C   -2.4229317175   -4.1246429565   -0.2105596633
 N   -2.5735801950   -5.2596860043   -0.0564361165
 H   -0.4691457911    1.4839331409   -1.7700736781
 H   -1.5151710955    1.6866447762   -0.3360602666
 H    0.2540388640    1.5476046491   -0.1392983883
 H   -0.0238656083   -0.4620901078    1.2612870209
 H   -1.7826481490   -0.2727435671    1.0980469796
 H   -0.1149020324   -2.6655151055    0.1582323667
 H   -2.0355502209   -2.4300908558    2.3673087574
 H   -1.1072801398   -3.7183972026    2.0033595033
 H   -3.1251241619   -2.1812237243    0.0367171433
 H   -1.5900013846   -1.4988478965   -1.7183914361