13

 C    0.0550677929    1.4638329953    0.0455833642
 C   -0.0415654283   -0.0199585835   -0.0033935210
 N   -0.2355702457   -0.6657467783   -1.1243828729
 O   -0.2687441318   -2.0246885505   -0.7113127423
 C   -0.0765787460   -1.9933784698    0.6081236965
 O   -0.0802110149   -3.1383795036    1.2962129552
 C    0.1592679925   -4.3422300154    0.6397440861
 O    0.0695118902   -5.3653435319    1.2277441219
 N    0.0683179304   -0.8171139374    1.1200866608
 H    1.0207343018    1.7639376983    0.4626661112
 H   -0.0543860148    1.8838843085   -0.9550245161
 H   -0.7247919304    1.8689255698    0.6970282397
 H    0.4335527941   -4.2033419316   -0.4137554133