21

 C    0.5421970691    1.2988896877   -0.1204226396
 O   -0.2180850977    0.1777508173    0.3117428553
 C    0.4601925375   -0.5892333448    1.2686438490
 C   -0.0901176802   -1.9209632991    1.6592955951
 C   -1.1189547511   -2.5671782649    0.7236616429
 C   -0.2723615840   -3.2762564636   -0.3570182631
 C    1.0360004791   -2.4583711883   -0.4903670653
 O    1.0051207636   -1.5244205658   -1.5623821085
 C    1.2385420539   -1.8337091968    0.9035302981
 H    1.4584100986    0.9816843887   -0.6339478703
 H   -0.0879350590    1.8635602972   -0.8114900609
 H    0.8076856053    1.9446263664    0.7282206264
 H    0.8822692491    0.0209834368    2.0684542095
 H   -0.1264419376   -2.1614054011    2.7161782218
 H   -1.7578803956   -3.2664187836    1.2683976400
 H   -1.7749245406   -1.8082374978    0.2858621669
 H   -0.0195477308   -4.2830594269   -0.0048452525
 H   -0.7720992791   -3.3792469976   -1.3244786377
 H    1.8789459711   -3.1147534407   -0.7243392550
 H    0.2924778015   -0.9067286428   -1.3574350278
 H    2.1886886072   -1.9941920503    1.4016538856