15

 O   -0.0005287244    1.4384164909   -0.2764979453
 C   -0.0081634395    0.0801856815   -0.0188972990
 C    0.2181746029   -0.3434200330    1.4565332829
 O   -1.0196541119   -1.0800673617    1.4907034556
 C   -1.4088040811   -0.6222745833    0.1875856122
 C   -2.5675130740    0.3606688787    0.2130197479
 O   -3.2522192506    0.5899305664   -0.7467753529
 C    0.8454323926   -0.6629194965   -1.0222231264
 O    1.3807128110   -0.0878270206   -1.9369286155
 H    0.4708336735    1.5529696907   -1.1187286582
 H    1.0841390993   -0.9791835867    1.6729356249
 H    0.2157660061    0.5230701160    2.1269508030
 H   -1.6475244756   -1.4444342981   -0.4972588644
 H   -2.7240510416    0.8475190409    1.1999550179
 H    0.9388324533   -1.7567841653   -0.8726706027