21

 O   -0.5757295812    1.5047216307   -0.6373463482
 C   -0.0370506219    0.3380081006   -0.0092327061
 C   -1.0845569436   -0.7681134520    0.2803771563
 C   -0.8865511712   -1.8640851085   -0.8039052844
 C    0.4790958531   -1.5211412520   -1.3661021687
 C    0.9569964591   -0.3661481704   -0.9047285485
 C   -0.9841423282   -3.2800871110   -0.2688838767
 C   -2.3216237580   -3.9665865601   -0.1550230009
 C   -1.3206358262   -4.4290303933   -1.1860648410
 H   -0.8178160109    1.2566267649   -1.5365909705
 H    0.4103402467    0.7206046170    0.9137212378
 H   -0.8934076165   -1.2036204666    1.2668440099
 H   -2.0931277336   -0.3483858166    0.2993473115
 H   -1.6404182030   -1.7667177187   -1.6006072586
 H    0.9834404917   -2.1740392623   -2.0715136459
 H    1.9017900627    0.0880688739   -1.1825604498
 H   -0.2686189304   -3.4978304623    0.5211264050
 H   -2.5070892330   -4.6005657320    0.7047868235
 H   -3.1971916374   -3.4294732261   -0.5056435749
 H   -1.5275939577   -4.2033242351   -2.2274744110
 H   -0.8218387906   -5.3792967500   -1.0310918486