15

 C   -0.0413383280    1.4962710127   -0.0129456528
 C    0.0087434870    0.0048657317   -0.0516167990
 N    0.0136853472   -0.6314687944   -1.1795868567
 C    0.0507716815   -2.0114170459   -1.1431456933
 N    0.1312190795   -2.6183820296   -2.3773678849
 N    0.0545156627   -2.7544333518   -0.0716777812
 N    0.0614827827   -2.0577718368    1.0953844225
 C    0.0472272639   -0.6962515629    1.2553469154
 O    0.0565174686   -0.1434486884    2.3457135031
 H    0.8258837050    1.8832467705    0.5327651364
 H   -0.0659058934    1.9040879666   -1.0233865112
 H   -0.9195803182    1.8261324602    0.5524536163
 H   -0.2457471850   -2.0699907286   -3.1342930607
 H   -0.1123658194   -3.5967106042   -2.3919688142
 H    0.0734410858   -2.6270416591    1.9307023702