20

 C   -0.9010185967    1.2311489124    0.2140859831
 C   -0.0812893630   -0.0221282362    0.0518655095
 O    1.2935894495    0.1216355724   -0.3259253289
 C    1.0040893436   -0.4673038608    0.9486026679
 C    1.5136816385    0.2325822711    2.1575643617
 C    0.7989112955    0.2722051297    3.4506094238
 N    1.0049107613    1.5469429834    2.7358318868
 C    2.4368455672    1.9277249103    3.0066695686
 C    2.9795204469    0.6381706405    2.3392614116
 H   -0.3886867453    1.9636144089    0.8368879738
 H   -1.1086066631    1.6631558788   -0.7709863380
 H   -1.8637415530    0.9900703389    0.6788329218
 H   -0.5866500942   -0.8217606499   -0.4965296166
 H    1.2017765572   -1.5434813640    0.9781895035
 H   -0.2407023507   -0.0412853530    3.4598543135
 H    1.3367013781    0.0957983279    4.3809256742
 H    2.6876969219    2.8430860351    2.4685250477
 H    2.6497282180    2.0684215394    4.0714378719
 H    3.6076243545   -0.0322873210    2.9330248848
 H    3.4679423739    0.8380820960    1.3845182696