15

 O    0.0346982705   -0.0400139699    0.1006574456
 C   -0.0037234962    1.1627252864   -0.0104604802
 C   -1.3097908927    1.9531573592   -0.0900456723
 N   -1.2269299428    3.1831159533   -0.8743319539
 C   -0.1387587453    4.0478876028   -0.4352193640
 C    1.1617922502    3.3418290739   -0.1727651364
 C    1.2370185739    2.0041285652   -0.0252799959
 C    2.4912529287    1.3451994668    0.1760839992
 N    3.5131113201    0.8266102374    0.3351594582
 H   -2.0857279475    1.2977332025   -0.4921721345
 H   -1.6059499149    2.2077850250    0.9385177700
 H   -1.0862590884    2.9453767425   -1.8513192391
 H    0.0162830800    4.8360327758   -1.1804251241
 H   -0.4399122667    4.5725429389    0.4871704646
 H    2.0621576410    3.9468899902   -0.0941472973