21

 C   -0.0929869764    1.4797403326    0.0244397323
 C   -0.0016848418   -0.0405830356   -0.0281767301
 C    0.7641102922   -0.5684689791   -1.2448505249
 C    2.0116013594   -0.8321224278   -0.3862023858
 C    1.1303172753   -0.6367530610    0.8794192576
 C    0.7828321841   -2.0702613567    1.2694295331
 O    0.5877422799   -2.7380442328    0.0176038210
 C    1.2637608517   -1.9784620334   -0.9754137323
 C    1.7853829488   -2.8235405106   -2.1016819114
 H    0.8923679979    1.9385467608   -0.1151595103
 H   -0.7534381832    1.8635589380   -0.7609707559
 H   -0.4894853474    1.8163189052    0.9888033447
 H   -0.9927208432   -0.4840075811    0.1319761282
 H    0.7076624223   -0.1672398570   -2.2524275148
 H    3.0573491940   -0.5933179029   -0.5314929028
 H    1.4908138455   -0.0051585848    1.6916731530
 H    1.5976314094   -2.5483714021    1.8356309531
 H   -0.1428576223   -2.1494396124    1.8498744326
 H    0.9654334875   -3.3578423198   -2.5922308533
 H    2.2852333037   -2.2038675747   -2.8517313977
 H    2.4990417926   -3.5655854750   -1.7303167261