20

 C    0.0872050836    1.7152998554    0.3120317458
 C   -0.1468094641    0.2219214251    0.5171663375
 C   -1.0946399783   -0.3926404483   -0.5037740813
 O   -1.6487547129    0.2686504398   -1.3522354569
 C   -1.2737493139   -1.8840010644   -0.3835521547
 N   -2.5112653694   -2.4769650612   -0.9252459336
 C   -1.2430991988   -2.8129208857   -1.5676039921
 C   -1.1077316421   -2.3588274303   -3.0038283873
 O   -1.8778960868   -3.1973213945   -3.8537320563
 H    0.7577785219    2.1113278886    1.0795799250
 H    0.5296567765    1.9097142269   -0.6684119623
 H   -0.8560738451    2.2650539964    0.3557211829
 H    0.7965207412   -0.3420367772    0.4841501066
 H   -0.5606357536    0.0174423563    1.5156411103
 H   -0.8795251980   -2.3052353364    0.5394801321
 H   -2.8215881237   -3.2272943550   -0.3137097085
 H   -0.8278305059   -3.8006409241   -1.3695879960
 H   -1.4041937172   -1.3088492975   -3.0905465573
 H   -0.0681719458   -2.4592238525   -3.3334049159
 H   -2.7985907173   -3.0556912913   -3.6060541280