20

 C   -0.1304959451    1.5639403962   -0.0488118046
 C   -0.0195393455    0.0554406839    0.0575406958
 N    1.1805741764   -0.5857360242   -0.6452367832
 C    2.0946424085   -0.2858705821    0.5653734035
 C    2.5806144783   -1.7339090164    0.6240095920
 C    1.0809940877   -1.8239233281    0.3052247587
 C    0.2609940282   -3.0307608329   -0.0415327658
 C    0.7098202842   -0.6214676516    1.2209495118
 O    0.3705768172   -0.7490490159    2.5587527269
 H    0.7842470320    2.0704358188    0.2741900664
 H   -0.3292545855    1.8591413848   -1.0841278715
 H   -0.9578502226    1.9334081134    0.5673059486
 H   -0.9583977867   -0.4211212068   -0.2493068706
 H    2.6698668342    0.6388778931    0.6100336269
 H    3.2611442837   -2.0470739246   -0.1727254218
 H    2.8952467946   -2.1087697524    1.6004643789
 H    0.2447318558   -3.7295241488    0.8013706018
 H   -0.7737754906   -2.7638860817   -0.2774379615
 H    0.6865518443   -3.5466163891   -0.9080132994
 H    0.3364088506    0.1285669044    2.9555564872