19

 O   -0.0161059202    1.4816678975   -0.1588678597
 C    0.0530819371    0.0756699433   -0.0282876616
 C   -1.3321159146   -0.5456042413    0.0798398163
 O   -2.0445574017   -0.1847782584   -1.1064288543
 C   -3.0893137087   -1.1381148842   -1.3196986382
 C   -2.5593416894   -2.4435504781   -0.7604127918
 C   -1.1409113055   -2.8127220319   -1.1457757387
 C   -1.4138954841   -2.0678625223    0.1377776697
 O   -1.2564063592   -2.6823680508    1.3767527140
 H   -0.6414817749    1.6505714548   -0.8732843813
 H    0.5903475381   -0.3838104149   -0.8730399650
 H    0.6209681984   -0.1309557064    0.8860863725
 H   -1.8381386129   -0.1456232522    0.9739489245
 H   -4.0077490538   -0.8409041768   -0.7900562899
 H   -3.2974715429   -1.1530925051   -2.3943787006
 H   -3.2490736822   -3.2263806643   -0.4699210192
 H   -0.8762256207   -3.8587524470   -1.0390552220
 H   -0.6698163052   -2.2949162430   -1.9750541571
 H   -0.3147625876   -2.8104046589    1.5332267425