25

 C    0.0782903758    1.5843382833    0.0065260541
 C    0.0282098566    0.0560274329   -0.0706544697
 C   -1.3928385582   -0.5074815127    0.0358136250
 C   -1.4528578767   -2.0367373118   -0.0404621660
 C   -2.8767141599   -2.5916222380    0.0667368774
 C   -2.9321485848   -4.1167699353   -0.0097627421
 C   -4.3389109986   -4.6938223229    0.0945804065
 C   -4.4503878028   -6.2082084313    0.0240369680
 O   -5.3138466797   -3.9895972321    0.2261346025
 H    1.1046620541    1.9564572462   -0.0722436455
 H   -0.5041919644    2.0406928474   -0.8016607612
 H   -0.3352582121    1.9464729538    0.9544433516
 H    0.4801641071   -0.2784116479   -1.0140975635
 H    0.6478274765   -0.3719230716    0.7288013397
 H   -1.8462546727   -0.1732554839    0.9794601442
 H   -2.0139321851   -0.0797356308   -0.7635848720
 H   -0.9987491658   -2.3706688335   -0.9844076623
 H   -0.8310260249   -2.4642153457    0.7591289751
 H   -3.3367346561   -2.2644434565    1.0063116749
 H   -3.5035879600   -2.1713799214   -0.7281791649
 H   -2.4876133381   -4.4804013413   -0.9479330015
 H   -2.3211387572   -4.5732686335    0.7828774660
 H   -3.8682219828   -6.6725615394    0.8280137948
 H   -5.4957392087   -6.5074022180    0.1085400738
 H   -4.0364369416   -6.5787182058   -0.9205737150