19

 N   -0.2991805562   -0.9402234471    0.4973758087
 C   -0.1471975288    0.2015758071    0.4031148163
 C    0.0698874579    1.6419818810    0.2780485845
 C    1.5214769405    1.9919101794   -0.1317625386
 C    1.7503691531    3.5226472646   -0.2685632130
 C    2.6422540914    3.9058840941    0.9029924449
 C    2.2102183878    3.5287403765    2.2729408106
 N    3.1923707556    2.7044158157    1.5558368011
 C    2.6179029033    1.5303313791    0.8777601242
 H   -0.6286477628    2.0288719038   -0.4730997174
 H   -0.2038350755    2.1137931754    1.2275118376
 H    1.6935270278    1.5044108232   -1.0948002876
 H    2.2649422054    3.7472481998   -1.2077026824
 H    0.8092713257    4.0831713849   -0.2807473748
 H    3.3264263797    4.7389706448    0.7676920034
 H    2.6077410501    4.0581761284    3.1342022163
 H    1.2029365705    3.1462575807    2.4166171714
 H    2.2378498326    0.8133338019    1.6126751709
 H    3.4323971817    1.0368340164    0.3392026738