17

 C   -0.0299210954    1.4428887522   -0.1441865059
 C   -0.0021429240   -0.0101520610   -0.0651295673
 C    0.0084612940   -1.2110769399    0.0006453890
 C    0.0525960526   -2.6773411992    0.0599472528
 C   -1.2874285503   -3.2590701177    0.1853489453
 C   -2.3772952543   -3.7475167193    0.3091785214
 C    0.8380595830   -3.2364845846   -1.1374495037
 C    0.5826377358   -4.5580073746   -1.7166455517
 O    0.1591569737   -3.3565241039   -2.3740367773
 H    0.6511991121    1.8955870226    0.5846229813
 H    0.2668619191    1.7910187985   -1.1394509483
 H   -1.0355161594    1.8283625689    0.0560455333
 H    0.6284123558   -2.9657123844    0.9540128672
 H   -3.3483392600   -4.1651472538    0.4115260558
 H    1.8414851116   -2.8149511273   -1.2062469782
 H    1.3958196593   -5.0950744616   -2.2023703535
 H   -0.2222493035   -5.1694212347   -1.3159370700