19

 C   -0.0620548367    1.5085528457    0.0475219122
 C   -0.0739553882    0.0183029241   -0.0242790200
 C   -0.1004056931   -0.7941061711   -1.0800852360
 C    0.0390114598   -2.2203417592   -0.5616146281
 O   -0.4966023556   -2.1312484876    0.7449939336
 C    0.0439197763   -0.8857155023    1.2055165696
 C    1.5219770005   -1.1825047621    1.5309316116
 C    2.2130427826   -1.7217862147    0.2564809958
 O    1.3977441400   -2.6289607455   -0.4910616446
 H    0.8448505462    1.8777468296    0.5431834062
 H   -0.1097990461    1.9596596249   -0.9468715942
 H   -0.9100747269    1.8823600924    0.6350087360
 H   -0.0969104067   -0.5230562550   -2.1277194372
 H   -0.4798703869   -3.0036316268   -1.1154844458
 H   -0.5244558766   -0.5505169029    2.0773612016
 H    2.0589311324   -0.2960033964    1.8882717737
 H    1.5403000715   -1.9327961818    2.3270185883
 H    2.5066279929   -0.8774969208   -0.3814364006
 H    3.1196816247   -2.2770275306    0.5108672681