21

 C   -0.1209445547    1.5112136495    0.0507046212
 C   -0.2116479513   -0.0092421300   -0.0968775271
 C    0.7479803348   -0.5507242439   -1.1691730321
 O    2.1009554359   -0.2096652330   -0.9024052922
 C    0.5923665139   -2.0713981755   -1.3968473152
 C    1.3917031477   -2.5249219465   -2.6310545120
 O    1.2086551286   -3.9255446691   -2.7827975316
 C    1.0331586497   -2.9046035870   -0.2045584206
 O    1.7880054161   -2.5166084844    0.6602207844
 H    0.9048865092    1.8113492743    0.2782255609
 H   -0.4176844990    2.0165916595   -0.8753725713
 H   -0.7738603781    1.8704636889    0.8515828523
 H    0.0149405237   -0.4901519505    0.8622115646
 H   -1.2365459127   -0.3013785556   -0.3612191923
 H    0.5094394550   -0.0506456806   -2.1186112083
 H    2.3493846072   -0.7259778735   -0.1213930987
 H   -0.4614095923   -2.3148024759   -1.5883696578
 H    1.0258479738   -1.9724854655   -3.5101426857
 H    2.4465154808   -2.2603869735   -2.4830244482
 H    1.7908049805   -4.2328700004   -3.4836539095
 H    0.6325115712   -3.9364323872   -0.1723249209