17

 C   -0.0963295756   -1.2378007233   -0.0589348425
 C   -0.0549647285   -0.0372486945   -0.0050330915
 C    0.0139220455    1.4084401456    0.0368750581
 C   -0.2240315099    2.1184976149    1.3981058751
 O    0.8194644254    1.7434542693    2.2893349047
 C    1.0860855576    2.7833878615    1.3322892269
 C    1.4175449838    2.1043077879    0.0207647616
 C    2.7259104058    1.5483488579   -0.4350399189
 C    2.0883693386    2.7026780480   -1.1781847401
 H   -0.1378713172   -2.2983581912   -0.0883817745
 H   -0.6295019589    1.8501352081   -0.7325805415
 H   -1.1709090109    2.4301306975    1.8226031800
 H    1.4159263680    3.7423652262    1.7143097583
 H    3.6055377323    1.7430286982    0.1692508829
 H    2.7078737042    0.5688977515   -0.9016374737
 H    1.6557304454    2.5104651075   -2.1549323958
 H    2.5325891744    3.6879545448   -1.0753079490