20

 C   -0.8256702667    1.2903068372   -0.1407291239
 C    0.0108464007    0.0190652083   -0.0731829518
 C    1.4347108026    0.0194554215   -0.7018943297
 C    1.9054019750   -0.8706566868    0.4692482308
 O    3.1918762723   -0.6532451535    1.0350259971
 C    0.6416731762   -0.4465529715    1.2827723574
 C    0.9451129415    0.6395586358    2.3130646872
 O    1.7035870493    0.1233763688    3.3914095999
 H   -0.2860375456    2.1563263618    0.2558412518
 H   -1.0984061396    1.5187214918   -1.1769992859
 H   -1.7550752754    1.1864397712    0.4297126267
 H   -0.5677427915   -0.8108626862   -0.4926404401
 H    1.5604736456   -0.3578148023   -1.7193485597
 H    1.8876851930    1.0175456941   -0.6452560844
 H    1.8715826649   -1.9326455815    0.2111688817
 H    3.4263042520    0.2701122741    0.8960570764
 H    0.1231391846   -1.2620646959    1.7948880108
 H    1.4576903863    1.4959993509    1.8395087672
 H    0.0165845023    1.0335925965    2.7397394558
 H    2.4746337225   -0.2999602241    2.9902534827