18

 C   -0.1156817087    1.5356791185   -0.0156501695
 C   -0.0275279027    0.0349374579   -0.0157133249
 C    0.0544191663   -0.6787992530   -1.1516787594
 O    0.1349405772   -2.0306179883   -1.1835988134
 C    0.1391525610   -2.7937708203   -0.0217810389
 N    0.2164524897   -4.0622721427   -0.0877977171
 C    0.0515990660   -2.0644542780    1.2408147799
 C    0.0553619750   -2.8830719611    2.4963518944
 C   -0.0270522470   -0.7145218013    1.2190235936
 H    0.7221331691    1.9840619544    0.5313237557
 H   -0.1033489033    1.9358174628   -1.0330668046
 H   -1.0364461615    1.8807780927    0.4693900914
 H    0.0649002008   -0.2593834570   -2.1505865838
 H    0.2688144494   -4.3688487664   -1.0594471684
 H   -0.7788753268   -3.5922240824    2.4975403222
 H    0.9649676067   -3.4892972348    2.5594265044
 H   -0.0135835220   -2.2452743043    3.3812025482
 H   -0.0923319192   -0.1674093165    2.1561488600