14

 O   -0.0875922096    1.3666061744   -0.0529993816
 N    0.0556520575   -0.0309497899   -0.0545626653
 C   -1.0564261527   -0.6099996568   -0.0280844431
 C   -2.5700340350   -0.4347166051    0.0127789112
 N   -2.5939033676   -1.5338272468   -1.0480378504
 C   -1.5871774095   -2.0274406145   -0.0104249119
 C   -2.5731574116   -1.5527284785    1.1274214337
 C   -2.0793404331   -1.2712918407    2.4663274297
 N   -1.6915543632   -1.0524403718    3.5329657493
 H    0.8294005277    1.6628155897   -0.0523732718
 H   -3.1821477384    0.4612416432   -0.0417881362
 H   -3.4628180251   -2.0702985713   -0.9437831736
 H   -1.0637333971   -2.9769368531   -0.0914823988
 H   -3.5041630522   -2.1258657388    1.1620029289