12

 N    0.0753366855    1.3748783379    0.1634083218
 C   -0.0293594140   -0.0141051795    0.0463773912
 C   -1.1404915501   -0.8125630352    0.0790705671
 N   -0.6378914905   -2.1225184595   -0.0012506992
 C    0.7019950788   -2.0130074121   -0.0766282724
 O    1.4675744361   -3.1143963551   -0.1694609078
 N    1.1235300975   -0.7735439850   -0.0541805795
 H    0.9430915353    1.7038024246   -0.2399638521
 H   -0.7074906913    1.8704937415   -0.2414788271
 H   -2.1932768560   -0.6091839719    0.1611439586
 H   -1.1634696339   -2.9785868529   -0.0080738925
 H    2.3806750327   -2.8034795528   -0.2017168782