23

 C    0.1386485256    1.4712313356    0.0796795885
 C   -0.0941557409   -0.0458196027   -0.0280621222
 C   -1.5927350794   -0.3824669592   -0.0675030685
 C    0.6207024939   -0.5956633969   -1.2302805689
 C    2.0718624224   -0.9666338615   -1.3352614988
 C    1.0045270624   -1.9789050234   -1.7258274749
 C    0.8866561950   -3.3533926477   -1.1355512654
 C    0.4038874172   -1.5204142773   -3.0510613341
 O    0.1463050268   -0.1903952392   -2.5287412630
 H    1.2053617407    1.7034055781    0.1540759376
 H   -0.2564754421    1.9820016049   -0.8040750330
 H   -0.3637900572    1.8805225343    0.9617684896
 H    0.3528714792   -0.5277575688    0.8521654296
 H   -2.0518733452    0.0361032785   -0.9677544977
 H   -1.7571740455   -1.4647015141   -0.0771241905
 H   -2.1085175745    0.0305926052    0.8051035199
 H    2.6966454004   -0.4925248210   -2.0885523947
 H    2.5706851727   -1.1852617586   -0.3950263795
 H    1.1375990726   -3.3480057380   -0.0699095325
 H   -0.1304635379   -3.7488837872   -1.2369571615
 H    1.5683172378   -4.0588630049   -1.6265418863
 H    1.0561860950   -1.5021213403   -3.9332332599
 H   -0.5377491589   -2.0256167659   -3.3007331441