20

 C    0.2044990857    1.5718275473    0.1580618526
 C    0.0823781652    0.0521601220   -0.0172768846
 N    0.6537312983   -0.7421008911    1.0705996770
 C   -0.0677121382   -0.7664014259    2.3279189747
 C    2.0255801719   -0.8204028370    1.1757032840
 C    2.8721280294   -1.0326967510    2.2308128521
 C    4.1911648392   -1.0952347065    1.6637076545
 C    4.0555208834   -0.9052065207    0.3316102640
 O    2.7263075045   -0.7354234277    0.0150305573
 H    1.2549847737    1.8712246256    0.2163251955
 H   -0.2498134616    2.0890176591   -0.6933130638
 H   -0.3007342251    1.9146296570    1.0665921643
 H   -0.9717973053   -0.2341271765   -0.1005408819
 H    0.5705387705   -0.2535689993   -0.9453307247
 H    0.2252982982   -1.6509851011    2.9019705409
 H    0.1120975550    0.1204358617    2.9568372749
 H   -1.1389823536   -0.8334208208    2.1219665685
 H    2.6034389555   -1.1215147191    3.2695671901
 H    5.1170557342   -1.2538829754    2.1947949078
 H    4.7369671389   -0.8498193309   -0.4993950732