16

 N   -0.0456289651    1.3145044451    0.0098186948
 C    0.0849906875    0.0556133238    0.0006755693
 O   -1.0303555405   -0.7442088991    0.0007703678
 C   -0.6551519058   -2.1117752419   -0.0103480109
 C   -1.3811606452   -3.0145220278    1.0219136273
 O   -1.8213410441   -3.9091916048   -0.0167339042
 C   -1.3914177455   -3.0005141533   -1.0474871159
 C    0.8397903267   -2.0977127497   -0.0176560281
 C    1.2626771979   -0.8342668654   -0.0112119668
 H    0.8701811991    1.7597821251    0.0082622870
 H   -0.7613045087   -3.5175421934    1.7716071773
 H   -2.2113984480   -2.4909524415    1.5110675347
 H   -2.2264288140   -2.4704262540   -1.5212539062
 H   -0.7790589035   -3.4932985152   -1.8100300232
 H    1.4326259581   -3.0030330348   -0.0267263486
 H    2.2798754511   -0.4685545731   -0.0137931241