22

 C    0.2566889192    1.3544066831   -0.6004353496
 O    0.0634648519   -0.0315548075   -0.4559093301
 C    1.0538873422   -0.7951644457   -1.1009905153
 C    0.7395596172   -2.2612569875   -0.9990077110
 C    1.6531596065   -3.3325638457   -1.5968713281
 C    0.3619127513   -4.0095986683   -2.1181125277
 N   -0.5145860971   -2.9025490109   -1.5960208824
 C   -0.3063054485   -2.8326462902   -0.1255734286
 C   -0.1593082716   -4.0302380895    0.7844120995
 H    1.2158966540    1.6810397277   -0.1674337556
 H    0.2360297350    1.6615640438   -1.6578818975
 H   -0.5579639459    1.8543790275   -0.0712370256
 H    1.1327446775   -0.5063399581   -2.1643170255
 H    2.0457326958   -0.6110160015   -0.6460213776
 H    2.2787847450   -2.9481544469   -2.4061342312
 H    2.2915140543   -3.8843961025   -0.8997315328
 H    0.2939205075   -4.0416952121   -3.2072386774
 H    0.1191917636   -5.0016873209   -1.7256833094
 H   -0.9680498505   -2.0695275163    0.2745625282
 H    0.6138000840   -4.7324282243    0.4642003411
 H    0.1003302387   -3.6933340074    1.7934868958
 H   -1.1055617302   -4.5784930566    0.8529409708