15

 C    0.1461394901    1.5922582249   -0.0723309918
 C    0.1148607059    0.0761590358    0.1174698099
 O    0.5315325002   -0.5807881039   -1.0897040630
 C    1.5979534228   -1.4048470508   -0.8397229999
 O    2.1305939217   -2.0642662419   -1.6861318124
 C    1.9150272974   -1.2975472954    0.6110670571
 C    3.0148228387   -2.0420047442    1.2597518272
 O    3.2745714196   -1.9527923201    2.4371385368
 C    1.0511461123   -0.4416837887    1.1676016066
 H    1.1633111238    1.9307124158   -0.2859263381
 H   -0.5009903337    1.8735380255   -0.9061736434
 H   -0.2108991069    2.0932380156    0.8322512986
 H   -0.9142450045   -0.2460389841    0.3310697588
 H    3.5899237554   -2.6967720555    0.5767262300
 H    1.0142590373   -0.1464080730    2.2085896734