16

 C    0.1066195277    1.5116703918   -0.0193870929
 C    0.0626005799    0.0570934943   -0.0248320907
 C    0.0180661339   -1.1466627022   -0.0249656491
 C   -0.0199389268   -2.5781950655   -0.0422560953
 C   -0.3948844726   -3.3620597559    1.1954775474
 C   -1.3580661731   -3.3402819665    0.0280827896
 C   -2.6022097794   -2.6386388941    0.1165675303
 C   -3.6574540403   -2.0651492286    0.1782192823
 H    0.8958224364    1.8881330983    0.6412298311
 H    0.2969106085    1.9083294103   -1.0229334816
 H   -0.8439196159    1.9326241388    0.3266570079
 H    0.7137093546   -3.0498015298   -0.6903464162
 H    0.1361389221   -4.2860560660    1.3942695468
 H   -0.6746896905   -2.7899293834    2.0711343278
 H   -1.3870999995   -4.2415717359   -0.5774353216
 H   -4.5854424850   -1.5529416055    0.2347342942