19

 N    0.3563748751   -1.1712847614   -0.0291479484
 C    0.1681143317   -0.0300930437   -0.0427010769
 C   -0.0330807889    1.3987293994   -0.0586309308
 C   -1.0895141579    1.8927100121   -1.0371333426
 N   -2.3900703673    1.3129072693   -0.7483234873
 C   -3.2888705477    2.0751575870    0.1108839654
 C   -3.5442420988    1.9642134046   -1.3526586420
 C    0.1716599843    2.1338838582    1.2586294425
 C    1.2000769979    2.2592396365    0.1761744163
 H   -1.0979501206    2.9980510727   -1.0086823572
 H   -0.8078502439    1.5953495859   -2.0538631720
 H   -3.8695207632    1.4951076513    0.8216861017
 H   -2.9503586003    3.0427491768    0.4794604519
 H   -3.3724366046    2.8565758614   -1.9534643550
 H   -4.3144477164    1.3001943715   -1.7336695922
 H   -0.4830449599    2.9762247898    1.4506554679
 H    0.4126265434    1.5390647184    2.1310282422
 H    2.1468811436    1.7489001646    0.3026436702
 H    1.2555295235    3.1867538356   -0.3831316637