19

 C    0.1564901992    1.5801144720   -0.1183233758
 C    0.1083600472    0.0537557043    0.0149615652
 C    0.8805452025   -0.7059754651   -1.0976395113
 C    1.5620363515   -1.9033131607   -0.4020268662
 O    2.9158512589   -2.0725536974   -0.8748608874
 C    3.2412713002   -3.2162467464   -1.5001684742
 O    4.3336375789   -3.4323252210   -1.9330546081
 C    1.5401406455   -1.5273281810    1.0555060801
 C    0.7500470722   -0.4800316926    1.2771444117
 H    1.1902710721    1.9409468456   -0.0953817097
 H   -0.2946513676    1.9058721700   -1.0612183161
 H   -0.3892648385    2.0658526187    0.6974000568
 H   -0.9483301151   -0.2520664223    0.0014234599
 H    0.2453287588   -1.0067368414   -1.9343356776
 H    1.6751649798   -0.0674843239   -1.4962449470
 H    1.0270239099   -2.8477652772   -0.5793729964
 H    2.3930573627   -3.9270811524   -1.5662778176
 H    2.0878698003   -2.0934147395    1.7996185007
 H    0.5463868914   -0.0479470797    2.2516474930