23

 O   -0.0954076958    1.4452243078    0.3940791154
 C   -0.0114022813    0.0745232435    0.0332945606
 C   -1.4077243715   -0.5246924933    0.1328694375
 C   -1.4352978612   -2.0219112455   -0.2250538406
 C   -2.7993910150   -2.6393018989   -0.1194966878
 C   -3.5282339430   -3.1477635174   -1.1157102219
 C   -4.8349336504   -3.7397930380   -0.6470091525
 C   -4.9479433821   -3.2180582631    0.8090773750
 C   -3.5077362870   -2.8158422985    1.2119994050
 H    0.7832480320    1.8291750919    0.3231552693
 H    0.3729359937   -0.0448827169   -0.9933755836
 H    0.6751526236   -0.4722235115    0.7012562577
 H   -1.7770017393   -0.3671995403    1.1524510896
 H   -2.0787051274    0.0288958631   -0.5335538858
 H   -1.0515591108   -2.1592833766   -1.2433650341
 H   -0.7425392790   -2.5555590952    0.4432339987
 H   -3.2100883099   -3.1814223832   -2.1531915620
 H   -5.6893597714   -3.4409226975   -1.2653464732
 H   -4.8005365197   -4.8385437582   -0.6871063708
 H   -5.5887467570   -2.3307616417    0.8259020450
 H   -5.3918837980   -3.9485673097    1.4902191392
 H   -3.0100338983   -3.6023447830    1.7992309035
 H   -3.4861452013   -1.9151197378    1.8356183359