20

 C   -0.0386858546    1.3820589487   -0.0038440920
 O   -0.0194881210   -0.0257285726   -0.0173518100
 C   -1.3114423465   -0.5938255061    0.0306325866
 C   -1.1563916124   -2.0864151475    0.0111537854
 C   -0.6804258095   -2.8455989735   -1.2464974743
 C   -1.5957416680   -3.9416218715   -0.7355892429
 C   -1.5345666557   -3.9547744020    0.7585943647
 C   -0.5797890207   -2.8672270080    1.2121800482
 N   -2.4433046590   -2.9811281894    0.0559707012
 H    0.9984107144    1.7238268210   -0.0433547305
 H   -0.5821993491    1.7912201518   -0.8701530280
 H   -0.5090300493    1.7751159989    0.9113563065
 H   -1.8466732191   -0.2826107478    0.9441135014
 H   -1.9194422996   -0.2670143771   -0.8303607975
 H   -1.0808454376   -2.3910911066   -2.1568293357
 H    0.3899061807   -3.0391023532   -1.3648422472
 H   -2.0516833046   -4.7502958653   -1.2959323223
 H   -1.9437646357   -4.7735095713    1.3400158102
 H    0.4964951355   -3.0620046148    1.2392475102
 H   -0.9041574081   -2.4290647233    2.1600286660