19

 C    0.0883486544    1.3576814364   -0.0154855208
 N   -0.0324219217   -0.0886931622    0.0931953370
 C   -1.1210884656   -0.6713428356   -0.1506322229
 N   -2.4719724488   -0.2952865741   -0.4568323926
 C   -3.1254368750    0.8011187031    0.2430253630
 C   -2.9242917398   -1.6833810342   -0.1287353730
 C   -2.3252922902   -2.6073309372   -1.1480493526
 C   -1.4577212610   -2.1286978925   -0.0127312328
 O   -0.7607039943   -3.0107467688    0.7730121792
 H    1.1294059681    1.6050188985   -0.2430261913
 H   -0.5437699191    1.7927567395   -0.8002328974
 H   -0.1573845685    1.8472278120    0.9354412681
 H   -2.6872819378    1.7546205537   -0.0560611923
 H   -4.1824651749    0.8159673810   -0.0390212816
 H   -3.0627065668    0.7198806130    1.3408504783
 H   -3.8018368616   -1.8608839744    0.4778035425
 H   -2.5995778833   -3.6528696111   -1.0340209507
 H   -2.1752838346   -2.2687956154   -2.1700446719
 H   -0.2611746296   -2.4826305718    1.4084970318