16

 N   -0.2512167278    1.4079174800   -0.1976963764
 C   -0.0117183317    0.0792695710   -0.3733212905
 O    1.0228714460   -0.3423629315   -0.8560114551
 C   -1.1444327830   -0.8417978400    0.0850229442
 C   -0.7060582821   -2.3006457732    0.1250056465
 C   -0.2285890001   -2.7841051419    1.4895077558
 O    0.0360011180   -3.9310791989    1.7365434020
 C   -1.7450542021   -3.2698596940   -0.4321375311
 O   -2.7309239881   -2.9273141070   -1.0308366420
 H    0.4137701592    2.0633238832   -0.5752095611
 H   -1.1498490144    1.7516162258    0.0936451896
 H   -1.5223131374   -0.5094061369    1.0597909293
 H   -1.9804250581   -0.7497424996   -0.6183839970
 H    0.1778309867   -2.3998688913   -0.5296490425
 H   -0.1445287716   -1.9884646419    2.2644574387
 H   -1.5094731334   -4.3345571739   -0.2417311003