23

 C   -0.2761788415    1.6636532728   -0.0759615510
 C   -0.1164526359    0.1796215328   -0.4163592940
 C   -1.3032687929   -0.6510373506    0.0466904582
 C   -1.1409200600   -2.1854763142    0.0478371500
 C   -1.2420559848   -2.0650315033    1.5865168665
 O   -1.4609196347   -0.6334266421    1.4894917759
 C   -2.3607422755   -2.7830176986    2.2794913484
 C   -2.0974642430   -4.1286129243    2.9145991689
 C   -2.3495101816   -2.9224476280    3.7806425411
 H    0.6061096638    2.2384804553   -0.3728044117
 H   -1.1445210470    2.0955885674   -0.5860971048
 H   -0.4228764693    1.7900121517    1.0004235652
 H   -0.0014136851    0.0438849852   -1.5004321579
 H    0.7943358508   -0.2162346797    0.0509509190
 H   -2.2212688386   -0.2892871763   -0.4384798906
 H   -1.9603813431   -2.7402614763   -0.4131759909
 H   -0.1909213917   -2.5583706755   -0.3407195249
 H   -0.2968745548   -2.2744679210    2.1096281900
 H   -3.3323580594   -2.6457105784    1.8120093310
 H   -2.8686870564   -4.8869862724    2.8421956966
 H   -1.0862960087   -4.5206944371    2.8717175420
 H   -1.5084946554   -2.4981999683    4.3191018947
 H   -3.2946481453   -2.8517607789    4.3068376983