19

 C   -0.0944491687    1.5966553612   -0.0629025928
 C    0.0055844422    0.0710286762    0.0209711793
 C    0.7993352822   -0.5663161415   -1.1716005012
 C    1.4991834124   -1.8548872013   -0.6403796672
 C    1.5992693440   -1.5475681942    0.8250699264
 N    2.2725422867   -2.0647926889    1.8420050633
 N    1.8588831591   -1.3100500099    2.8899467340
 C    0.9561859937   -0.3424429685    2.5530264027
 C    0.7659983278   -0.4755122336    1.1970854778
 H    0.9012170665    2.0526775964   -0.0475285616
 H   -0.5963716287    1.9068312102   -0.9857527512
 H   -0.6644557293    2.0052567153    0.7781788610
 H   -1.0161544645   -0.3369847475    0.0238304366
 H    0.1594192148   -0.7584963211   -2.0373001228
 H    1.5677795181    0.1480221783   -1.4895674844
 H    0.8797715253   -2.7442764910   -0.8133685055
 H    2.4629245200   -2.0385384516   -1.1235660992
 H    2.2551987349   -1.4849598971    3.7975203291
 H    0.5559175135    0.3284082687    3.2970613157