17

 C    0.1745268142    1.4676316635   -0.0199691050
 C    0.0581100797   -0.0216447475   -0.0701469396
 C    0.0425632208   -0.9056381126   -1.1342746114
 C    0.1463163460   -0.5607083547   -2.5998536267
 C    1.3703057037    0.1689368211   -2.9498410034
 N    2.3269543779    0.7611091798   -3.2153073647
 C   -0.1172017677   -2.2190018120   -0.6052513589
 C   -0.1969202253   -2.1066707355    0.7605267307
 N   -0.0906169738   -0.7737633225    1.0690164866
 H    0.7266224192    1.8422640125   -0.8852117350
 H   -0.8051323785    1.9629465388   -0.0091406392
 H    0.7156780604    1.7937020557    0.8751196479
 H    0.1205123401   -1.4799545528   -3.1944432666
 H   -0.7055271143    0.0433825490   -2.9387515215
 H   -0.1615960292   -3.1364042043   -1.1728495672
 H   -0.3118868066   -2.8510801088    1.5312003518
 H   -0.0993624265   -0.3941354897    2.0001702621