19

 C   -0.0161578828    1.4844650947    0.0409732393
 C   -0.0380063054   -0.0270812867    0.0010034398
 C   -1.2261999358   -0.7021879365   -0.5625920817
 C   -1.2009381129   -2.0373221963   -0.6443643347
 C    0.0676713415   -2.6599448616   -0.1306892476
 C    0.2882645452   -2.2135966213    1.3395847508
 C    0.7211354568   -0.7779281556    1.1204850002
 C    1.2872827677   -0.7659661830   -0.2657259659
 O    1.1790137854   -2.0365566393   -0.8328170676
 H    0.9487370870    1.8587185652    0.3980867217
 H   -0.1885295776    1.9096322262   -0.9541036244
 H   -0.7891853800    1.8763862537    0.7123069889
 H   -2.0509104241   -0.0994935886   -0.9319873292
 H   -1.9967751281   -2.6346426140   -1.0725847413
 H    0.1401618391   -3.7338784948   -0.2985791439
 H   -0.6203959751   -2.3302417400    1.9351847265
 H    1.0995397244   -2.7826695676    1.8048056116
 H    1.1390325488   -0.1952456141    1.9321389539
 H    2.1650602460   -0.2250480904   -0.5968355665