19

 C   -0.0365971174   -1.1942132112   -0.0775683032
 C    0.0081229659    0.0049203974    0.0082589939
 C    0.0576123673    1.4558901519    0.0769852521
 C   -0.3490855982    2.0892427669    1.4391892718
 C    0.6780609875    1.4569897255    2.4131306288
 C    1.6822040191    2.3147272940    1.6318385484
 C    0.5730325868    3.3879690454    1.3888478140
 C    1.1006153938    3.6054344509   -0.0363089589
 C    1.4758601277    2.1042083190    0.0669654115
 H   -0.0785791307   -2.2526075463   -0.1500238454
 H   -0.5435997437    1.8612803676   -0.7446323361
 H   -1.4130002028    2.1347307294    1.6682001250
 H    0.5604069944    1.8376527065    3.4320727748
 H    0.7716813103    0.3687366852    2.4272166210
 H    2.6874193979    2.5574843971    1.9742760072
 H    0.3459705163    4.1883651703    2.0922447458
 H    0.4239200132    3.9155106137   -0.8397217587
 H    1.9801094664    4.2559127207   -0.0252081762
 H    2.2307729759    1.6437843859   -0.5680284659