21

 C   -0.3496610572    1.4161202080   -0.5049342354
 N   -0.2518260732   -0.0095392401   -0.7308182543
 C    0.9269265864   -0.6804581072   -0.6902145818
 O    2.0116009845   -0.1633430796   -0.4707226776
 C    0.8088017210   -2.1779085129   -0.9313313523
 C    1.6960755708   -2.9969706566   -0.0180270658
 N   -0.5436616586   -2.6624470369   -1.2747917676
 C    0.5114404922   -2.6936258399   -2.3047726406
 C    0.3273047917   -1.8369227423   -3.5330209016
 H    0.6640549236    1.7975447676   -0.3725755890
 H   -0.8162061937    1.9243401893   -1.3562401719
 H   -0.9340746604    1.6406080759    0.3950080900
 H   -1.0744552269   -0.5749569418   -0.8845722341
 H    1.3630433042   -2.9202212671    1.0231483821
 H    1.6864026837   -4.0528494143   -0.3060737782
 H    2.7206621898   -2.6224486518   -0.0661384938
 H   -0.7006490775   -3.5857162640   -0.8791897298
 H    0.9469196773   -3.6717907665   -2.5089979365
 H   -0.0885824737   -0.8602095086   -3.2786640998
 H    1.2863387215   -1.6824195585   -4.0381346843
 H   -0.3529382956   -2.3250687725   -4.2391568777