15

 C    0.0811544277    1.5310338021    0.1541346794
 C   -0.0255048503    0.0046765757    0.0415318290
 O   -1.3834969431   -0.4137447820   -0.0086760882
 C    0.7159935853   -0.5151035813   -1.1566544566
 C    1.8750300723   -1.2019886824   -1.2794871756
 O    2.0983149137   -1.4335599545   -2.6120978988
 C    1.0388055141   -0.8701156613   -3.2282106098
 N    0.1885233091   -0.3106383574   -2.4333312758
 H    1.1201651167    1.8440320553    0.3000572159
 H   -0.2935591767    2.0046489167   -0.7588040417
 H   -0.5167242617    1.8784300935    1.0008241767
 H    0.3938140561   -0.4539875925    0.9440580224
 H   -1.6892119017   -0.2380404065   -0.9074139843
 H    2.6120980000   -1.5840216717   -0.5950126058
 H    1.0060985785   -0.9428185638   -4.3040078568