16

 C   -0.4210871206    1.5957744829   -0.0075801164
 C   -0.0567012416    0.1415779371    0.0646182901
 C   -1.1257559026   -0.9583688902    0.2200692949
 O   -0.3132398398   -1.6463951211    1.2131944245
 C    0.6917418367   -0.6349553130    1.1754764819
 C    1.7585553136   -0.9130198268    0.0836871338
 O    0.9509702932   -0.2461531459   -0.9130613319
 C    3.0481082484   -0.2472733211    0.2778015914
 N    4.0543332297    0.2884920435    0.4677174645
 H    0.4685579153    2.2240653757    0.0848652553
 H   -0.8927304998    1.8149954291   -0.9718311398
 H   -1.1262585569    1.8584572931    0.7864578493
 H   -2.0777248090   -0.6304531048    0.6538787292
 H   -1.3032658939   -1.5623167253   -0.6748841734
 H    1.0115839352   -0.2815838247    2.1562018693
 H    1.9075764622   -1.9758274586   -0.1327913828