19

 C   -0.2253922561    1.3999344090   -0.2083291179
 C    1.1663747803    0.8323402846   -0.0712641033
 C   -0.0472561153   -0.0939372888    0.0174174449
 C    0.1747210668   -0.8528758808   -1.2733211387
 C   -0.3861935555   -0.4434157938   -2.4223507153
 C    0.6561071337   -0.1327339633   -3.4759493495
 C    1.9377574748   -0.1978858558   -2.6438630890
 C    2.1250413880    0.2950683025   -1.1600924829
 C    1.6738920598   -1.0973452666   -1.4789414422
 H   -0.5744223332    1.9933852821    0.6329615192
 H   -0.5866300247    1.7476810517   -1.1676254075
 H    1.6924661518    1.0941630222    0.8426346810
 H   -0.3364680996   -0.5519723256    0.9566970776
 H   -1.3858297322   -0.0249483888   -2.4841346872
 H    0.7193958539   -0.8399998040   -4.3160875667
 H    0.4466105760    0.8521599518   -3.9142397404
 H    2.8836641710   -0.2623562867   -3.1770901835
 H    3.1731661280    0.4926823172   -0.9500737089
 H    2.1788359325   -2.0256072569   -1.2334281697