15

 O   -0.3720699428    0.5267222360   -0.8344838812
 C    0.1401755986    0.9983449479    0.1501972831
 C    1.3590969872    1.8731314615    0.1076223327
 C    2.3513371823    1.5563862034   -1.0316674898
 C    1.4893943707    2.7512987182   -1.1552307602
 C    1.8529134805    2.3585024910    1.3564338425
 C    2.2362935245    2.7469974878    2.4385335341
 C    2.6787659655    3.1909959759    3.6447393638
 C    3.0705277135    3.5845828562    4.7174100448
 H   -0.2615411227    0.8141338063    1.1671807375
 H    3.3995534931    1.6839324296   -0.7917305823
 H    2.0926476405    0.6816113207   -1.6169107908
 H    0.6392693553    2.6964488354   -1.8252593613
 H    1.9219065208    3.7323761230   -1.0035199513
 H    3.4160321829    3.9313055271    5.6595691583