20

 C   -0.2358832745    1.5941517477   -0.1373342652
 C   -0.0308159441    0.0755919718   -0.0048203896
 C   -1.3567033148   -0.6543209000    0.2433888195
 C    0.7185246478   -0.4524333667   -1.2060251325
 C    0.1054211234   -0.8810765124   -2.5505532355
 C    0.9768435769   -1.8217365560   -1.7982260539
 O    2.3689155835   -1.4937896812   -2.0631046201
 C    2.1842487629   -0.2536180255   -1.4531687911
 N    3.0136398624    0.6406250378   -1.1638333972
 H    0.7206052508    2.1013824001   -0.2870290501
 H   -0.8837911992    1.8251697224   -0.9905558559
 H   -0.7070431191    2.0000054457    0.7637661944
 H    0.6165751598   -0.0978342263    0.8652806705
 H   -2.0778010229   -0.4634225871   -0.5589341265
 H   -1.2163513995   -1.7374143739    0.3257211099
 H   -1.8091678959   -0.3051779099    1.1763713943
 H   -0.9601466476   -1.0833853983   -2.5086517906
 H    0.4599659044   -0.4576903771   -3.4852238635
 H    0.7594631382   -2.8253947562   -1.4599987577
 H    3.9568176773    0.3841872150   -1.4603994495