18

 C   -0.1735742677    1.5323910731    0.4904266492
 C   -0.1466148382    0.0256565499    0.5573800461
 N    0.7941732467   -0.6705908458   -0.3249669142
 C    0.9985460740   -0.7452613482    1.1433947887
 C    2.1567510243   -0.0126299200    1.6208207533
 N    3.0699566577    0.5573326607    2.0422614423
 C    0.8143993012   -2.0547984204    1.8709210348
 C   -0.0260023017   -2.1404129117    3.0916793032
 N   -0.4448299125   -2.8059252305    1.8458267369
 H    0.8336720948    1.9351983390    0.3671115346
 H   -0.7805480149    1.8576608236   -0.3602399632
 H   -0.6091075098    1.9530929783    1.4022989275
 H   -1.1254249724   -0.4328339076    0.6965088912
 H    0.4087516780   -1.5590341570   -0.6403574829
 H    1.6924880751   -2.6941809043    1.8091370414
 H    0.2551818032   -2.8082349688    3.8999502679
 H   -0.5511942222   -1.2406146804    3.4004932066
 H   -1.1902294657   -2.2765123498    1.4010522866