22

 C    0.0187087046    1.5910663069    0.0402169917
 C   -0.0301473963    0.0666526172   -0.0907384136
 C   -1.4371526933   -0.5075205331    0.1195018791
 C   -1.4838043490   -2.0268310236    0.0194563669
 C   -2.8387764295   -2.7392405219    0.0814015071
 N   -3.5861291172   -2.3416151745   -1.1418241754
 C   -2.5962116075   -3.4493988558   -1.2017855947
 C   -1.2587567975   -2.7228316275   -1.3990479612
 O   -1.1702982474   -1.9075867763   -2.5351680653
 H    1.0325902014    1.9736655517   -0.1146555462
 H   -0.6337122929    2.0720002372   -0.6972445411
 H   -0.3118557415    1.9163246263    1.0334377712
 H    0.3248904142   -0.2325353719   -1.0829001611
 H    0.6584585564   -0.3847004774    0.6368496392
 H   -1.8147867112   -0.2058439247    1.1070010420
 H   -2.1264241425   -0.0743874410   -0.6141858896
 H   -0.7942921021   -2.4775499682    0.7425850986
 H   -3.3745798829   -3.0791275322    0.9595783886
 H   -4.5130415718   -2.7602459624   -1.0911824689
 H   -2.8911648942   -4.4381270925   -1.5313916074
 H   -0.3891481161   -3.3827718441   -1.4026447146
 H   -2.0406994336   -1.4929028324   -2.6169487852