19

 C   -0.0419745767    1.5711377675   -0.0673074376
 C    0.0482307528    0.0659945303    0.0239897093
 C    1.3248830261   -0.6780320595   -0.1716714481
 O    2.5141299092    0.0524127016   -0.1330714505
 C    2.9514989374    0.1552384661    1.2329388349
 C    1.6775474393    0.1215716282    2.0992926597
 C    0.6936589376   -0.6481229707    1.2276175225
 C    0.0307794505   -1.8521585261    1.7629178587
 O    0.1612825810   -2.2756694677    2.8869799094
 H    0.9283902612    2.0402652471    0.1053633828
 H   -0.3728141278    1.8621231711   -1.0694779024
 H   -0.7606422376    1.9745016257    0.6530339714
 H   -0.8290376074   -0.4628111258   -0.3466167321
 H    1.3640302223   -1.5881631498   -0.7645611387
 H    3.6092708770   -0.6923457310    1.4725287687
 H    3.5278526811    1.0795603276    1.3230819912
 H    1.8251684725   -0.4136045638    3.0396923957
 H    1.3220620208    1.1287886344    2.3340606565
 H   -0.6262884191   -2.3733930552    1.0276059984