13

 N   -0.0923536413    1.2344862918   -0.4858552636
 C   -0.0327528471    0.0612478425   -0.0738301424
 O    1.0379078611   -0.6984545892    0.3735082459
 C    0.1910786093   -1.8489408151    0.6494499828
 C    0.1939529481   -2.2189857315    2.0587223490
 N    0.1986892105   -2.5388997958    3.1682828793
 C   -1.0564444251   -1.0622383085    0.1054016748
 C   -2.1822663354   -0.8345614719    0.9789885391
 C   -3.1143590786   -0.6577694607    1.7142656866
 H    0.8156575369    1.7004323199   -0.4730510367
 H    0.4886638217   -2.7036708517    0.0373065581
 H   -1.3785236076   -1.4630934166   -0.8604828723
 H   -3.9337480825   -0.4930842231    2.3702242394