18

 C    0.0516889305    1.5899535552    0.1931474565
 C   -0.0220735197    0.0748100137   -0.0443462087
 C   -1.4689511917   -0.3795293758   -0.2736135422
 C    0.8657969674   -0.3533901156   -1.2206704851
 C    2.3499854120   -0.2568827012   -0.9649115013
 O    2.8670202523   -0.0053619574    0.1000857092
 C    3.2831655233   -0.5241517283   -2.1577624900
 O    2.8953829821   -0.7590755899   -3.2714349836
 H    1.0747822870    1.9116784810    0.4024703658
 H   -0.3110494759    2.1411271555   -0.6832035752
 H   -0.5710845400    1.8788535000    1.0457103692
 H    0.3622567571   -0.4251148236    0.8533111925
 H   -1.8912194935    0.0845374254   -1.1729807568
 H   -1.5350566778   -1.4657618883   -0.3973509016
 H   -2.1043782714   -0.0988687860    0.5723452380
 H    0.6721035311   -1.3995201903   -1.5021735541
 H    0.6387419871    0.2144168857   -2.1331873377
 H    4.3571029101   -0.4718428501   -1.8782117948