18

 C   -0.2920346204    1.4767774194   -0.1164074332
 C    0.0281608477   -0.0165225130    0.0406486039
 C    0.8782672062   -0.2919475373    1.2799276530
 O   -1.1674796266   -0.7647663528    0.1919065886
 C    0.7496095387   -0.5265437365   -1.2287898740
 C    0.5506671136   -1.9072676114   -1.7070584690
 O   -0.1221577933   -0.8058244948   -2.3314624214
 C    1.9847165875    0.1498432429   -1.5841712267
 N    2.9733421093    0.6984451651   -1.8245989520
 H    0.6171616804    2.0792072615   -0.1968338808
 H   -0.8925500296    1.6482874322   -1.0161805111
 H   -0.8630528000    1.8165979847    0.7510398995
 H    0.3524225967    0.0644404365    2.1693558931
 H    1.0534536567   -1.3652742083    1.3920695307
 H    1.8423870306    0.2192366493    1.2169463384
 H   -1.6753341838   -0.6495677445   -0.6218302570
 H    1.3215509644   -2.3782767912   -2.3117123734
 H   -0.0843501580   -2.5583381217   -1.1138948787