14

 C   -0.0226447319   -1.0891218796   -0.0135407542
 C   -0.0197434097    0.1136576228    0.0022088686
 C   -0.0095251285    1.5306424599    0.0159510267
 O   -1.0082879042    2.2744111014    0.7257967891
 C   -0.5244866096    3.4488940548    0.0170644902
 C    0.8672336079    3.7090564566    0.6519902921
 C    1.2746366440    2.4086606362   -0.0382016947
 C    0.1705185232    2.5500587903   -1.0718846184
 H   -0.0299154958   -2.1508934704   -0.0252259039
 H   -1.2815501933    4.2173627735   -0.1163913070
 H    1.3662377374    4.5686490652    0.1971280308
 H    0.8992394273    3.7705156722    1.7434105399
 H    2.2538973397    1.9642995633   -0.1560113433
 H    0.1402724435    2.4802953237   -2.1498600457