22

 C    0.2827625417    1.4984274475    0.2036750428
 C    0.4745531317   -0.0196585416    0.2456574716
 C    0.5658874859   -0.6444388295   -1.1503481418
 C    0.7604415107   -2.1597327824   -1.1399456928
 C    0.7352846243   -2.7630809498   -2.5440702873
 O    2.0306683111   -2.4022402021   -0.5032815056
 C    2.2046395792   -3.6812976199    0.0393099489
 C    1.3478253269   -3.9325444743    1.2182241845
 N    0.6706744702   -4.1232110235    2.1348486900
 H    1.1155347153    1.9892702687   -0.3125181029
 H   -0.6381718359    1.7700586050   -0.3248778483
 H    0.2230317840    1.9190634946    1.2120988557
 H    1.3833869959   -0.2662559965    0.8039083890
 H   -0.3569310378   -0.4810073118    0.7943151863
 H   -0.3466280308   -0.4231290303   -1.7184772513
 H    1.3979298297   -0.1943210148   -1.7081740748
 H   -0.0309658429   -2.6159841257   -0.5256898662
 H    1.5137549585   -2.3109920638   -3.1662574109
 H    0.8940830339   -3.8458153630   -2.5290219034
 H   -0.2353082032   -2.5828294158   -3.0161349761
 H    2.0208771848   -4.4846338163   -0.6892399319
 H    3.2515240467   -3.7559430045    0.3500456348