14

 N    0.0112393405    1.3402517069    0.0695715649
 C   -0.0199698325   -0.0250420217   -0.0095386186
 N   -1.0881154225   -0.7244484414   -0.1220521081
 C   -0.7566446399   -2.1427632332    0.0045881602
 C    0.7715332414   -2.2247337356    0.0932383142
 O    1.4333872037   -1.6671086001   -1.0486413426
 C    1.2510470789   -0.8265452554    0.0998687466
 C    1.4379199960   -3.3116294488    0.7623288131
 N    1.9285123126   -4.2055368380    1.3066893409
 H    0.8272472465    1.8068706275   -0.2946742866
 H   -0.8638374473    1.7978765115   -0.1436643862
 H   -1.2140745917   -2.5666485630    0.9066544616
 H   -1.1329027582   -2.7080131367   -0.8548104150
 H    2.1531434625   -0.4815856721    0.5963522756