17

 C    0.1575694449    0.9576765755    0.4528931991
 O   -0.1937972229    0.0528424295   -0.5834372398
 C   -1.3728136920   -0.6187343751   -0.3338321068
 C   -1.5892022714   -1.9936899616   -0.9098290699
 C   -0.3585415491   -2.7272503739   -1.3385805515
 C    0.4517972521   -3.0114165545   -0.3115724079
 C   -0.1376241541   -2.5081018810    0.9580603464
 O    0.3202746826   -2.6113957710    2.0735807579
 C   -1.4472090043   -1.8317025474    0.5927321441
 H    1.0864377115    1.4425529721    0.1465816114
 H   -0.6177153579    1.7250538744    0.5943450851
 H    0.3149292840    0.4325834584    1.4035328678
 H   -2.2540182980    0.0267248913   -0.2957284463
 H   -2.5359363457   -2.2094326920   -1.3920087605
 H   -0.1562246040   -2.9414712676   -2.3816125377
 H    1.4219623461   -3.4882625259   -0.3525080076
 H   -2.2732038817   -1.9029075911    1.2889404863