22

 C    0.3401444066    1.5113414419    0.1239414424
 N    0.2478934022    0.0516180461    0.0426810804
 C   -0.9489234952   -0.7323256321    0.5311009706
 C   -0.0325503892   -1.9773937324    0.3960203859
 C    0.7956168269   -0.8691840668    1.1225178652
 C    2.2408598769   -0.8923543428    1.5259591456
 C   -0.4682701045   -0.6226759617    2.0281192724
 C   -0.6771230442    0.6372568041    2.8595246619
 O   -0.7276002564   -1.7370416327    2.8746584226
 H    0.9768872740    1.8681267928    0.9429094094
 H    0.7803431428    1.8846352974   -0.8086851551
 H   -0.6428912060    1.9855831763    0.2278721227
 H   -1.9441393207   -0.5732420032    0.1091540149
 H   -0.2969276093   -2.8612533311    0.9688587510
 H    0.2977225200   -2.1790311876   -0.6222213438
 H    2.8777913239   -1.1338299635    0.6693557084
 H    2.5600006888    0.0760253681    1.9278580489
 H    2.3999994344   -1.6470547046    2.3024147995
 H   -1.7034952867    0.6417068627    3.2518956394
 H   -0.0000586055    0.6237771243    3.7202112250
 H   -0.5397330894    1.5718866790    2.3252759783
 H   -1.5095313296   -1.5397789440    3.4002310645