14

 O    0.0914450412    1.3346300880    0.2662995186
 C    0.0987908807   -0.0685255851    0.0737075321
 C   -1.3549742554   -0.5894828741    0.0424244863
 O   -2.0788608837   -0.0685644822    1.1554763504
 C   -2.1046463538   -0.0386577229   -1.1907616897
 O   -1.6534628090    0.8003363219   -1.9309200916
 C   -1.4101524806   -2.0441070447    0.0344567440
 C   -1.4390859832   -3.2427395397   -0.0454373378
 H   -0.2161201520    1.7135094984   -0.5686501526
 H    0.6211032471   -0.3613740848   -0.8441773121
 H    0.6126980827   -0.5107704347    0.9304421409
 H   -1.6847748275    0.8074582433    1.3006009500
 H   -3.1372188128   -0.4262194322   -1.2963697809
 H   -1.4662840736   -4.3038997513   -0.0947591776