19

 C   -0.1341373335    1.5503795931   -0.0268146886
 C    0.0229081586    0.0492100041    0.0439919852
 C    1.3608326986   -0.6342829441   -0.1957668592
 C    2.5550683049    0.1208165756   -0.4246437718
 C    3.5622291313    0.7476509795   -0.6291030953
 C    0.7042096163   -0.6544102742    1.2089899064
 C    1.3343959995    0.1384541892    2.3437237090
 C    0.1460073496   -1.9197127568    1.6081908772
 C   -0.3189380433   -2.9741791642    1.9546173738
 H    0.7770399072    2.0756658885    0.2650762016
 H   -0.3707038758    1.8538441848   -1.0520235500
 H   -0.9509407684    1.8890319170    0.6190674083
 H   -0.8186849693   -0.5037277706   -0.3624357212
 H    1.3179337382   -1.5810691366   -0.7246079504
 H    4.4546196915    1.2936131308   -0.8106603502
 H    1.8364524730    1.0346871358    1.9778305866
 H    0.5725965523    0.4334943027    3.0717308343
 H    2.0778158758   -0.4736093194    2.8622137649
 H   -0.7294625067   -3.9045329051    2.2598999794