19

 C   -0.0006263885    1.6316606020    0.0895239142
 C   -0.0761933043    0.0996261848   -0.0423283854
 C    0.6554505573   -0.4527777423   -1.2297576163
 C    0.1273117279   -0.7807739316   -2.4637980501
 O   -1.1243909311   -0.7428143857   -2.9749495196
 N    1.1366769157   -1.2262862622   -3.2401084391
 N    2.3305100158   -1.2186445674   -2.5865158955
 C    2.0416402295   -0.7508340961   -1.3772720321
 C    3.1211114285   -0.6013237234   -0.3520635059
 H    1.0378960626    1.9646198140    0.1784588140
 H   -0.4270782591    2.1239021685   -0.7905940227
 H   -0.5449254575    1.9802384865    0.9735384092
 H    0.3156380896   -0.3586997675    0.8740179750
 H   -1.1331272452   -0.2039893450   -0.0818494163
 H   -1.7200718835   -0.4095343920   -2.2958754438
 H    1.0777654070   -1.5547391524   -4.1881207667
 H    3.2697160869    0.4463971010   -0.0660670051
 H    2.8857582988   -1.1552028349    0.5642706449
 H    4.0625336495   -0.9830584063   -0.7528466587