22

 C    0.4817577271    1.3454022980   -0.9822864997
 C    0.0791181735    0.1235555372   -0.1764834655
 N    1.0833212317   -0.9681634554   -0.1537524335
 C    0.7662269413   -0.2389814706    1.0953251905
 C    1.9363578150    0.5000687624    1.7076954928
 O    2.9174694674   -0.4186259608    2.1604676945
 C   -1.3686340230   -0.2425456939   -0.3759165454
 C   -2.1578358199   -1.1445864753    0.5400136800
 C   -2.4587293133    0.3324259366    0.4962105891
 H    1.5574492926    1.5200086636   -0.9443846019
 H    0.2083178212    1.2040091938   -2.0340617916
 H   -0.0363976045    2.2400055041   -0.6208917789
 H    0.6011933098   -1.8644930134   -0.1526922105
 H    0.1828699107   -0.7839834910    1.8342512760
 H    2.3652365230    1.2155434488    0.9939077876
 H    1.6097221634    1.0644322375    2.5878369645
 H    3.1193591982   -0.9744079860    1.3975947756
 H   -1.6250520228   -0.3321779473   -1.4298292704
 H   -2.8627344764   -1.8271028865    0.0781953763
 H   -1.6921987978   -1.5404406452    1.4355485228
 H   -2.1481041630    0.9254707292    1.3498537594
 H   -3.3796504245    0.6655821242    0.0308359583