13

 N    0.0430971253    1.4111299366    0.1572445250
 C   -0.0148707882    0.0537660369    0.0440023664
 C   -1.0938345841   -0.8244618502    0.0184641068
 N   -0.6830427283   -2.1334491297   -0.0246086286
 C    0.6138539708   -2.0769907878   -0.0298427233
 N    1.0766641179   -0.7693025304    0.0093863354
 N   -2.4550425543   -0.4295684143    0.0118520365
 O   -2.6737260130    0.7981012438    0.0575549558
 O   -3.3276907051   -1.2807292425   -0.0427986009
 H    0.7948453495    1.8850434420   -0.3212718521
 H   -0.8758281280    1.8246148496    0.0402375979
 H    1.2915551730   -2.9158984846   -0.0662545641
 H    2.0379953445   -0.4736397193    0.0615598652