23

 C   -0.0310157800    1.5210812805    0.0357582568
 C    0.0147331133    0.0219126419   -0.0561020815
 C    0.0171890518   -0.6401809087   -1.2165515608
 C    0.0377974752   -2.1466194485   -1.3053337097
 C   -0.0851900635   -2.8058720345    0.0828259986
 C   -1.4962446407   -2.5941019380    0.7012373080
 C   -1.3902940742   -1.3007084350    1.5660516143
 C    0.0276641400   -0.7553422967    1.2528537070
 C    0.8303447070   -2.0555270356    1.0687926162
 H    0.8563735946    1.9139886919    0.5494920341
 H   -0.0876546625    1.9881053166   -0.9515007938
 H   -0.8980743926    1.8564020326    0.6205581993
 H    0.0068171720   -0.0883115437   -2.1547907732
 H   -0.7777161117   -2.4946925181   -1.9551913659
 H    0.9644709695   -2.4757812219   -1.7999761578
 H    0.1592596867   -3.8689927668    0.0021774826
 H   -2.2621740525   -2.5073279239   -0.0750553564
 H   -1.7746352558   -3.4498033722    1.3237311711
 H   -2.1741423605   -0.5745859634    1.3337396527
 H   -1.4744743554   -1.5375843158    2.6324067359
 H    0.4097530900   -0.1244474499    2.0613266446
 H    0.9149567661   -2.5972014752    2.0181769286
 H    1.8387249034   -1.8860306257    0.6793052192