17

 O   -0.0054541304    1.2964298605    0.0799259076
 C    0.0128212126   -0.0970957587   -0.0297080920
 C   -1.3647900649   -0.6850453605   -0.0068429076
 C   -0.5478886503   -0.6596065285   -1.3106743652
 C   -0.5202344412   -2.2074824149   -1.3286364748
 C   -1.3672056806   -2.2304501974   -0.0128345535
 C   -0.2422884406   -3.0024780868    0.7371507193
 C    0.6215073264   -2.9061505893   -0.5481830781
 O    1.7264805323   -3.2667473550   -0.8286662167
 H    0.7199964256    1.6445224449   -0.4494978041
 H    0.8515171170   -0.5770288060    0.4764788748
 H   -2.1985508800   -0.0572725622    0.2820769907
 H   -0.6649202259   -0.0298103152   -2.1839779872
 H   -0.8497427918   -2.6795828978   -2.2546634722
 H   -2.3579842597   -2.6808276300   -0.0077381646
 H    0.1820219969   -2.5696978305    1.6464869271
 H   -0.5083607155   -4.0449554626    0.9439730865