17

 O    0.0043331951    0.0663005745   -0.0451988194
 C   -0.0159489567    1.2630175138   -0.0092289636
 C   -1.2261915301    2.2144582718    0.0348167521
 C   -1.2428965919    2.7612163645    1.4913815382
 C    0.0902000433    3.4642732130    1.8071867278
 O    1.2327842888    2.7262594226    1.3741804594
 C    1.1563906558    2.2626800444    0.0078685393
 C    0.6174670976    3.2902849256   -0.9629765296
 C   -0.7227843117    3.2547906380   -0.9507664578
 H   -2.1691965097    1.7328373050   -0.2299956601
 H   -2.0697302284    3.4660390721    1.6390129421
 H   -1.4011076524    1.9197323796    2.1750402080
 H    0.0934185502    4.4637860345    1.3536462352
 H    0.2185230718    3.5886225019    2.8856242626
 H    2.1317696520    1.8343123314   -0.2210189319
 H    1.2369864471    3.9492732606   -1.5576158346
 H   -1.3812053607    3.8768522468   -1.5458072077