19

 C    0.0051173400    1.4884927333    0.0893549942
 C    0.0026188269   -0.0226017231   -0.0337133884
 C    0.7834956738   -0.6063406833   -1.2386045567
 C    1.0659762420   -2.0178422279   -0.7524229868
 C    0.9493097940   -1.9141685622    0.7612368374
 O    0.6694809277   -0.5822175054    1.1169526643
 C   -0.1266537611   -2.6103444146   -0.0251690585
 O   -1.3923548983   -2.0295845477   -0.1839198705
 C   -1.4147883827   -0.6098733679   -0.0297915482
 H    1.0314972991    1.8546494491    0.1765564395
 H   -0.4561284734    1.9487252746   -0.7894177143
 H   -0.5486471109    1.8063960290    0.9777021839
 H    0.1863983617   -0.5711142267   -2.1549405340
 H    1.7140671388   -0.0543230898   -1.4057430918
 H    1.7936454830   -2.6442615173   -1.2544067682
 H    1.5865474439   -2.4193567168    1.4768849454
 H   -0.2150150492   -3.6887922532    0.0441163466
 H   -1.8979763736   -0.3508044207    0.9224689788
 H   -2.0164287717   -0.1980651793   -0.8502661026