17

 C    0.0987848706    1.5847809767    0.1035992046
 O    1.4364203619    1.8789467826   -0.2969137223
 C    2.1572286502    0.6841926015   -0.0568940675
 O    1.2989102173   -0.3501663109   -0.4670404714
 C    0.0063476743    0.0216267060    0.0214947439
 C   -0.2783853493   -0.6439394889    1.3421394290
 C    0.5999802263   -0.6630033339    2.3561448923
 C    1.9107320532   -0.0176531221    2.3916799100
 C    2.5831540345    0.5768017934    1.3919771690
 H   -0.0956678827    1.9357363860    1.1228165744
 H   -0.5801393820    2.0894175231   -0.5884621618
 H    3.0302446503    0.6776541137   -0.7169191348
 H   -0.7184974439   -0.2988770022   -0.7309191137
 H   -1.2338665859   -1.1485891517    1.4523923114
 H    0.3141091414   -1.1785122787    3.2694143421
 H    2.3826239416   -0.0073500685    3.3719774116
 H    3.5370850321    1.0471296140    1.6165475933