14

 N    0.0373513197    1.3336929419   -0.0043390082
 C   -0.0260288190   -0.0310873226    0.0142388751
 N   -1.1505224965   -0.6657977549    0.0817286385
 C   -1.1240676001   -2.0468243350    0.1650826999
 C    0.0339558481   -2.7255376517    0.1717002149
 O    0.1727961982   -4.0594670966    0.2624903250
 O    1.2337461363   -2.0821362817    0.0816186656
 C    1.2858372236   -0.7097063596   -0.0193351648
 N    2.3798245232   -0.0784725004   -0.1445179641
 H    0.9098339283    1.7320767281   -0.3143093190
 H   -0.8158063892    1.8183570915   -0.2305273200
 H   -2.0679636198   -2.5700041086    0.2287946381
 H    1.1138130001   -4.2680868694    0.2206013174
 H    3.1825626372   -0.7065845212   -0.1616839585