17

 C   -0.1818375712    1.4564778135   -0.0107574004
 O    1.1050480094    0.8369597968    0.0109855904
 C   -0.0623809049   -0.0054563361    0.0301107018
 C   -0.2997151036   -0.8634441550    1.2197979806
 C   -0.5929081641   -2.1190336541    0.8687386048
 C   -0.6311106458   -2.3066588728   -0.6236462099
 C   -2.0156615526   -2.1298081566   -1.2997841574
 O   -1.7139704532   -0.7644216389   -1.6529304347
 C   -0.3521591214   -0.8843710694   -1.1781605133
 H   -0.4576858676    1.9990688783    0.8929281614
 H   -0.4601041994    1.9404592420   -0.9458476119
 H   -0.2198450914   -0.4839777754    2.2315522886
 H   -0.8049407860   -2.9253896973    1.5623239771
 H   -0.0339209341   -3.1469019463   -0.9834732992
 H   -2.1675540787   -2.7532233280   -2.1900390487
 H   -2.8928374621   -2.2060621549   -0.6473611130
 H    0.3810211468   -0.7487049060   -1.9793533362