22

 C   -0.0195093662    1.5530016310   -0.1141670347
 C   -0.0018276102    0.0173274643   -0.0422175884
 O    0.6579678517   -0.4107641938    1.1484831523
 C   -1.4357959280   -0.5341666515   -0.0127868079
 O   -2.0327897934   -0.0708976940    1.1963770940
 C    0.7702252038   -0.6188244314   -1.2107762186
 C    2.2254756244   -0.2096997484   -1.2795168155
 C    2.9800426453   -0.3313126736   -2.5496493961
 N    2.6511556983    1.0006195992   -2.0075351590
 H    0.9973566566    1.9457965517   -0.0566689193
 H   -0.4774761986    1.9018546502   -1.0470280508
 H   -0.6033422533    1.9584949804    0.7161842125
 H    0.0364109541   -0.2367630718    1.8666557052
 H   -2.0017333169   -0.1898845622   -0.8914959278
 H   -1.3958867511   -1.6321288874   -0.0313569655
 H   -2.8248228170   -0.5869310586    1.3673975998
 H    0.7163373564   -1.7084742355   -1.0910259018
 H    0.2720954970   -0.3720705447   -2.1581308849
 H    2.7653397768   -0.3547547535   -0.3478998022
 H    4.0368232307   -0.5829221300   -2.5398122726
 H    2.4426899876   -0.6822442861   -3.4279845074
 H    1.8609596421    1.3870533958   -2.5193569214