23

 C    0.0273506000    1.4733415269   -0.0494092892
 C    0.0930514703   -0.0410051786    0.0783046171
 O    1.1307363144   -0.6372404229    0.2131437022
 C   -1.2634205405   -0.7433019016    0.0147216447
 O   -1.0808593561   -2.1240937032   -0.0122878305
 C   -2.2451719178   -2.9708712252    0.0106115649
 C   -3.1430399739   -2.7091306223   -1.2086590107
 C   -1.6520321375   -4.3810821764   -0.0610560120
 C   -3.0288856157   -2.7911165891    1.3202465198
 H    0.9756766531    1.9083266009    0.2681927950
 H   -0.1510577317    1.7439729313   -1.0969929838
 H   -0.7952912307    1.8954837609    0.5371373316
 H   -1.8408126261   -0.4014072362    0.8917465774
 H   -1.8008714580   -0.3610616119   -0.8703877775
 H   -2.5588336104   -2.7719414387   -2.1316448442
 H   -3.9414167751   -3.4558430988   -1.2569559316
 H   -3.6200821944   -1.7251362608   -1.1657964256
 H   -0.9848713927   -4.5523068637    0.7879001657
 H   -2.4421775081   -5.1373617394   -0.0462563412
 H   -1.0695919077   -4.4989912226   -0.9787580386
 H   -3.5058985486   -1.8083271530    1.3853702664
 H   -3.8221893889   -3.5414202219    1.3914801468
 H   -2.3633253239   -2.9118985741    2.1799779534