13

 N    0.2196311394    1.4101879754   -0.0496805638
 C    0.0502691611   -0.0078746065   -0.0144673400
 C   -1.0692029148   -0.8097100409    0.0992444118
 N   -0.6453532210   -2.1086649195    0.0783713977
 C    0.7314238849   -2.1715210648   -0.0470411641
 C    1.1779164974   -0.8733493675   -0.1059803036
 O    2.4571759233   -0.4366248467   -0.2294325924
 H   -0.1188061645    1.8571361672    0.7960981310
 H   -0.2700205631    1.8348036166   -0.8304288039
 H   -2.1141043569   -0.5596711316    0.1915938559
 H   -1.2460470099   -2.9095975076    0.1444697887
 H    1.2572496434   -3.1097723543   -0.0823081953
 H    2.3844703307    0.5303348102   -0.2366084220