19

 C   -0.0906375419    1.5787787585   -0.0051973969
 C   -0.0198827137    0.0451550771   -0.0497747476
 C    0.7694517770   -0.4707940658   -1.2508922831
 O    2.1306546200   -0.0934569957   -1.0591487429
 N    0.5861442338   -0.5138850014    1.1514708729
 C   -0.0818738702   -0.6136238234    2.3346361534
 N   -1.3273653189   -0.3490310816    2.4711721014
 C    0.7809328251   -1.1068152193    3.4778007132
 O    0.3524097956   -1.2849172108    4.5869740660
 H    0.9137980157    2.0102396554    0.0099881282
 H   -0.6175589295    1.9616597779   -0.8854851557
 H   -0.6354945591    1.8977633024    0.8855966945
 H   -1.0380534146   -0.3530355083   -0.1052888564
 H    0.6718884643   -1.5641225011   -1.3121609520
 H    0.3596196700   -0.0339562700   -2.1729117785
 H    2.6598194879   -0.4850868459   -1.7592357607
 H    1.5945457105   -0.5437867031    1.1512355900
 H   -1.5906241037   -0.5506954850    3.4373303044
 H    1.8505283817   -1.2981491799    3.2312865197