19

 O   -0.3646424955    1.4271968471    0.1988704370
 C   -0.1242892007    0.0245044020    0.3103785379
 C   -1.4626670296   -0.6514373925    0.0148466468
 O   -1.9733673961   -0.1965443478   -1.2204833275
 C   -1.3177985743   -2.1708841874   -0.0879722679
 O   -0.6454705572   -2.6515248610    1.0674286802
 C   -1.4001532661   -3.7377027144    1.5923035240
 C   -2.8112341072   -3.4207733297    1.1061590380
 O   -2.5666113495   -2.8289896094   -0.1622354744
 H    0.4809072122    1.8800995479    0.1433591752
 H    0.6218655364   -0.3048353373   -0.4281378305
 H    0.2280146797   -0.2490924185    1.3115614571
 H   -2.1599588483   -0.4269426266    0.8392877065
 H   -1.7868445352    0.7510018765   -1.2389217337
 H   -0.7622401663   -2.4209227416   -1.0042551741
 H   -1.0424492175   -4.6951337990    1.1874830961
 H   -1.2922912685   -3.7431959524    2.6798972903
 H   -3.4426729029   -4.3001927043    0.9599335761
 H   -3.3192806135   -2.7210338615    1.7857254825