25

 C    0.1750788128    1.4067793840    0.0709280521
 C   -0.0360725620   -0.1168169315   -0.0350615689
 C   -1.5344522895   -0.4628390083   -0.1037796000
 C   -2.2970275941    0.0980655534   -1.3001641501
 O   -3.6315142640   -0.3867402187   -1.2133932809
 C    0.7768291123   -0.7011350262   -1.2179057558
 C    2.2347352366   -0.8065981164   -0.7138004063
 C    2.1407043816   -0.8925932128    0.8379573672
 C    0.6327610319   -0.8249556001    1.1696105196
 H    1.2293239804    1.6581200864    0.2232637209
 H   -0.1534032091    1.9267791955   -0.8345889785
 H   -0.3863798177    1.8196366224    0.9164722411
 H   -1.6500913402   -1.5536761541   -0.1240389322
 H   -2.0356067656   -0.1158388327    0.8089910233
 H   -2.2804373908    1.1984402297   -1.2887102557
 H   -1.8208443358   -0.2267533993   -2.2389332320
 H   -4.1286129604   -0.0278544133   -1.9540550084
 H    0.3894150495   -1.6996903413   -1.4551907604
 H    0.6931399419   -0.1023352312   -2.1303333126
 H    2.7451705895   -1.6718915241   -1.1455055679
 H    2.8122634899    0.0724782300   -1.0152397835
 H    2.5935166910   -1.8084963294    1.2274193854
 H    2.6806634349   -0.0621152038    1.3023679686
 H    0.4278548061   -0.3172543203    2.1178696991
 H    0.2235814407   -1.8386402881    1.2567700659