16

 C   -0.0102293613    1.5547162862    0.0128506153
 O    1.3495252777    1.9853699467   -0.0824786468
 C    2.0862863137    0.9664052474   -0.7023441446
 C    2.3876248464   -0.2832417693    0.1105820787
 O    1.9091554389   -0.3354354409    1.4272822068
 C    0.4957751942   -0.5437428225    1.3778564612
 C    0.0330583281    0.0167785660    0.0217955670
 C    1.2524134414   -0.2767349885   -0.8814265801
 H   -0.4369093036    1.9845406587    0.9243606564
 H   -0.5844000768    1.9212202832   -0.8516068828
 H    2.7949291204    1.3165270712   -1.4460018231
 H    3.3121162106   -0.8282853525   -0.0507538984
 H    0.2691788459   -1.6182816075    1.4507038262
 H    0.0494305470   -0.0327006747    2.2364987422
 H   -0.8974170150   -0.4347001826   -0.3273604787
 H    1.1874720924   -0.8766660409   -1.7795793193