22

 C    0.0187712709    1.5979088441    0.0005740874
 C   -0.0263330890    0.0640792847   -0.0187791557
 C    0.6369326763   -0.4716082275   -1.2993923789
 C    0.6223349217   -1.9935320524   -1.4925134490
 C    1.3962559632   -2.7958411237   -0.4272416647
 C    0.6273608972   -3.0031527560    0.8716253893
 O    0.2984202586   -4.1085377912    1.2649761951
 N    0.3009593894   -1.8750569196    1.5733013358
 C    0.6291445698   -0.4932232228    1.2608010147
 H    1.0523769661    1.9621442034    0.0447290261
 H   -0.4385192517    2.0166348162   -0.9011349534
 H   -0.5142318884    2.0038231406    0.8668156376
 H   -1.0772959175   -0.2560400097   -0.0068694215
 H    0.1485746929   -0.0055446771   -2.1640432298
 H    1.6805928346   -0.1233093223   -1.3184636045
 H   -0.4115872923   -2.3582197780   -1.5378623914
 H    1.0648498989   -2.2140322616   -2.4704474945
 H    1.6169366300   -3.7993307224   -0.7947894066
 H    2.3556181392   -2.3027448892   -0.2195661089
 H   -0.2247830216   -2.0627258171    2.4134314899
 H    1.7193535059   -0.3589972120    1.1970357212
 H    0.2994540461    0.1013082435    2.1177978519