20

 C   -0.3587068834    1.4084097649    0.2088567898
 N   -0.0511904827   -0.0142676939    0.2329289900
 C    1.2273454333   -0.4516274762   -0.3186015592
 C    0.9678942898   -0.5373981265    1.1485070083
 C    1.7351102717    0.3442032796    2.1139952179
 C    0.5579351729   -1.9001430130    1.7267668215
 O    1.6487421733   -2.5958088782    2.2638435286
 C   -0.5176806544   -1.7146888664    2.7794161921
 O   -0.3894245955   -2.1468592008    3.9009155104
 H    0.5173581392    2.0683000683    0.2932982337
 H   -0.8628249788    1.6383776652   -0.7350405113
 H   -1.0479216450    1.6472575647    1.0253911406
 H    1.2050184489   -1.3413730876   -0.9435725635
 H    1.9260847628    0.3172024873   -0.6469230045
 H    2.1392557430    1.2350119626    1.6301505027
 H    1.1056778902    0.6674341372    2.9518393414
 H    2.5689018111   -0.2288683671    2.5265976339
 H    0.0883859465   -2.4682072359    0.9056781034
 H    1.3981538247   -2.8025997666    3.1790302043
 H   -1.4216322477   -1.1630891776    2.4583538302