19

 C    0.0002558198    1.5767852730    0.2020937575
 C   -0.0130590982    0.0593320216   -0.0551943082
 C   -1.3971873632   -0.5385190277   -0.0897205646
 C   -1.9641375660   -0.9982538188   -1.2011361616
 C   -3.3344337077   -1.5905209482   -1.2406015137
 O   -4.1317516960   -1.3898331424   -0.0677874844
 C   -3.6324683299   -0.9602831848    1.1115287689
 O   -4.3726087990   -0.8465492772    2.0504448560
 C   -2.1493525795   -0.6362279672    1.2103834691
 H    1.0269013182    1.9545736187    0.2145102987
 H   -0.5492442111    2.1089562799   -0.5803392888
 H   -0.4554821248    1.8318378487    1.1636656755
 H    0.4906830516   -0.1506627628   -1.0049075838
 H    0.5749636982   -0.4387787346    0.7283057263
 H   -1.4376307159   -0.9755298808   -2.1518723197
 H   -3.9145457477   -1.1630583322   -2.0676875749
 H   -3.2857714120   -2.6745174988   -1.4217289001
 H   -1.6991212363   -1.4091208903    1.8506531158
 H   -2.0812153805    0.2863494937    1.7959814921