17

 C   -0.1117419403    1.5939549439    0.0441876046
 C    0.0502709448    0.0644276913   -0.0141457716
 O    0.8357543219   -0.3931923854    1.0943742836
 C   -1.2688210438   -0.5873159825    0.0097841945
 C   -2.3517895706   -1.1063394525    0.0644480118
 C    0.8044170922   -0.3386932922   -1.2840041556
 C    2.2854009884   -0.3694501908   -1.2951292463
 N    1.5029224505   -1.6213121087   -1.3541017985
 H    0.8768532094    2.0583420742    0.0755858949
 H   -0.6528821588    1.9617042166   -0.8323640111
 H   -0.6720582244    1.8854645144    0.9371573242
 H    0.2548099680   -0.4591774027    1.8586227756
 H   -3.3042150147   -1.5756508022    0.0995719960
 H    0.2713546837   -0.0662969106   -2.1916470218
 H    2.8223212022   -0.1185030710   -2.2054867678
 H    2.8016847360   -0.1348312168   -0.3700906304
 H    1.4958489055   -2.0303000349   -0.4211587621