17

 C    0.0291933670    1.5373709051   -0.1760453355
 C   -0.0259617420    0.0362861593    0.0466843785
 N    1.2747727486   -0.6783584752   -0.0138279427
 C    0.5585046522   -0.6347504249    1.2578073471
 C    1.2164989054    0.1323920808    2.3961247883
 C    2.1169338744   -0.7254054878    3.1675477818
 N    2.8146396747   -1.4199956722    3.7721591470
 C   -1.1720151355   -0.6178985336   -0.5388397960
 C   -2.1208509997   -1.1518717232   -1.0501044440
 H    0.9537174634    1.9599035116    0.2208340955
 H   -0.0043830051    1.7534054531   -1.2475489135
 H   -0.8251161590    2.0315098608    0.2962682655
 H    1.1653033375   -1.5839713098   -0.4623206664
 H    0.0457949347   -1.5376087608    1.5806925169
 H    1.7905501570    0.9759459409    2.0051338222
 H    0.4529751915    0.5335613110    3.0728114093
 H   -2.9600001751   -1.6267635750   -1.4955922840