19

 C    0.4716491425    1.1031751122    0.5719500977
 N   -0.3493973383    0.3349427367   -0.3569828931
 C    0.3865428572   -0.2930659041   -1.4158211383
 C    1.2177573704   -1.5846310968   -1.1685618963
 N    0.2359222986   -2.5632862835   -0.6788275607
 C    0.4155776168   -2.3790250968   -2.1661271409
 C    0.7564737507   -3.5130778394   -3.0790706177
 C   -0.4076729414   -1.1431985283   -2.4697763297
 O   -1.2112939120   -0.8727503516   -3.3122881183
 H    1.2721284147    0.5237799752    1.0640662759
 H    0.9436886658    1.9351995092    0.0370639338
 H   -0.1659616069    1.5289475268    1.3520255371
 H   -0.8702205194   -0.3796898535    0.1416776615
 H    0.9722721113    0.4600646517   -1.9584737568
 H    2.2759800666   -1.6807628090   -0.9590233926
 H    0.7311443453   -3.4246641290   -0.4457710736
 H    1.5697950547   -4.1214969945   -2.6691192427
 H   -0.1103662435   -4.1640629855   -3.2340135650
 H    1.0700141169   -3.1396979898   -4.0588168104