20

 C   -0.4497540948    1.2085903502   -0.2443578231
 C   -0.2245826804   -0.2889221474   -0.0969005861
 O    0.7298730371   -0.7566113126   -1.0840211658
 C    1.7233000198   -1.3573893603   -0.2986631589
 C    2.0080904318   -0.5357056587    0.9925757854
 C    0.4593159109   -0.7389695556    1.1885789814
 C    1.1097952936   -2.1397326916    0.9002295321
 N    2.3571801366   -1.8269824852    1.6761770035
 C    2.2607333620   -1.8567610451    3.1317323034
 H    0.4758552702    1.7633216659   -0.0632383857
 H   -0.7955615669    1.4417935626   -1.2553233267
 H   -1.2079514267    1.5554912916    0.4657633111
 H   -1.1708827989   -0.8254338831   -0.2543627416
 H    2.5328746191   -1.7755639674   -0.8913748018
 H    2.6025956872    0.3713419608    1.1124303390
 H   -0.0316997285   -0.5209688824    2.1342652171
 H    0.6399613076   -3.1248391969    0.9094456606
 H    2.2781982334   -2.9001996791    3.4636250862
 H    3.1426448946   -1.3621915927    3.5523874514
 H    1.3662572622   -1.3786046629    3.5617398186