23

 C   -0.1288993140    1.5297038363   -0.1002974702
 C   -0.0465180611    0.0074149138   -0.0250336957
 C   -1.3828828479   -0.6414159511   -0.3704061353
 C    1.2102917889   -0.5481867694   -0.8229157359
 C    1.9189125700   -0.5712598308    0.5071978020
 C    2.9859714488   -0.1605143609    1.1837027665
 C    2.5928123599    0.0876926984    2.6389166531
 C    1.0353631670    0.2520058917    2.5745457165
 C    0.6482989286   -0.5317295161    1.3041667714
 H    0.8353485809    1.9958761332    0.1258272220
 H   -0.4273544762    1.8495827006   -1.1050720591
 H   -0.8682731587    1.9230310405    0.6063757891
 H   -1.7027998468   -0.3766490364   -1.3852065104
 H   -1.3217102445   -1.7334388000   -0.3135240752
 H   -2.1680411045   -0.3135101435    0.3210720343
 H    1.0082011264   -1.5450609680   -1.2304043270
 H    1.6293391292    0.0787596057   -1.6151428399
 H    3.9764819398    0.0462481767    0.7943691725
 H    2.8794064744   -0.7496539996    3.2914628768
 H    3.0837271270    0.9767344621    3.0506181783
 H    0.5367176824   -0.1055069964    3.4800119628
 H    0.7908876087    1.3139293541    2.4659396466
 H    0.2420629017   -1.5246358109    1.5379498167