18

 O    0.2049965198    1.2470282190   -0.3822515364
 C    0.0871567391   -0.1028244310   -0.0370974579
 C    0.6114803931   -0.5038479195    1.3526410887
 C    0.0250160236   -1.9092433513    1.5785161573
 C   -1.3129169819   -1.9456469111    0.7806452718
 C   -1.3896967342   -0.5973702866    0.0197141830
 O   -2.0685058293    0.4083149887    0.7747857488
 C   -2.0081895188   -0.7233060529   -1.3080210492
 N   -2.5236726411   -0.8334888289   -2.3366990026
 H   -0.4666564800    1.7199865456    0.1258767034
 H    0.6106926529   -0.6746513939   -0.8115610513
 H    1.7020673234   -0.4747330114    1.3976829947
 H    0.2245477724    0.2068687768    2.0901194118
 H    0.7061574472   -2.6719399886    1.1899495784
 H   -0.1250999219   -2.1301085125    2.6372536606
 H   -1.3413656208   -2.7843328979    0.0809806348
 H   -2.1884767749   -2.0355770391    1.4286701483
 H   -3.0171742986    0.2495914446    0.7288086857