18

 C   -0.2109834866    1.5085869570   -0.0156172591
 C    0.0556554709    0.0094324333    0.0899260768
 C    1.0884525676   -0.5628351160   -0.9950895193
 N    2.2492689972   -1.1838910056   -0.2362300990
 C    1.5253905661   -1.8362022210    0.9212913218
 C    2.3224477864   -1.2001038294    2.0747661119
 O    1.1153927447   -0.5365945550    2.6769852007
 C    0.9271882663   -0.4493062468    1.2332644665
 C    2.4187219952   -0.2047477231    0.9032757449
 H    0.7212030631    2.0811329065    0.0355381973
 H   -0.7011796488    1.7514966990   -0.9639327467
 H   -0.8615281060    1.8532701607    0.7942268382
 H   -0.8868831149   -0.5456010402    0.0474223889
 H    0.6307965632   -1.3254061606   -1.6299437303
 H    1.4689765015    0.2386215979   -1.6346266952
 H    1.0195633700   -2.7993804167    0.8611912920
 H    3.0550512617   -1.5919701322    2.7774592001
 H    2.9623597124    0.7358311725    0.8247961106