15

 C    0.0049654000    1.6600606473    0.1528963282
 C    0.0715532302    0.1387888576    0.0738762427
 C    0.7496118273   -0.4150233413   -1.1889948142
 O    1.5857242539   -1.4619128884   -0.6902871281
 C    1.7170238272   -1.3558266154    0.6540097214
 O    2.4342296695   -2.0197193783    1.3275637595
 O    0.9012423553   -0.3696565013    1.1317926173
 C   -1.3355380489   -0.4400113690    0.2797052922
 O   -2.0753151354   -0.7271815313   -0.6218853623
 H    1.0150420730    2.0767693799    0.1173218491
 H   -0.5752143270    2.0518166183   -0.6877804163
 H   -0.4700824316    1.9828377421    1.0835651994
 H    0.0236293215   -0.8282375876   -1.8906308108
 H    1.3710881371    0.3345778299   -1.6888732797
 H   -1.6174451921   -0.5509125524    1.3483643815