19

 C    0.0339365009    1.4413537288   -0.0106978553
 O    1.1695723447    0.5561782725    0.0176758487
 C   -0.1334018624   -0.0086389273   -0.0044975699
 C   -0.5945063850   -0.9093367013    1.1346997368
 C    0.2981892367   -2.1539429160    0.8633842422
 C   -0.5732043980   -2.2853708832   -0.3980358730
 C   -1.7787227641   -1.6473142603    0.3642373066
 C   -2.1522030263   -0.8428654173   -0.8931558544
 C   -0.6200509691   -0.8825704956   -1.1548835149
 H   -0.1279163515    2.0142782202    0.9016930199
 H   -0.0943437355    2.0025305978   -0.9361452754
 H   -0.7098918860   -0.4754478259    2.1269578453
 H    1.3751496070   -1.9898188493    0.7730542538
 H    0.0964466278   -2.9706992501    1.5622768155
 H   -0.6521825659   -3.1880005330   -1.0024004740
 H   -2.4866787157   -2.2212138562    0.9610252794
 H   -2.7157170268   -1.4609848677   -1.5980110636
 H   -2.6292438282    0.1377401698   -0.7962925233
 H   -0.1802512827   -0.7195072259   -2.1375261943