23

 C   -0.0740710704    1.5082498842    0.1133537295
 C   -0.0170474655    0.0550906952    0.0396607316
 C    0.0393425237   -1.1481295252   -0.0045351811
 C    0.0447177577   -2.6122492906   -0.0723707046
 O   -1.2823030794   -3.1298014648    0.0575624928
 C    0.7671980978   -3.1700840192   -1.3408349707
 C    2.2150781248   -2.6537644574   -1.3648996521
 C    0.7668760432   -4.7057407425   -1.2463767047
 C    0.0256811402   -2.7264784181   -2.6125542376
 H    0.8555728049    1.9184359988    0.5229015357
 H   -0.2266191923    1.9552351236   -0.8750465036
 H   -0.8942453210    1.8401236779    0.7593716679
 H    0.5828397136   -3.0036160593    0.8014496130
 H   -1.8649728778   -2.5523936322   -0.4459433875
 H    2.7510974692   -2.9342676465   -0.4507730365
 H    2.7589114849   -3.0844188922   -2.2122768645
 H    2.2510722990   -1.5645610437   -1.4551523772
 H   -0.2517231117   -5.0903347095   -1.1589759286
 H    1.2309192487   -5.1450501588   -2.1355778275
 H    1.3329243739   -5.0471736787   -0.3720327861
 H   -0.0118418672   -1.6353201619   -2.6904905767
 H    0.5297941669   -3.1117673939   -3.5046730431
 H   -1.0001162932   -3.1092196852   -2.6245147085