19

 C   -0.7710493814    1.4045260355    0.0296828725
 C   -0.0432348886    0.0719539715   -0.0273546188
 O   -0.9246082870   -0.9873065272   -0.3789329614
 C    1.3038978874   -0.0182862462   -0.8176428168
 C    1.8798232453   -0.9310883588    0.3109201462
 O    3.2161420434   -0.8007334900    0.7158651923
 C    0.7504162704   -0.4067687392    1.2029422561
 C    0.8882143191    0.2385140195    2.5111189993
 O    0.2171869776   -1.0190696750    2.3507067366
 H   -0.1035370566    2.2146322075    0.3382641439
 H   -1.1767833604    1.6652698466   -0.9556235166
 H   -1.6068419534    1.3476765176    0.7338865970
 H   -1.2784501207   -0.7943405588   -1.2542312517
 H    1.2459793231   -0.4428292959   -1.8216326954
 H    1.8243247478    0.9445154520   -0.8576723267
 H    1.7297569921   -1.9881825640    0.0798391373
 H    3.3808947781    0.1289754253    0.9068524983
 H    1.8450107122    0.1886057605    3.0298200464
 H    0.2498562817    1.0789222991    2.7791710515