15

 O   -0.1405903956    0.0079274163    0.0738007368
 C   -0.0108658118    1.2054400904   -0.0377593204
 C    1.2697034286    1.9119959048    0.0064079718
 C    1.3655811652    3.3873463440    0.3396073611
 C    1.7706986755    2.9740435846   -1.0276733141
 C    3.1511374536    2.3055598687   -1.0291780490
 C    2.6534871570    1.2595460427    0.0211554455
 H   -0.8923929778    1.8688764190   -0.2064307047
 H    0.4148100795    3.9070227673    0.4136462869
 H    2.1068770368    3.7018472969    1.0705504336
 H    1.2367740687    3.3203011284   -1.9044771717
 H    3.3978990783    1.8452461654   -1.9874515475
 H    3.9816641911    2.9516048326   -0.7276289600
 H    3.1621517554    1.2536292058    0.9894834531
 H    2.6266705656    0.2412033531   -0.3685220912