15

 C   -0.0942124143    1.4693345481    0.0340861626
 C    0.0813236264   -0.0080566564    0.0012829814
 C    0.2818152868   -0.9862101186   -1.1034327656
 C    0.8867848652   -2.0157641556   -0.1199809826
 C    0.6863876141   -1.0232264508    1.0157251349
 C   -0.4357473338   -1.9690177044    0.6259348196
 C   -1.1422887498   -2.9503554777    1.3643444508
 N   -1.7083362397   -3.7560514227    1.9739091680
 N   -1.0344467408   -0.9633154875   -0.3582797996
 H    0.8737906588    1.9816352644    0.0252259849
 H   -0.6652619991    1.7940741827   -0.8408954342
 H   -0.6408185912    1.7794994256    0.9309209902
 H    0.3330021511   -0.8712396834   -2.1789473846
 H    1.5914577090   -2.8288376469   -0.2132059351
 H    1.2081393774   -0.9325903968    1.9575399291