17

 N   -0.1957884050    1.2857456554    0.2122624219
 C   -0.1168680153    0.0308963332    0.1190240054
 O   -1.2470939390   -0.7119077225    0.0926770734
 C   -1.0663457585   -2.1040100036   -0.0062863970
 O   -0.5533248606   -2.6053814536    1.2126462537
 C   -1.1703306395   -3.8471515132    1.5568157342
 C   -2.4500478641   -3.9107552264    0.7482804271
 N   -3.2721511371   -2.7044738731    0.9374191760
 C   -2.3851679227   -2.8069293043   -0.2351000822
 H    0.7382239424    1.6907724569    0.2114622767
 H    0.8019792411   -0.5651951325    0.0510473942
 H   -0.3627892282   -2.3179186971   -0.8287989929
 H   -0.5138372233   -4.6908311454    1.2983724512
 H   -1.3406584845   -3.8467580118    2.6378825785
 H   -2.9098261686   -4.8669349016    0.5246704107
 H   -4.2279882934   -2.8899920654    0.6434162119
 H   -2.7925394437   -2.8694697950   -1.2371091329