18

 O   -0.0675313730   -0.0831069360   -0.2219564252
 C   -0.0361906686    1.1017419100    0.0021590020
 N   -1.1535882361    1.8942021152   -0.0651290346
 C   -1.3033695667    3.3128470240    0.1958501188
 C   -0.0909280230    4.1653551943   -0.2749241801
 C    0.5019592644    3.9709306987    1.1490659590
 C   -0.9412696667    3.7105255431    1.6560718347
 C    1.3989524198    2.7332000044    1.2185344017
 O    1.1612327837    1.7207432589    0.2306524036
 H   -1.9914397425    1.3530985260   -0.2046119162
 H   -2.2881212291    3.6033295107   -0.1738723473
 H    0.4816672940    3.7968744282   -1.1268566597
 H   -0.3920845181    5.2002744816   -0.4511729368
 H    1.0352128320    4.8125678553    1.5994549874
 H   -1.4381501437    4.6362586077    1.9582416034
 H   -1.0886275090    2.9480463685    2.4259840309
 H    2.4379732223    3.0187614566    1.0342422303
 H    1.3485636902    2.2780766228    2.2171607778