19

 C   -0.4068762782    1.4511597723   -0.2607333877
 C    0.3927883841    0.1981553426    0.0908356055
 N    0.9965698412   -0.3758046935   -1.1064790023
 C    2.0472318932   -1.0565948614   -0.9763962465
 N    2.8782349970   -1.4412752858    0.0945316053
 C    3.7377075800   -2.3124483608   -0.7381608191
 C    2.9214739483   -1.8162631733   -1.9481003572
 C    2.5828582397   -2.4463967887   -3.2230457812
 O    3.4585622463   -1.3128660751   -3.1474394058
 H    0.2467042164    2.2157245020   -0.6909564655
 H   -1.1778343925    1.2152020491   -0.9997350952
 H   -0.8897758903    1.8693008696    0.6284030181
 H    1.1521436845    0.4417270858    0.8521648988
 H   -0.2802685409   -0.5446531631    0.5460404283
 H    2.5449719389   -1.6943133663    1.0129794615
 H    4.7920237144   -2.0222636246   -0.7365681995
 H    3.6440922512   -3.3842454552   -0.5317338333
 H    3.0568736320   -3.3865016571   -3.5020169625
 H    1.6066911545   -2.2506155765   -3.6622318317