15

 C    0.0434610418    1.4894178437   -0.0349502997
 C   -0.0642056197    0.0068320545   -0.0393183016
 C   -1.1192699826   -0.8488541444    0.0428324742
 N   -2.5124157299   -0.6348743140    0.1063980147
 C   -0.5105273687   -2.1418312762   -0.0346230422
 N   -1.1964291064   -3.3407767155    0.0684775342
 N    0.7943195616   -2.0688635259   -0.1523464075
 O    1.0830218735   -0.6951527581   -0.1644948208
 H    0.8385061600    1.8158277937    0.6425693342
 H    0.2741721251    1.8860725488   -1.0303835312
 H   -0.8964949092    1.9380214086    0.2993475578
 H   -2.7556197473    0.3416870889   -0.0065182356
 H   -2.9054288925   -0.9605169445    0.9845492977
 H   -2.0954970972   -3.3098220795   -0.3959630645
 H   -0.6470440484   -4.1359756102   -0.2301033096