14

 O    0.0249445940   -0.0743076452    0.0215193033
 C   -0.0234686476    1.1379717784    0.0357838956
 C   -1.3171971890    1.9434381867    0.0723027307
 C   -1.1974119705    3.2839515633    0.8179661996
 C    0.0605766866    4.0073012295    0.4123552927
 C    1.1291283625    3.3100428981    0.0242807907
 N    1.1165053578    1.9117046930   -0.0483397888
 H   -1.5832454884    2.1347508266   -0.9764773914
 H   -2.0943649750    1.3010967586    0.4899318475
 H   -2.0839643037    3.8942047536    0.6178428124
 H   -1.1919126039    3.1085584173    1.9045147607
 H    0.1114193511    5.0876264337    0.4625351107
 H    2.0714156294    3.7685068364   -0.2519504107
 H    1.9787321667    1.4019028499   -0.1663457131