18

 C    0.0824068881    1.4768965939   -0.3318920410
 C    0.0017987257    0.0038808053    0.0507966699
 C   -1.4203243838   -0.5241027920    0.1390200156
 O    0.6613591037   -0.8118619799   -0.9643893383
 C    1.9879645034   -0.7659744550   -1.0082154647
 C    2.8823726123   -0.5266340706   -1.9986164865
 N    4.1686590508   -0.7257560756   -1.5025513746
 C    3.9906834660   -1.0545271929   -0.2686333884
 O    2.6890940739   -1.1114418431    0.1223196453
 H    1.1218802453    1.7976129848   -0.4453232884
 H   -0.4401141256    1.6564087975   -1.2765999185
 H   -0.3812040671    2.0930888539    0.4444969907
 H    0.5218280149   -0.1665499228    1.0002524571
 H   -1.9357476327   -0.3970137893   -0.8179411094
 H   -1.4213554306   -1.5868021288    0.3938083143
 H   -1.9774517457    0.0199607675    0.9069709034
 H    2.6916469703   -0.2378077603   -3.0183610195
 H    4.7298319010   -1.2784906724    0.4840505530