19

 N   -0.0722949415    1.2473384297   -0.4281109403
 C    0.0540048224   -0.0231877764    0.0516997437
 O    1.1325227560   -0.5069129389    0.3372301705
 C   -1.2637418341   -0.7766112001    0.2377097923
 C   -1.0869811098   -2.2855769432    0.0551561964
 C   -2.3274211892   -3.0731983211    0.4859924488
 N   -2.1652059952   -4.5074738892    0.3114828935
 C   -2.8990970505   -5.2389396058   -0.5693070561
 O   -3.7891829014   -4.8081410008   -1.2720570643
 H    0.7620185022    1.7970161582   -0.5524721534
 H   -0.9561360090    1.6362145508   -0.7039373620
 H   -1.6105563208   -0.5627898900    1.2585851616
 H   -2.0345809113   -0.3863887397   -0.4372179720
 H   -0.8635967636   -2.5119558286   -0.9934337428
 H   -0.2114845767   -2.5968297998    0.6346092847
 H   -2.5642087492   -2.8543711847    1.5361560827
 H   -3.1984137524   -2.7964537568   -0.1132130828
 H   -1.4275474587   -4.9751032789    0.8146552030
 H   -2.5911651072   -6.3036524748   -0.5710576433