22

 C   -0.2850474382    1.2541633703    0.1320303914
 O   -0.1818933724   -0.1476393930    0.1893194944
 C    0.8120309777   -0.5887742491    1.0870230176
 C    0.8234038991   -2.1116613279    1.0844417940
 C    1.9121309389   -2.6848319108    1.9982516777
 N    1.9345550827   -4.1367896111    2.0030807323
 C    1.5806967835   -4.8778269994    3.0965358828
 C    1.6055928235   -6.3851348143    2.8895546634
 O    1.2659086213   -4.3786296171    4.1619492582
 H    0.6544479494    1.7209579601   -0.2056072488
 H   -1.0751187848    1.4959129215   -0.5831436441
 H   -0.5475555922    1.6861956534    1.1109465113
 H    1.8004631936   -0.1943077551    0.7892153534
 H    0.6108319033   -0.2083820372    2.1037467158
 H   -0.1562272573   -2.4802587482    1.4063625777
 H    0.9726901373   -2.4563726071    0.0534551893
 H    2.8970654001   -2.3042046360    1.6961631317
 H    1.7438996587   -2.3870853521    3.0361403527
 H    2.1500168173   -4.6144467651    1.1437415950
 H    2.0073155971   -6.6926823403    1.9203228543
 H    2.2027719175   -6.8373339277    3.6848562913
 H    0.5865907840   -6.7702669939    2.9876395986