17

 C    0.0036471254    1.4554190284   -0.0085497552
 C    0.0005340241    0.0002236899   -0.0000613860
 C    0.0095746047   -1.2045204138    0.0113410513
 C    0.0046451722   -2.6370126358    0.0212395758
 C   -0.4592940859   -3.4087901741   -1.2095050190
 C   -1.2826199313   -3.5234590082    0.0338877001
 N   -0.9222201833   -4.6105992560    0.9047748390
 C    0.3718158898   -4.3625084544    1.3380991136
 N    0.9547450348   -3.3171610550    0.8778666196
 H    0.9062076822    1.8457032476    0.4748088646
 H   -0.0205819834    1.8518021805   -1.0299317719
 H   -0.8602217976    1.8644702296    0.5278336444
 H   -0.8725885750   -2.8080551006   -2.0109492690
 H    0.1363631625   -4.2615632946   -1.5192266421
 H   -2.2941224663   -3.1422721944    0.0896632356
 H   -1.6025311249   -4.9799663206    1.5518921362
 H    0.8526737521   -5.0685133185    2.0074320028