17

 N   -0.0770127568    1.5327990458   -0.0400318788
 C   -0.0111533165    0.0865346393   -0.0262194645
 C    0.9967951702   -0.5303284655   -1.0227223222
 C    2.3434927301   -0.0136202466   -0.7978883713
 N    3.3905742064    0.4296585753   -0.5879953328
 C   -0.0924249268   -0.6167600760    1.3696606777
 C   -1.5505636674   -0.1313551580    1.5349263631
 C   -1.3604656455   -0.6925780783    0.1072078281
 O   -0.6082655369   -1.8290212744    0.6876510718
 H    0.8393680701    1.9251256704    0.1621395394
 H   -0.3338310247    1.8672296846   -0.9650703345
 H    0.9947875165   -1.6180869574   -0.9234209515
 H    0.6981478778   -0.2847713656   -2.0494044519
 H    0.6930586942   -0.7542151558    2.1132297551
 H   -2.1571917422   -0.7658062923    2.1801835260
 H   -1.7285703229    0.9347516339    1.6513186801
 H   -2.0989160557   -0.9208771992   -0.6631721839