22

 C    0.0607963414    1.5586519730   -0.0415845146
 C   -0.0198675443    0.0246355564    0.0038382046
 C   -1.4965463443   -0.4155598050    0.0845259603
 C    0.7013210104   -0.6379798891   -1.2122769431
 C    1.4820537555   -1.8226570728   -0.6335055546
 C    1.4065364763   -3.1986431795   -1.2035103373
 N    2.6449444050   -2.4089148969   -1.3237424341
 C    1.5627696704   -1.5538388572    0.8275417219
 C    0.7581269150   -0.5524161681    1.1774080026
 H    1.1010337319    1.8987451180   -0.0629180361
 H   -0.4438906587    1.9522403414   -0.9313009637
 H   -0.4206950036    2.0042347402    0.8362312480
 H   -2.0714766506   -0.0099556150   -0.7559693525
 H   -1.5817337812   -1.5063722164    0.0646424547
 H   -1.9626809981   -0.0602145761    1.0100848014
 H    0.0048495384   -0.9286774896   -2.0045497647
 H    1.4123211250    0.0765673754   -1.6450973969
 H    1.4802929067   -4.0672017628   -0.5537923121
 H    0.7876709584   -3.3462606458   -2.0856929895
 H    2.7141140207   -2.0186253513   -2.2613578574
 H    2.1922147761   -2.1412261703    1.4857679419
 H    0.6117173296   -0.1846668786    2.1882659414