16

 N    0.0692942221    1.2845630157    0.5084804724
 C   -0.0571988136    0.0913208387    0.0606888899
 N   -1.2684593725   -0.5051539106   -0.1355227111
 C   -2.5153700953    0.2251150103    0.0213103843
 C   -3.6242945119   -0.7424994153    0.3448783058
 C   -4.9452082508   -0.6382214407   -0.2825826619
 O   -4.0021349255   -1.6149853911   -0.7283935192
 C    1.0767370005   -0.7652997369   -0.2583749112
 N    2.0043202288   -1.4087672697   -0.5082676865
 H    1.0477742556    1.5271766002    0.6375287885
 H   -1.3005522171   -1.3473422025   -0.6886607639
 H   -2.3788096864    0.9499088115    0.8279374648
 H   -2.7618639213    0.7879058016   -0.8896081305
 H   -3.5432311592   -1.2410124797    1.3110727670
 H   -5.8176363365   -1.0329875625    0.2346754726
 H   -5.1452627670    0.1718149510   -0.9823105610