17

 O    0.1069240136    1.4292094636   -0.0802126556
 C   -0.0135915060    0.0438348070    0.0324035772
 C    0.2430236339   -0.6890938719    1.3782990951
 C   -0.7608746490   -0.1693645450    2.4770472518
 O   -1.6202465184    0.8803492410    1.9471211330
 C   -2.3062004782   -0.1413380474    1.1681076396
 C   -1.3985307507   -0.6593225465   -0.0121486498
 C   -0.8284376274   -1.7633024358    0.9557126824
 C   -1.7780302125   -1.2768699348    2.0872102593
 H   -0.4690911151    1.7908823803    0.6075679610
 H    0.6286598185   -0.4007878567   -0.7353555528
 H    1.2586251187   -0.9141609170    1.7032903969
 H   -0.3885758418    0.0604122558    3.4753654252
 H   -3.3470403665    0.1140670780    0.9694530029
 H   -1.8906332492   -0.8570457741   -0.9642313518
 H   -0.6089244261   -2.7890840586    0.6745932965
 H   -2.3739970239   -1.8692461978    2.7781210992