20

 C    0.1806533764    1.4946344825   -0.0306612298
 N    0.0536196529    0.0451730483    0.0506375426
 C   -1.0779036178   -0.7175780353    0.7121367587
 C   -0.1076544295   -1.8908241349    0.3874600575
 O   -0.0546557673   -2.9485718828   -0.1474473539
 C    0.7773397363   -0.8059653367    1.0691106961
 C   -0.3896679642   -0.6655640887    2.1295511708
 C   -0.5345729843    0.6115158697    2.9595604322
 C   -0.5969773590   -1.8778864233    3.0464408902
 H    0.3941218489    2.0271226623    0.9035078072
 H    0.9941962770    1.7215937331   -0.7288771495
 H   -0.7396314015    1.9030465212   -0.4597013664
 H   -2.1211661382   -0.5656784636    0.4358191421
 H    1.8574165476   -0.7602960897    1.2072056602
 H   -0.6457714823    1.5189375726    2.3725916111
 H   -1.4241145420    0.5288799077    3.5941503353
 H    0.3247641803    0.7373170832    3.6277766486
 H    0.1147068155   -1.8481799306    3.8790988988
 H   -1.6042899223   -1.8648723692    3.4767066410
 H   -0.4655578865   -2.8327568858    2.5303781672