16

 N    0.0351210656    1.4390271365   -0.0283420104
 C   -0.0327621315    0.0229010120   -0.0120130205
 C   -1.2108538320   -0.7099107643   -0.0570754872
 C   -1.1799769952   -2.1026175848   -0.0839603710
 C    0.0701006794   -2.7099109310   -0.0439732119
 O    0.1527477564   -4.0630768401   -0.0485604385
 N    1.2182275666   -2.0374215180   -0.0123525351
 C    1.1748102277   -0.7049768089   -0.0073988899
 N    2.3786386339   -0.0144004702    0.0554832821
 H    0.5819177052    1.7968239192    0.7496527639
 H   -0.8840425815    1.8630447676    0.0034045012
 H   -2.1648241840   -0.1893349868   -0.0672257272
 H   -2.0809750261   -2.6999535806   -0.1229807105
 H    1.0968108553   -4.2675625859   -0.0238630495
 H    3.1721430395   -0.5984583297   -0.1696681931
 H    2.3687017606    0.8581493650   -0.4579290324