15

 N    0.0888402292    1.3790383423    0.1922950342
 C    0.0142766361    0.0004959904    0.0490996286
 C   -1.0932134439   -0.8574261880    0.0033774687
 C   -2.4857211541   -0.5623429171   -0.0452453693
 O   -3.3615777414   -1.4261588097   -0.0986925430
 C   -0.5677518793   -2.2074049883   -0.0420625181
 O   -1.3398633624   -3.3063120731   -0.1036294514
 C    0.7925957733   -2.1353322819   -0.0333248950
 N    1.1246798339   -0.7654234459    0.0190748017
 H    0.7696530884    1.8258635308   -0.4094183638
 H   -0.8079034359    1.8353271313    0.1027195239
 H   -2.7804345993    0.5103537909   -0.0378697189
 H   -2.2614052732   -2.9776016561   -0.1108562207
 H    1.5554906493   -2.8916590123   -0.0782831508
 H    2.0571033493   -0.4144802934    0.1542862938