17

 O   -0.2664649474   -0.0870660596    0.1466039258
 C   -0.1127145537    1.0929686101   -0.0283862579
 C    1.2291230985    1.7983207334   -0.0206310555
 C    1.3700292146    2.7700039643   -1.1871957444
 C    2.7202689828    3.4916713253   -1.4614210603
 C    2.6549962246    2.8668777686   -2.8540847123
 C    2.5695514350    1.3996208449   -2.7648675398
 N    1.3273613306    2.1763828843   -2.5773529241
 H   -0.9839837209    1.7673463642   -0.2003439218
 H    1.2870649233    2.3787353789    0.9126835319
 H    2.0200256177    1.0445676760    0.0134760551
 H    0.5521376026    3.4959827802   -1.1387610683
 H    2.6301055889    4.5789872247   -1.4502841341
 H    3.5824464970    3.2038208344   -0.8516931149
 H    2.8359793310    3.3896591167   -3.7872706551
 H    2.5585681968    0.8333413118   -3.6906419520
 H    3.0235767386    0.8774635418   -1.9263858626