19

 C   -0.0794400558    1.3700896192    0.0350737539
 N    0.2125809066   -0.0494853801   -0.0096071624
 C   -0.1816528805   -0.8205415982    1.1577038400
 C    0.1001211957   -0.6701236485   -1.2382947242
 N   -0.0139772771   -1.9986169047   -1.3630874138
 N   -0.0322900732   -2.1896825281   -2.6880306249
 C   -0.1509269489   -3.5103712959   -3.2616201369
 N    0.0437527754   -1.0981189306   -3.4267408667
 C    0.1255821777   -0.1080542947   -2.5354874381
 H    0.4996134935    1.9003462933   -0.7260707133
 H   -1.1468772989    1.6016903550   -0.1195740448
 H    0.2178225465    1.7639622667    1.0106427474
 H   -1.2742485033   -0.9403054634    1.2427969146
 H    0.2623358279   -1.8152985148    1.1039766708
 H    0.1833992913   -0.3159097319    2.0567115836
 H   -1.0881180361   -3.9783157656   -2.9470153609
 H   -0.1367822869   -3.3974209328   -4.3446781125
 H    0.6842616590   -4.1386013737   -2.9400617424
 H    0.1949736869    0.9176946985   -2.8551453194