18

 C    0.0498826218    1.4660258343   -0.0163566400
 C   -0.1229019442   -0.0400358453    0.1460004473
 N    0.7388989860   -0.5391938667    1.2130389091
 C    0.8940356491   -1.8852303975    1.3939717920
 N    1.3628872934   -2.4322832654    2.5184292586
 N    1.3814522886   -3.7258410298    2.1794559363
 C    1.8265016104   -4.7675703298    3.0784243720
 N    0.9567138790   -3.9717346378    0.9574513546
 N    0.6347178708   -2.8108661538    0.4320058780
 H    1.0881034848    1.7165586218   -0.2521588569
 H   -0.5900563859    1.8372054348   -0.8215788955
 H   -0.2289705875    2.0000200693    0.8998150494
 H   -1.1806774179   -0.2833694205    0.3327149780
 H    0.1580196802   -0.5601834933   -0.7731865601
 H    0.7123500135   -0.0168872334    2.0766431139
 H    1.2084381512   -4.7705043061    3.9793942649
 H    1.7277899590   -5.7153636430    2.5507456941
 H    2.8689492376   -4.5977459378    3.3580947844