17

 C   -0.4704019205    1.5654742680    0.1647410640
 C   -0.0811022175    0.0763475099    0.0280022111
 C    0.9246923103   -0.4126673411    1.0715920185
 C    0.4594358302   -0.3288297938    2.5057634960
 O   -0.6034191232    0.1036690502    2.8760159349
 C   -1.3540814951   -0.7873220521    0.0674014195
 O   -1.3959498307   -1.9001387730    0.5170972625
 C    0.4983960267   -0.1062543287   -1.3817067696
 O    1.5708530420   -0.5919828128   -1.6223770486
 H    0.4177039096    2.2017636048    0.1061872220
 H   -1.1503226217    1.8663869408   -0.6396466306
 H   -0.9638936758    1.7375678745    1.1215839831
 H    1.1892865311   -1.4584975053    0.8767826446
 H    1.8707099550    0.1373941995    0.9856667168
 H    1.2024001912   -0.7133778261    3.2394630249
 H   -2.2495893403   -0.3104504904   -0.3885968952
 H   -0.1586173514    0.2742825055   -2.1952340539