16

 C    0.0255799394    1.4051970764    0.0298102835
 N   -0.0281188677   -0.0412002894   -0.0611183041
 C   -1.2164149721   -0.7052134292    0.0378791858
 N   -2.3349266049   -0.0930741367    0.1020609925
 C   -3.5815740977   -0.8156184091    0.1537800212
 C   -4.4922868522   -0.2289917579    1.2289070690
 O   -5.4576306436   -0.7957215930    1.6654699463
 C   -1.0709352402   -2.1576289914    0.0323235598
 N   -0.9778194826   -3.3099544088    0.0402874076
 H    1.0571175785    1.7258176106   -0.1239781902
 H   -0.6088425069    1.8503451660   -0.7409740553
 H   -0.3276872663    1.7680819592    1.0028307985
 H    0.8134238448   -0.5701702479    0.0918294928
 H   -4.1191844523   -0.6814749016   -0.7987387362
 H   -3.4959644873   -1.8993702874    0.3176714692
 H   -4.1927631989    0.7875318502    1.5672530596