21

 C   -0.0008379335    1.5283964027    0.1619724240
 C   -0.1039043682    0.0195939873   -0.0882358453
 C    0.7154268953   -0.4633782648   -1.2814420786
 O    0.2673917495    0.0864430117   -2.5093123049
 C    2.2929016733   -0.4393346421   -1.1532659132
 C    2.2763261853   -1.9563183396   -1.3545212635
 O    1.4604763451   -2.5060020130   -0.3040483677
 C    0.8106625318   -1.9998635769   -1.4783952495
 C   -0.1329703572   -2.8733242347   -2.2349568754
 H    1.0355971504    1.8390117331    0.3343606464
 H   -0.3910474759    2.1086668425   -0.6826892238
 H   -0.5831846740    1.8189645395    1.0410521315
 H    0.2336749938   -0.5314554171    0.7947117975
 H   -1.1529669576   -0.2524533593   -0.2595831227
 H    0.3722451731    1.0424822093   -2.4676094046
 H    2.7366193908    0.1027312238   -1.9916211447
 H    2.7241827032   -0.0987504929   -0.2082821053
 H    3.0387321979   -2.6041517294   -1.7728047660
 H   -1.0749307456   -2.9975232305   -1.6888223330
 H   -0.3602900741   -2.4240574568   -3.2051069806
 H    0.3032773365   -3.8639355525   -2.3892664106