17

 C    0.0765660466    1.5465150528    0.0284628788
 C   -0.0016376786    0.0486884628    0.0074608089
 C   -1.1734983294   -0.6508056965    0.0611143664
 N   -2.4261802287   -0.0554491893    0.1751068450
 C   -1.1924729606   -2.1262419751    0.0626297475
 O   -2.2692288897   -2.7318340261    0.1143673150
 C    0.1089595022   -2.7495814298   -0.0115862849
 C    1.2438478493   -2.0037313833   -0.0803348986
 N    1.1910283366   -0.6466367273   -0.0743111857
 H    1.0246082397    1.8925643895    0.4548064539
 H   -0.0130645396    1.9860746766   -0.9737354909
 H   -0.7334266256    1.9511786258    0.6419830480
 H   -2.5981798055    0.7358889517   -0.4277942776
 H   -3.1325280013   -0.7810645647    0.0779720111
 H    0.1611812196   -3.8307443447   -0.0272081337
 H    2.2356776894   -2.4349493697   -0.1435112163
 H    2.0471601356   -0.1194891928   -0.1151233269