18

 O    0.3618620649    0.2085923504    1.0106433302
 C   -0.2167620882    0.2894928326   -0.2810506463
 C   -1.5308308682   -0.4940894804   -0.4040599709
 O   -2.1069362439   -0.2922788576   -1.6906106724
 C   -1.3574432524   -1.9799409433   -0.0712217411
 C   -2.6783708854   -2.7012907601    0.0246822995
 C   -2.8954821594   -3.8145652718    0.9550263900
 O   -3.4055528806   -2.5121378064    1.2455427027
 H   -0.2203527856    0.6681116633    1.6246513260
 H   -0.3979041835    1.3286021324   -0.5913758316
 H    0.5280455138   -0.1333018876   -0.9685416170
 H   -2.2593829074   -0.0654793663    0.2971297112
 H   -1.5057477620   -0.6680148438   -2.3441171015
 H   -0.7347527893   -2.4494036325   -0.8479732073
 H   -0.8155211379   -2.0680849940    0.8754343827
 H   -3.3023185507   -2.6489948531   -0.8676720116
 H   -3.6454461771   -4.5725707051    0.7324416338
 H   -2.0759922071   -4.1477021467    1.5913633636