19

 C   -0.1043738308    1.5870910369    0.3934895244
 C    0.1143839396    0.1342653344    0.0631667691
 C   -1.1195310317   -0.7699954256   -0.2361596462
 C   -0.5592679517   -1.8178351605    0.7918614790
 C   -0.4537841744   -3.2475326897    0.3400065036
 O    0.5518505301   -3.9126858242    0.3542644150
 C    0.7116338886   -0.9609147365    1.0043844546
 C    1.8019155328   -1.0776954161   -0.0757749223
 O    1.1636442326   -0.0733474793   -0.9064399825
 H    0.8259724776    2.0517886598    0.7325828243
 H   -0.4488409021    2.1259885563   -0.4965328300
 H   -0.8613846667    1.7031287461    1.1758485156
 H   -2.0909418200   -0.3482506111    0.0313750301
 H   -1.1436461759   -1.1020484019   -1.2765831634
 H   -1.1887227425   -1.8245182075    1.6909783526
 H   -1.4161498214   -3.6754626726   -0.0287844088
 H    1.0359354434   -0.7816555732    2.0285222961
 H    2.7921100402   -0.7420586585    0.2551665012
 H    1.8996304223   -2.0423937566   -0.5788332123