21

 C   -0.1188325858    1.4886032503    0.3070992243
 C   -0.4958225293    0.0485388982    0.6684413983
 C   -1.0658502565   -0.7040426010   -0.5401624281
 N   -1.4801317977   -2.0891707031   -0.3862577178
 C   -1.3752439535   -2.6753875234    0.7289247874
 N   -1.7679240504   -4.0004055034    0.8897040112
 C   -2.3125127745   -4.7343496799   -0.2466454684
 C   -1.6420018148   -4.6141234687    2.1172276730
 O   -1.9523687171   -5.7561874308    2.3611260624
 H    0.2873044503    2.0224160847    1.1711823111
 H    0.6373598083    1.5126676748   -0.4851419993
 H   -0.9902508977    2.0477644587   -0.0507016361
 H    0.3897870718   -0.4754781233    1.0505996999
 H   -1.2312598582    0.0574688148    1.4833004691
 H   -1.9345520887   -0.1533690539   -0.9281000215
 H   -0.3299413818   -0.6808861415   -1.3564227644
 H   -0.9846078647   -2.2365547328    1.6520317557
 H   -1.5790798292   -4.7674976522   -1.0557571166
 H   -2.5513246601   -5.7391500931    0.0977103704
 H   -3.2071927317   -4.2316679211   -0.6215175816
 H   -1.2151149387   -3.9308271134    2.8751725010