20

 C   -0.0343261231    1.5365910574   -0.0803232950
 C    1.4512447744    2.0289414950   -0.0065565272
 C    2.1983703597    0.8208810299    0.5620985772
 C    3.6847953870    0.6452597633    0.3383472867
 O    4.0877240034   -0.6802673478    0.7621095166
 C    3.1546438069   -1.6660770274    0.7732406906
 N    1.9399133266   -1.6453005652    0.4115518800
 C    1.4764981327   -0.3611349913   -0.0917301964
 C   -0.0003875341   -0.0098458268    0.1153409785
 H   -0.6434495626    2.0138308570    0.6916615129
 H   -0.4811943136    1.8086526408   -1.0402822135
 H    1.8263478525    2.2654703360   -1.0095242058
 H    1.5634622390    2.9324894113    0.5986800296
 H    2.0091072470    0.7577994169    1.6434647978
 H    3.9448240163    0.7603801323   -0.7219472687
 H    4.3018946951    1.3356907944    0.9201862462
 H    3.6038189634   -2.5755339397    1.1685356270
 H    1.6807322620   -0.3287905429   -1.1746807361
 H   -0.2948062514   -0.2854185425    1.1334033346
 H   -0.6644316212   -0.5419268108   -0.5699416551