18

 C   -0.0322896677    1.4909371108   -0.0017258692
 N   -0.0064501804    0.0335230159    0.0173567996
 C   -0.0285789787   -0.6615490682   -1.1695028934
 C   -0.0085184168   -2.0107070268   -1.2349360185
 C    0.0387497917   -2.8321593828   -0.0268515670
 O    0.0581445489   -4.0605975637   -0.0352204548
 C    0.0598400379   -2.0319663110    1.1949738578
 C    0.0381975985   -0.6732269859    1.2089082069
 C    0.0611334240    0.1161525820    2.4887394847
 H    0.8603404344    1.9143859441    0.4687990933
 H   -0.0630077433    1.8262309740   -1.0383657205
 H   -0.9153836525    1.8837029860    0.5116367504
 H   -0.0635735593   -0.0399893129   -2.0569372719
 H   -0.0274022008   -2.5072666188   -2.1974655788
 H    0.0948411894   -2.5684264748    2.1362082234
 H    0.0948991826   -0.5686395303    3.3364090632
 H    0.9354075335    0.7741149517    2.5504615076
 H   -0.8281804614    0.7470793106    2.5987842872