20

 C   -0.0456845857    1.5616161708    0.0356763121
 C    1.4051277772    2.1250980894    0.0221010050
 C    2.3850793444    0.9489132532   -0.0662261158
 O    2.2055316923    0.0914408729    1.0757863316
 C    0.8856489771   -0.4608079683    1.1541273783
 C    0.0171742372    0.0236451760   -0.0252651189
 C    0.7496433283   -0.4319564434   -1.2854783914
 N    1.1186138267    0.6080692814   -2.2659379828
 C    2.1315893796    0.1056165079   -1.3123049964
 H   -0.5702935720    1.8570709624    0.9501673906
 H   -0.6143104481    1.9438979872   -0.8134351630
 H    1.5550577731    2.7982313435   -0.8247897029
 H    1.6240966344    2.6780304793    0.9399735780
 H    3.4223391974    1.2857237440    0.0005887305
 H    0.9656093740   -1.5572842991    1.1577533099
 H    0.4342567208   -0.1560996429    2.1088880176
 H   -0.9828496313   -0.4143626615    0.0488580007
 H    0.5557658226   -1.4383745829   -1.6458699754
 H    1.2714733741    0.1732396817   -3.1721248102
 H    2.9493742077   -0.5017475216   -1.6874660176