18

 C    0.3221253886    1.5500274198   -0.0331115956
 C    0.0380230418    0.0705059441    0.0926676632
 O    0.7991500039   -0.7524938120   -0.8439592981
 C    1.2813587678   -1.6153570990    0.2127695845
 C    1.0651576637   -3.0772367472   -0.0643614037
 C    2.6123437869   -1.0985455373    0.7933577150
 O    1.9087270229   -0.2284759974    1.7187326822
 C    0.6263296817   -0.7115019421    1.2835666527
 H    1.3612804568    1.7635726686    0.2261655267
 H    0.1325823972    1.8826515983   -1.0580743813
 H   -0.3295625077    2.1204212850    0.6375934832
 H   -1.0349081893   -0.1366619960   -0.0332388704
 H    1.6440925883   -3.3808883142   -0.9439236367
 H    1.3844407874   -3.6904287172    0.7838080466
 H    0.0107745249   -3.2816185675   -0.2705069735
 H    3.2118619649   -1.8430168176    1.3331236919
 H    3.2406549119   -0.5477370095    0.0858651902
 H   -0.0209913118   -1.0100190288    2.1107657128