18

 C   -0.5461734198    1.3912369170    0.5169636727
 N   -0.9761292991    0.0093685871    0.5729414885
 C   -1.0244149903   -0.7857423210   -0.5305589134
 O   -0.6982821328   -0.4210940291   -1.6487110311
 C   -1.5021965732   -2.2130896241   -0.2730781495
 C   -0.6601779661   -3.1594884165    0.6738189068
 C   -1.9245965963   -3.3675941972    1.5142080712
 O   -2.3455517097   -2.0770305912    1.9861781892
 C   -2.7101932644   -2.4703333442    0.6520695398
 H    0.2987138465    1.5719060770    1.1910879504
 H   -0.2363809543    1.5981513851   -0.5080379728
 H   -1.3580716746    2.0760613596    0.7887035450
 H   -1.3008593852   -0.3866365194    1.4437991515
 H   -1.6450758966   -2.6757588306   -1.2498361943
 H   -0.3250418589   -4.0595142840    0.1551346913
 H    0.1800427031   -2.7061157701    1.2036912113
 H   -2.2250270812   -4.2208946337    2.1100318026
 H   -3.7660537470   -2.4488139045    0.4099587109