18

 O    0.3643464067    1.1656166167    0.1340775192
 C    0.0288341095   -0.1799503640    0.0650974066
 C    0.4464629905   -0.9770826873   -1.2109589828
 C   -1.0569005460   -1.3080476059   -1.4881235560
 C   -1.4415636735   -0.6430929103   -0.1464430521
 N   -1.3006793576   -1.5839847056    1.0033508753
 C   -0.0078003837   -0.9866641429    1.4101148450
 C    1.1177133773   -1.9569988102    1.6685153996
 O    2.2430327165   -1.6063955540    1.9284654101
 H    1.3249293319    1.2335584233    0.1959899343
 H    0.8999676865   -0.3254190911   -1.9609477905
 H    1.1060447547   -1.8317712591   -1.0469869527
 H   -1.4501504807   -0.7800748254   -2.3603404120
 H   -1.3161105025   -2.3655960881   -1.5555189681
 H   -2.2909108922    0.0412484082   -0.1073872199
 H   -2.0334560570   -1.5003721377    1.6973148483
 H   -0.0618724264   -0.2676225538    2.2376360581
 H    0.8409704059   -3.0300284930    1.5587982976