21

 C    0.0550898012    1.5336330841    0.1952643061
 C   -0.0164967792    0.0187900254   -0.0128833336
 O    0.7701505760   -0.6777136968    0.9495507722
 C   -1.4415276211   -0.4833428170   -0.0400726373
 C   -2.1984204545   -0.9340907445    1.1764062108
 C   -1.9584837774   -1.9219462003    0.0622723394
 C   -2.9314292934   -1.6739244002   -1.0797913470
 O   -4.2800123092   -1.9219959943   -0.7422872273
 C   -2.4418759966   -0.1834263340   -1.1672786992
 H    1.0961848876    1.8684195389    0.1958718702
 H   -0.4820428958    2.0673326218   -0.5952087740
 H   -0.4029609871    1.8119543650    1.1524183219
 H    0.4514831215   -0.2253611549   -0.9762978549
 H    0.5443534707   -0.3260838464    1.8174299189
 H   -1.5989595742   -1.1238897324    2.0606190302
 H   -3.2017097431   -0.5700993820    1.3778468344
 H   -1.3995417726   -2.8340421338    0.2295518763
 H   -2.6438967225   -2.2304683597   -1.9818079025
 H   -4.8248379292   -1.7072160296   -1.5062330522
 H   -3.1985489241    0.5772089186   -0.9486574097
 H   -1.9674152669    0.0464152322   -2.1258797627