20

 C   -0.0058759186    1.5182857706    0.0492085587
 C    0.0287676560   -0.0013618165   -0.0122115168
 C    0.7109092025   -0.5335959005   -1.2804188731
 C    0.8223174242   -2.0558064940   -1.2438784004
 O    1.5569383132   -2.4590309876   -2.3912278714
 C    1.4850880893   -2.4921143371    0.0672715180
 C    0.7562305054   -1.8610705414    1.2575362760
 O    0.7123472617   -0.4513491659    1.1542182022
 H    1.0106934301    1.9230568774    0.0292893751
 H   -0.5588514609    1.9253087847   -0.8025806496
 H   -0.4893615670    1.8509360149    0.9715409714
 H   -1.0066877688   -0.3884601295    0.0179294621
 H    0.1550513742   -0.2217685196   -2.1710822396
 H    1.7197410174   -0.1097401705   -1.3539628219
 H   -0.1964961067   -2.4816207346   -1.2780670656
 H    1.6579763186   -3.4159546342   -2.3580838652
 H    1.4774398300   -3.5859788892    0.1626952177
 H    2.5306773909   -2.1633628950    0.0592691452
 H   -0.2677422354   -2.2690234989    1.3295888375
 H    1.2689663942   -2.0857434829    2.1972305795