18

 C   -0.0880328357    1.4638168979    0.0035753861
 C    0.0248247092   -0.0571678565    0.0416561719
 C    0.8428063463   -0.6308990130   -1.1055403867
 N    2.1355482353   -0.5397700462   -0.3544062258
 C    1.1984572274   -0.5817525381    0.9018567278
 C    1.1478729465   -2.1143372085    0.8205250339
 C    1.5107740395   -1.8999068908   -0.6453542042
 C    2.0813166298   -2.8467539064   -1.5423729803
 C    2.5425712172   -3.6733111908   -2.2850112268
 H    0.8874919216    1.9240226640   -0.1811649802
 H   -0.7712414254    1.7879599668   -0.7884259788
 H   -0.4735412232    1.8472148933    0.9541713359
 H   -0.9536685742   -0.5131211863    0.2365870147
 H    0.7909146209   -0.3854767008   -2.1610820018
 H    1.5089847533   -0.0666158604    1.8091052476
 H    1.9804635974   -2.5804204977    1.3519384801
 H    0.2102156833   -2.6219971532    1.0683258311
 H    2.9572896208   -4.3956679335   -2.9434906646