20

 C   -0.2259370199    1.4451209071    0.0993417996
 C    0.2584213666   -0.0113831344    0.1225104761
 C    0.7941744571   -0.5267850456   -1.2092761795
 C    2.0059200208    0.2123416917   -1.7484211453
 C    0.6621426588   -1.9880988595   -1.5006824967
 N   -0.1055794603   -1.0119310467   -2.2669373461
 C   -1.5500898647   -1.0046477030   -2.1036606881
 H    0.5822555771    2.1381854525   -0.1518556175
 H   -1.0263195430    1.5895189593   -0.6331076707
 H   -0.6149404457    1.7366083486    1.0799078638
 H    1.0595407012   -0.1127303100    0.8664284711
 H   -0.5520102818   -0.6576106477    0.4733875416
 H    2.8296323207    0.1940875021   -1.0251393142
 H    2.3472620982   -0.2494410079   -2.6776472204
 H    1.7720094133    1.2595654344   -1.9658565911
 H    1.4381902115   -2.5235532729   -2.0439438883
 H    0.1267176728   -2.5934554843   -0.7683055745
 H   -1.9071655551   -1.2525565901   -1.0918682238
 H   -1.9447371271   -0.0197717356   -2.3747453701
 H   -1.9803144005   -1.7380251080   -2.7941140260