21

 C    0.0742922821    1.5019456999    0.0914184242
 C   -0.0358238617   -0.0280372438    0.0336655985
 O    0.5708524721   -0.5010999205    1.2443829682
 C   -1.4445886197   -0.4480432066   -0.0153599302
 C   -2.5839486310   -0.8310760195   -0.0562317554
 C    0.7023804418   -0.5781834766   -1.2041739372
 C    2.2465566736   -0.4143933699   -1.2747325306
 C    2.3246601503   -1.8342170033   -1.8975137955
 C    0.8954107716   -2.1120421764   -1.3583487358
 H    1.1277030329    1.7857902191    0.1629864050
 H   -0.3568690953    1.9551732718   -0.8045375604
 H   -0.4506700077    1.8820278279    0.9701443387
 H    0.2586260586   -1.3985687526    1.3985408340
 H   -3.5942290272   -1.1572911803   -0.0874731783
 H    0.2243546120   -0.1672186704   -2.0993736922
 H    2.6450710702    0.4216140490   -1.8540584750
 H    2.6728662684   -0.3908802681   -0.2685924099
 H    2.3437596592   -1.7982965816   -2.9904961588
 H    3.1288818779   -2.4910201344   -1.5582945257
 H    0.9324014263   -2.6129726638   -0.3857023671
 H    0.1945558157   -2.6499287101   -1.9998047165