17

 C   -0.0391394399    1.5524502581    0.0720811184
 C    1.5003810546    1.5246812050   -0.0272996532
 C    2.1002164576    0.7873628250    1.2292142267
 O    1.0576178188    0.3946144542    2.1149993616
 C    0.4318349817   -0.6265426394    1.3429319311
 O    1.4971032961   -1.5057931064    1.0254200997
 C    2.3116484254   -0.5390988510    0.3800896806
 C    1.4348277076    0.1171030441   -0.7043226250
 C    0.0174052902    0.0018780512   -0.0261884756
 H   -0.4961269034    1.9869594869    0.9638316571
 H   -0.4807764746    1.9940704871   -0.8250156275
 H    2.0619624581    2.3754864524   -0.4134780472
 H    2.9103937985    1.2497711663    1.7902219065
 H   -0.3332784687   -1.1268272166    1.9331797748
 H    3.3064270446   -0.9249290523    0.1721564211
 H    1.5403265668   -0.0912628957   -1.7673378657
 H   -0.7806684935   -0.5473573390   -0.5249812233