23

 C   -0.1999337122    1.3226584873    0.1154014214
 O    0.0308225193   -0.0552406218   -0.0352458024
 C    0.6206891838   -0.6435845635    1.1052976468
 C    0.8605703543   -2.1294740122    0.8343203999
 C    1.8210536937   -2.3413954277   -0.3438639627
 C    1.3730282478   -2.8091736416    2.0913977707
 C    0.4143307521   -3.2619970108    3.1788881176
 C    1.1368340749   -4.2731890614    2.3234751062
 O    0.4370193913   -4.9647758272    1.3284787508
 H    0.7354099841    1.8791616012    0.2892394207
 H   -0.6574092843    1.6835756983   -0.8093691657
 H   -0.8819310270    1.5353359285    0.9547622138
 H    1.5764220526   -0.1404162204    1.3418663852
 H   -0.0362040587   -0.5173882362    1.9826197538
 H   -0.1056596341   -2.5741557518    0.5729580861
 H    1.9072349534   -3.4054213819   -0.5791074022
 H    1.4632478791   -1.8107575578   -1.2291521110
 H    2.8228994961   -1.9627161152   -0.1052128174
 H    2.3382661114   -2.4406155071    2.4336149469
 H    0.6957647014   -3.1533855941    4.2208496160
 H   -0.6445629708   -3.1314954814    2.9773457864
 H    1.9419809231   -4.8432532361    2.7872651521
 H   -0.1509560914   -5.5934081871    1.7594054368