19

 C   -0.1489810089    1.3411688708   -0.0048298433
 O    0.1457418565   -0.0414207955    0.0769872243
 C    0.6381027410   -0.6096028753   -1.1028144329
 C    1.2626432965   -1.9705753799   -0.7516322933
 C    1.6572650880   -2.7463824274   -1.9785930134
 C    1.1488097476   -2.5172538231   -3.1881913067
 C    0.0916247929   -1.4780125571   -3.4617426972
 C   -0.4213133194   -0.7983594978   -2.1955380617
 O   -1.5668774583   -0.4386049577   -2.0700909117
 H    0.7346841997    1.9176923915   -0.3216961499
 H   -0.9762892342    1.5407674959   -0.6932789528
 H   -0.4322531136    1.6614452583    1.0005007540
 H    1.4309219915    0.0240119758   -1.5458205089
 H    2.1267777970   -1.7995913399   -0.1009493597
 H    0.5387672304   -2.5351558714   -0.1479382796
 H    2.3963971310   -3.5319303503   -1.8462275185
 H    1.4772119930   -3.1092600903   -4.0385242492
 H    0.4881257433   -0.6961227031   -4.1285739930
 H   -0.7714911041   -1.9028001136   -3.9864961064