15

 C   -0.0661038494   -1.2718255169   -0.1039591111
 C   -0.0556399929   -0.0702602790   -0.0536369643
 C   -0.0565325304    1.3754986948    0.0205170017
 C   -0.0358302219    2.0687929219    1.3887046761
 C    1.4908226801    1.7859661807    1.5110276722
 C    1.8517432574    3.2503442658    1.7743483345
 C    0.7147046267    3.2717751107    0.7497371123
 N    1.3246929921    2.0612294430   -0.0133050468
 H   -0.0729723457   -2.3325620412   -0.1551956584
 H   -0.7338895356    1.8055031438   -0.7266053521
 H   -0.7935340297    2.0754449808    2.1785777230
 H    1.9710592683    0.8701018828    1.8538857639
 H    1.6297058813    3.6444776121    2.7689877168
 H    2.8307660168    3.5777390466    1.4151890090
 H    0.2811996628    4.1054534441    0.1945916934