18

 N    0.1283503148   -3.7230355563   -0.1874756640
 C    0.0919148271   -2.5655533532   -0.0916975519
 C    0.0499355838   -1.2060158130    0.0200460903
 C    0.0076080332   -0.0019462384    0.1189281328
 C   -0.0047690831    1.4471407246    0.2299651280
 C    1.3895381511    2.0709617794    0.0698495274
 C    2.0882958263    2.0188426409   -1.3165028781
 C    2.5918934985    3.4665670018   -1.0661147945
 C    1.4938788465    3.6203542688    0.0213931695
 H   -0.6805460942    1.8576840177   -0.5325075804
 H   -0.4299516963    1.7281548383    1.2030288635
 H    2.0525473773    1.6684676106    0.8421203194
 H    2.8292888855    1.2346726256   -1.4833533813
 H    1.3553388432    1.9827269625   -2.1293512164
 H    3.5952543212    3.4774980108   -0.6319151899
 H    2.5702992550    4.1624976129   -1.9070497377
 H    0.5817337496    4.0671389781   -0.3885182513
 H    1.7502770805    4.1414847890    0.9466440444