16

 C   -0.0210224690    1.4689288317    0.0121910572
 C   -0.0010718510   -0.0215005773   -0.0317247409
 N   -0.0421977809   -0.7519148433   -1.1352716585
 C   -0.0005752460   -2.0320773737   -0.6663526169
 C    0.0659423282   -2.1146514528    0.7144561688
 N    0.0646106723   -0.7907607080    1.1170039565
 C    0.1044397239   -3.4821293932    1.0921788117
 C    0.0584682223   -4.1824216723   -0.1012538201
 N   -0.0053123548   -3.3061034429   -1.1718596517
 H    0.8822730267    1.8784523962    0.4805222045
 H   -0.0791980493    1.8471084220   -1.0090631690
 H   -0.8831656964    1.8520251298    0.5715295984
 H    0.1043937731   -0.4333950601    2.0555267061
 H    0.1575151264   -3.9214802997    2.0756197682
 H    0.0665158356   -5.2470982697   -0.2706155387
 H   -0.0471590312   -3.5665794965   -2.1407808156