20

 C    0.0674215984    1.4764100483    0.2526964761
 C   -0.0245044793   -0.0225784928   -0.0919173005
 C   -1.4127709059   -0.5783584800   -0.1000153284
 C   -2.2313149908   -0.8909429353   -1.1568138345
 C   -3.4789066952   -1.3627779398   -0.6459875789
 C   -3.3657108648   -1.3206075564    0.7206370414
 O   -4.2198949578   -1.6465624816    1.7300946459
 N   -2.1260568208   -0.8533838882    1.0684459667
 C   -1.6707076641   -0.6848979807    2.4327667111
 H    1.1042416525    1.8258762660    0.2036760323
 H   -0.5288015065    2.0679968694   -0.4483184440
 H   -0.3056833560    1.6837079423    1.2607384799
 H    0.3938766338   -0.1838690504   -1.0911237894
 H    0.6203596717   -0.5894501374    0.5942451369
 H   -1.9627004949   -0.7947252135   -2.1983866549
 H   -4.3397047002   -1.6923054462   -1.2070989782
 H   -5.0045000002   -2.0401173440    1.3377478502
 H   -0.6194094275   -0.9705261490    2.5168308689
 H   -1.7796344912    0.3502190132    2.7774781594
 H   -2.2618099010   -1.3287266740    3.0848193499