16

 C    0.0826771288   -1.1822408605   -0.0071178457
 C    0.0052455276    0.0204005859    0.0092095358
 C   -0.0335964445    1.4357191482    0.0118958895
 C   -1.1322773860    2.2093568417    0.0850525154
 C   -0.8034397729    3.6821697882    0.0228572578
 C    0.7247952315    3.7130213159    0.0122912473
 C    1.4555180723    3.1240551276    1.1906401238
 C    1.2117387960    2.2744593218   -0.0389172415
 H    0.1359756445   -2.2424754954   -0.0166242306
 H   -2.1420968830    1.8323716619    0.1929934884
 H   -1.2223593753    4.1404723978   -0.8838946961
 H   -1.2311350852    4.2362204216    0.8690415824
 H    1.2249804495    4.4842903727   -0.5608869607
 H    2.4684495375    3.4718115523    1.3644918779
 H    0.8982193553    2.8823717168    2.0903501266
 H    2.0505905938    1.9501632635   -0.6431388002