18

 N   -0.7655061330    1.3320724732    0.5192694412
 C   -0.1349658996    0.2147510396    0.0574918541
 O    1.0754015867    0.0833157188    0.0986764471
 C   -1.0393590535   -0.8530675771   -0.5300024687
 C   -0.8236157949   -1.1534347045   -2.0488494738
 C   -0.8307475870   -2.6669939693   -1.7370063407
 C   -0.6280968955   -2.3189428202   -0.2211998524
 C   -2.1521009972   -3.3513945263   -1.9635263733
 O   -3.1562721426   -2.8135453292   -2.3602328091
 H   -0.2016106002    2.0970333627    0.8528176161
 H   -1.7571853713    1.4645407100    0.4299153929
 H   -2.0935220434   -0.6668309837   -0.3099797058
 H   -1.6020404275   -0.8054177754   -2.7285564337
 H    0.1578115124   -0.8101056022   -2.3802193680
 H   -0.0379638346   -3.2822712219   -2.1747161509
 H    0.4249302990   -2.3642651355    0.0605629816
 H   -1.2303704905   -2.8663051587    0.5084810894
 H   -2.1549242174   -4.4336981003   -1.6951024659