21

 C   -0.0140003579    1.3556297229    0.1450244969
 O   -0.0052911006   -0.0416740379   -0.0450021363
 C    0.6499376523   -0.5266404453   -1.2103226944
 C   -0.0815254949   -0.0975492800   -2.4915309766
 C    2.1704992513   -0.1897512580   -1.2559293297
 C    2.8513886836   -1.4018823085   -1.9347119825
 C    1.9428719321   -2.5637800721   -1.5804396249
 O    1.5820648961   -2.5883754548   -0.1929540935
 C    0.6470228602   -2.0476697021   -1.1286063597
 H    0.9989529100    1.7821581596    0.1633455891
 H   -0.5994938346    1.8863432920   -0.6195446521
 H   -0.4803713422    1.5337925935    1.1172560641
 H   -0.0434195844    0.9863650613   -2.6304969040
 H    0.3770762518   -0.5571799397   -3.3727173331
 H   -1.1319864866   -0.4022181540   -2.4525418593
 H    2.3802402517    0.7486201927   -1.7746951591
 H    2.5226947455   -0.0993436918   -0.2263842150
 H    2.8841448613   -1.2889954933   -3.0251628519
 H    3.8801600340   -1.5505944329   -1.5919734172
 H    2.0584326650   -3.5366112209   -2.0519193546
 H   -0.2907373839   -2.5889592009   -1.2282094563