16

 C    0.0614275648    1.2916789906   -0.0941165116
 O   -0.0870467427   -0.1288219439   -0.1758362639
 C   -1.3081145664   -0.5940891078    0.0667302586
 N   -2.3136920805    0.1483200356    0.2768822116
 N   -1.3089498689   -2.0117451642    0.0291040466
 C   -2.3941441602   -2.8141599815   -0.1984506384
 C   -1.9516344603   -4.1090499989   -0.1259596376
 C   -0.5674942134   -3.9941929780    0.1548729634
 N   -0.1780080187   -2.7335727266    0.2453538988
 H    1.1197515742    1.4808645245   -0.2731003237
 H   -0.5540195621    1.7869057338   -0.8493810374
 H   -0.2364565831    1.6532523022    0.8933009953
 H   -3.1456366690   -0.3857520788    0.5074859092
 H   -3.3640678175   -2.4021094695   -0.4228181584
 H   -2.5339875144   -5.0050872352   -0.2656725884
 H    0.1558854582   -4.7843767023    0.2956801558