14

 O    0.0762451556    1.4738511560    0.0758178685
 C    0.0110967237    0.0883458099    0.0185237435
 C    0.6712754936   -0.4216520131   -1.2589234078
 O    1.1578062074    0.3555184314   -2.0430127601
 C    0.7031960478   -0.5261166010    1.2921017070
 C    0.0570620360   -0.0591837105    2.5155622116
 C   -0.4828915364    0.3233398777    3.5158675507
 C    0.7034713558   -1.9958310024    1.2246768707
 N    0.6965457423   -3.1466734158    1.1256765339
 H    0.5601626547    1.7467399816   -0.7221876695
 H   -1.0329458655   -0.2642576757    0.0201283152
 H    0.6750256483   -1.5133776401   -1.4285561293
 H    1.7467431002   -0.1843154683    1.2796985158
 H   -0.9575421135    0.6654422302    4.4027416399