17

 C    0.0154045017    1.5140206718   -0.0120653880
 C    0.0553988125    0.0043386230   -0.0492429142
 O    1.0837038705   -0.6326106855   -0.0109774051
 C   -1.3084848175   -0.7068230469   -0.1003845583
 O   -2.2981356184    0.1256701140   -0.6301616230
 C   -1.1674599307   -2.1916166890   -0.5849463290
 C   -1.0436710164   -2.6726299494    0.8973339718
 C   -1.6614698655   -1.3356378867    1.2740891694
 O   -2.4415292897   -0.9451843988    2.0962183777
 H    1.0274031532    1.8998538965    0.1125204590
 H   -0.4319697638    1.8988432798   -0.9329278677
 H   -0.6275222199    1.8545733850    0.8067476889
 H   -3.0164453165    0.1651893222    0.0157910755
 H   -2.0907041351   -2.5248105868   -1.0606230093
 H   -0.3024946399   -2.3824170721   -1.2180765170
 H   -1.5845300769   -3.5625128475    1.2226148636
 H    0.0048435125   -2.7328734394    1.1999338360