20

 C    0.8884100198    0.8334445108   -0.9215738597
 C   -0.0486207699    0.1210942343    0.0723666916
 C    0.7156576113   -0.7343981532    1.0508570761
 C    0.8530381552   -2.2153825922    0.7725245886
 C   -0.4904446036   -2.9114140588    1.0382636288
 C   -0.6999723837   -3.4248253564    2.4475648814
 O   -1.3290923646   -3.0057729954    0.1728794123
 N    1.2728048585   -0.3199974863    2.1257543948
 O    1.0908278545    1.0605117537    2.3135238390
 H    1.4803691766    0.1153145171   -1.4983281381
 H    0.3072118691    1.4318417134   -1.6291063580
 H    1.5761764362    1.4966661390   -0.3915974071
 H   -0.6200010080    0.8695853963    0.6282479048
 H   -0.7557664202   -0.5145244432   -0.4681802599
 H    1.1079061350   -2.3727693826   -0.2800620641
 H    1.6361387524   -2.6280904867    1.4122433318
 H   -0.0379555302   -4.2811120427    2.6251045523
 H   -0.4231380059   -2.6553185499    3.1755093017
 H   -1.7364221153   -3.7332416284    2.5880531463
 H    1.5553298627    1.2135397210    3.1429467974