17

 C   -0.0199829146    1.4808454111    0.0454887376
 C   -0.0005533402   -0.0120117072   -0.0190036922
 C   -0.0343818494   -0.7828638368   -1.1263432639
 C    0.0025237496   -2.1873158348   -0.7462793848
 C    0.0033246938   -3.4665943525   -1.2004596205
 O    0.0600260194   -4.3269914964   -0.1355433763
 C    0.0955356903   -3.5730037675    1.0075037650
 C    0.0625640215   -2.2599304356    0.6895512495
 C    0.0644328442   -0.8654475006    1.2507689047
 H    0.8767495845    1.8717068881    0.5438768810
 H   -0.0719558799    1.9234067422   -0.9527441780
 H   -0.8789139539    1.8454506358    0.6238514540
 H   -0.0818689906   -0.4077467038   -2.1414853094
 H   -0.0293862625   -3.9334347118   -2.1704471041
 H    0.1417355357   -4.1353991781    1.9255566615
 H    0.9632949681   -0.6355342583    1.8384915732
 H   -0.7899889060   -0.6620570638    1.9101831127