21

 C    0.1383566979    1.5776759384    0.0283547189
 C    0.0303230685    0.0501282860   -0.0010305945
 C    0.6990206572   -0.6026665179   -1.2214693681
 N    2.1450653643   -0.3425828435   -1.3611747559
 C    1.6883153777   -1.6194164493   -0.7714774979
 C    1.6718607115   -1.6477889443    0.7438783882
 C    0.6673225835   -0.6453813884    1.2116641566
 N    2.0975058332   -0.4104330678    1.4035717876
 C    2.5801982763   -0.5654062358    2.7678197572
 H    1.1905694682    1.8684200330    0.0501200650
 H   -0.3284988173    2.0239082632   -0.8560294209
 H   -0.3576767943    1.9913159640    0.9127465788
 H   -1.0281303236   -0.2423838017   -0.0210336967
 H    0.1092144597   -0.7334722626   -2.1246148843
 H    2.4146944455   -0.5077949407   -2.3286859742
 H    1.8578215327   -2.5451536274   -1.3111545208
 H    1.8228359271   -2.5919584408    1.2596196301
 H    0.0602738890   -0.8210410967    2.0980201479
 H    2.0531228635   -1.3479665599    3.3425164943
 H    3.6456131107   -0.8161570277    2.7479793125
 H    2.4627735487    0.3838967099    3.3005771661