18

 O   -0.1696857109    0.1725398271   -0.6746968669
 C    0.0559732922    1.0428117179    0.1369750158
 C    1.2276852695    1.9253751244    0.1118292937
 C    2.0963979740    2.0435130944   -1.1278268449
 C    2.7165390276    1.4315751339    0.0711125454
 C    3.1021401909    2.4869670054    1.1187740739
 C    1.6420079525    2.9800497003    1.1266514484
 C    1.0842207980    4.3379445195    1.3085039462
 N    0.9539413124    3.3098841404    2.3682486953
 H   -0.6359495445    1.2067081699    0.9951266846
 H    1.8097181609    1.3573414733   -1.9175398779
 H    2.3913636495    3.0380603146   -1.4521440016
 H    3.0141705071    0.3908746869    0.0887488179
 H    3.3727121746    2.0565027074    2.0849901191
 H    3.8715380770    3.2021043848    0.8109430046
 H    1.7369822665    5.1682954854    1.5641618821
 H    0.2032010420    4.6116458149    0.7328853389
 H    0.0086981605    2.9342499894    2.3770657455