16

 C   -0.1746639603    1.4308048964    0.0411820387
 N    0.1670400116    0.0266183280   -0.0260259170
 C    0.6100616371   -0.5723901791   -1.1517900933
 O    0.7822309988   -0.0453857608   -2.2352984492
 C    0.8928145190   -2.0750536414   -0.9177222147
 O    0.7129794424   -2.5793656545    0.1747824065
 C    1.3691059392   -2.7968792773   -2.0618503912
 C    1.7709744011   -3.4246004361   -3.0113206735
 C    2.2535239004   -4.1716360704   -4.1571699042
 H    0.4504963475    1.9566911119    0.7711490902
 H   -0.0054372702    1.8594518978   -0.9477850067
 H   -1.2256903868    1.5705348465    0.3169571686
 H    0.0851856527   -0.5709642466    0.7841331070
 H    1.5702613563   -4.9935182252   -4.3975612273
 H    2.3451870220   -3.5313538720   -5.0400751383
 H    3.2351858392   -4.6099170472   -3.9465152956