19

 O    0.1559069026    1.3665035417   -0.2412496276
 C    0.0992649413    0.0004090997    0.0863422472
 C   -0.1703020905   -0.3829865141    1.5597606637
 O   -1.3765784590   -1.0837617141    1.1947498481
 C   -1.2790639179   -0.6481681646   -0.1870523154
 C   -2.4150412872    0.2778375809   -0.5900151517
 C   -3.7772165065   -0.4335888523   -0.4614463560
 C   -4.9008419794    0.4261630529   -0.8101135300
 C   -5.8112690688    1.1547470307   -1.1024109211
 H    1.0530669776    1.6813256612   -0.0964637601
 H    0.9318999058   -0.5539043809   -0.3633284639
 H    0.5577344762   -1.0436076545    2.0454086170
 H   -0.3681201167    0.4844467049    2.2026524880
 H   -1.2444076620   -1.5197407547   -0.8553661820
 H   -2.4052853227    1.1732256253    0.0366818212
 H   -2.2591614132    0.6103544071   -1.6219769885
 H   -3.7886495002   -1.3271500459   -1.1002493695
 H   -3.8872832182   -0.7925334287    0.5685806255
 H   -6.6235591512    1.7890636752   -1.3565762448