19

 O   -0.0722676176    1.4300074102   -0.0663634999
 C    0.0350173903    0.0142727496   -0.0504005914
 C    0.6929652099   -0.5661270536    1.2015624927
 C    0.0305269399   -1.6152257555    1.6988175849
 C   -1.1727827129   -1.9619032681    0.8473110678
 C   -2.6001064843   -2.0922989212    1.4306944272
 C   -3.4944839320   -1.3977831831    0.3608790333
 C   -2.5448777778   -0.3924648225   -0.2710305169
 C   -1.2812334130   -0.7196185276   -0.0170818822
 H   -0.6668707811    1.6694195841    0.6541766936
 H    0.6336652575   -0.2226950932   -0.9413395170
 H    1.6109840003   -0.1429968415    1.5947742799
 H    0.3348291874   -2.1915672761    2.5665027408
 H   -0.9458466328   -2.8536572496    0.2397082757
 H   -2.8982621540   -3.1243492867    1.6348769422
 H   -2.6640456060   -1.5322666102    2.3704004719
 H   -3.8690120778   -2.1189352884   -0.3800686927
 H   -4.3782314706   -0.9226689923    0.8004967789
 H   -2.8772576655    0.4850607457   -0.8138929788