21

 C    0.0637763275    1.4795934678    0.0021381771
 C    0.0823177259   -0.0328429531   -0.0024961623
 O    0.7010194834   -0.4694905989   -1.1952663754
 C    0.7488982246   -1.8913036060   -1.2676973260
 C    1.5203822706   -2.4362642804   -0.0617957675
 O    2.8818463937   -2.0495301487   -0.1275391097
 C    0.8465018604   -1.9063685149    1.2193872730
 C    1.5879172042   -2.2644263308    2.4946239466
 O    0.7890553043   -0.4764345734    1.1337477297
 H    1.0879635747    1.8593335236   -0.0328444583
 H   -0.4822658871    1.8488857280   -0.8686326430
 H   -0.4184251442    1.8428898504    0.9122327495
 H   -0.9431703626   -0.4508125754    0.0326555409
 H   -0.2705060353   -2.3097203758   -1.2992693210
 H    1.2638944416   -2.1405594288   -2.1982656648
 H    1.5042893632   -3.5319085306   -0.0677629521
 H    2.8792566402   -1.0853028034   -0.1765738790
 H   -0.1838226913   -2.3014550027    1.2589219836
 H    2.6270288731   -1.9359553431    2.4286917008
 H    1.1130905085   -1.7857173087    3.3548283795
 H    1.5774940844   -3.3481856053    2.6462772287