14

 C    0.0012218690    1.5452808883    0.0241199309
 C    0.0015155398    0.0445480109    0.0102738507
 C   -1.1388929867   -0.7039017693    0.0435877470
 N   -2.4024956732   -0.2053138662    0.1206535659
 N   -1.1205153273   -2.1016704248    0.0349151597
 N   -0.0614052501   -2.7469786307   -0.0032439839
 O    1.1536553217   -2.0651447671   -0.0361159653
 C    1.2561977518   -0.6599516023   -0.0328762112
 O    2.3649028426   -0.1953139659   -0.0664837611
 H    1.0288180381    1.9093878694    0.0268151907
 H   -0.5048508765    1.9589921186   -0.8582577746
 H   -0.5105354460    1.9374590988    0.9116722065
 H   -2.5664507974    0.7618827386   -0.0990454623
 H   -3.1570857157   -0.8516977385   -0.0434510028