25

 C    0.0088574215    1.5700202423   -0.1078149662
 C    0.0490693290    0.0406723750   -0.0574267930
 C    0.6724300365   -0.4989345189    1.2348874932
 C    0.7639377694   -2.0301252418    1.2734453479
 O    1.4767599279   -2.5221848702    0.1338867398
 C    1.3634562893   -2.5854093400    2.5824337494
 C    0.6057575699   -2.1290109399    3.8375172894
 C    1.4307419841   -4.1147093855    2.5272250813
 O    2.1596424418   -4.5673010930    3.6627963192
 H    1.0168719502    1.9961111328   -0.0468909537
 H   -0.4455988773    1.9262181863   -1.0376533595
 H   -0.5718494306    1.9823065020    0.7252734206
 H   -0.9699142600   -0.3570322055   -0.1551160413
 H    0.6081577476   -0.3510392117   -0.9132300144
 H    1.6840650119   -0.0816450941    1.3615127872
 H    0.0900265379   -0.1460679375    2.0933775150
 H   -0.2472539828   -2.4441138449    1.1517967213
 H    2.3747099464   -2.1743911547    0.1854868359
 H    2.4020950425   -2.2262084833    2.6537705513
 H   -0.4671839914   -2.3384171950    3.7437391544
 H    0.9796071315   -2.6721947278    4.7079745841
 H    0.7244531100   -1.0593767387    4.0270490181
 H    0.4054241587   -4.5230566434    2.5269440161
 H    1.9119819297   -4.4268346550    1.5926600060
 H    2.2002775864   -5.5269485972    3.6271590479