20

 C   -0.1238415407    1.5928863517   -0.0075947568
 C   -0.0138905442    0.0567657270   -0.0049613899
 C    0.7169677149   -0.4767135425   -1.2157478071
 C    0.0088871817   -0.8046560404   -2.3725351912
 C    0.6856945977   -1.2652380225   -3.4955783211
 N    2.0100566710   -1.4232604655   -3.5378276827
 C    2.6826561649   -1.1133767464   -2.4283752787
 C    2.1127436977   -0.6392406698   -1.2435920546
 C    2.9934472310   -0.3373092804   -0.0568446809
 H    0.8633944881    2.0647724723   -0.0162067464
 H   -0.6641482027    1.9424443050   -0.8926950789
 H   -0.6591208770    1.9446971082    0.8796509889
 H    0.4866651254   -0.2691105430    0.9126413453
 H   -1.0217989711   -0.3719191335    0.0203259646
 H   -1.0723142412   -0.7039960245   -2.3956573979
 H    0.1389423172   -1.5226330587   -4.3999330307
 H    3.7621489116   -1.2516722480   -2.4746816189
 H    2.9039571146    0.7043519843    0.2698638550
 H    2.7425760070   -0.9648579082    0.8063807092
 H    4.0435945341   -0.5180997250   -0.3010786172