19

 C    0.0212857412    1.5531501081    0.0854594298
 N    0.1149230856    0.0973262877    0.0605905931
 C    1.1392449183   -0.5393628960   -0.7584732683
 C    1.3353848704   -1.6542478976    0.2051225084
 C    2.4665099442   -0.6409237996    0.0540445030
 C    2.1366962666   -0.0813838392    1.4153235336
 C    2.9763942280   -0.1669211892    2.6228462823
 N    2.5206666671    1.1468610599    2.0956507385
 C    0.7070017445   -0.6249160881    1.2257201762
 H    0.9765203171    2.0721627601    0.2427995567
 H   -0.4068842477    1.8892136834   -0.8653235237
 H   -0.6622997884    1.8527016833    0.8859225992
 H    1.1200435193   -0.5445416261   -1.8419689801
 H    1.3038295940   -2.7292543771    0.1187746970
 H    3.4358454833   -0.7869693963   -0.4062874963
 H    2.5458298487   -0.4441749961    3.5822046868
 H    4.0224367581   -0.4390633413    2.5038420840
 H    3.2806970979    1.6067901129    1.5983835917
 H    0.0539601716   -0.8225969187    2.0745334683