19

 C   -0.0719914656    1.5185595902    0.0617147568
 C   -0.0505130981    0.0224541726   -0.0191139512
 C   -0.0108640843   -0.6947151521   -1.1466744342
 C    0.0301046346   -2.1976347373   -0.9961499825
 C   -1.1124963095   -2.6437648077   -0.0481429356
 C   -0.0657071260   -2.2605009616    1.0141669347
 O    0.9991269760   -2.5416262775    0.0551558252
 C    0.0061383782   -0.7527867541    1.2974076732
 O    1.2137330555   -0.4616064923    1.9945574599
 H    0.7649337739    1.8778088562    0.6701500362
 H   -0.0115061911    1.9780836848   -0.9284126491
 H   -0.9892195324    1.8740228138    0.5492798975
 H   -0.0273250662   -0.2404448851   -2.1328742247
 H    0.2189490160   -2.7442950897   -1.9214050209
 H   -2.0547824196   -2.0956002719   -0.0915430970
 H   -1.2831762205   -3.7219132618   -0.0692926268
 H    0.0310138119   -2.8488925143    1.9300685085
 H   -0.8062065532   -0.4434166876    1.9669678267
 H    1.9119841603   -0.8536412345    1.4518066831