19

 C    0.0619393891    1.4217933086   -0.1313005838
 O    0.0373862458    0.0110993268   -0.0493151495
 C   -1.1936784601   -0.5654198721   -0.0029436408
 C   -1.3891833499   -1.9129602130    0.0771741249
 C   -0.4597881556   -3.0670182053    0.1343241302
 O   -2.7399659571   -2.1585590375    0.1056403953
 C   -3.3908430645   -0.9672020781    0.0434810537
 C   -4.8766325911   -1.0092326517    0.0615261823
 C   -2.4905667753    0.0527909531   -0.0250945613
 H    1.1136860729    1.7127829833   -0.1592461783
 H   -0.4346217642    1.7839001005   -1.0417250061
 H   -0.4158249767    1.8871994940    0.7414566017
 H   -0.5840681607   -3.6505852287    1.0547684852
 H   -0.6025528118   -3.7528816548   -0.7097272608
 H    0.5673458712   -2.6962489151    0.1020680014
 H   -5.2744833085   -1.5804029567   -0.7854191442
 H   -5.2559692596   -1.4783852078    0.9768583848
 H   -5.2779165453    0.0052601711    0.0070100138
 H   -2.7244818487    1.1033156335   -0.0835189684