19

 C    0.2653952060    1.5546917083   -0.2561628032
 C   -0.4003790221    0.3392811304    0.3837538623
 N    0.2429591367    0.0215437802    1.6514010499
 C   -0.1928283132   -0.9636064889    2.3096265010
 N    0.2749624172   -1.4265440576    3.5244247820
 C   -0.4634745391   -2.5382438315    3.9354196617
 C   -0.1934332510   -3.2576969069    5.2082422286
 C   -1.3731925713   -2.7475543907    2.9750535644
 O   -1.2363732426   -1.8041790706    1.9667531406
 H    1.3270974792    1.3605847751   -0.4371074567
 H   -0.2095809514    1.8037045070   -1.2108831825
 H    0.1937232823    2.4244033648    0.4042059712
 H   -1.4735048307    0.5405314250    0.5279900508
 H   -0.3479394896   -0.5160285863   -0.3080361543
 H    1.0402771434   -0.9912675529    4.0061477233
 H   -0.3062413129   -2.5959071098    6.0752412020
 H   -0.8895915616   -4.0907616569    5.3257543109
 H    0.8259982755   -3.6608367470    5.2331510251
 H   -2.1511072448   -3.4800147917    2.8531878930