15

 N   -0.0472793727    1.2250275160    0.2675591959
 C    0.0228835931   -0.0108002997    0.0406830137
 O    1.1333063854   -0.7328584858   -0.2697195201
 C    0.7304028042   -2.0923148175   -0.4768529310
 O   -0.5069643825   -2.2476195673    0.1607868091
 C   -1.1465292680   -0.9808871230    0.0827263631
 C   -2.0573006483   -0.7541771527    1.2888572964
 C   -3.2488640459   -1.5983265046    1.2652758336
 N   -4.1942459197   -2.2613512080    1.2395318632
 H    0.8612269761    1.6800014394    0.1730065015
 H    0.6613150466   -2.2735441284   -1.5603148866
 H    1.4637549610   -2.7586074321   -0.0176150189
 H   -1.7286763131   -0.8952374478   -0.8479357911
 H   -1.4917650824   -0.9454348061    2.2061306843
 H   -2.3477458739    0.3013390376    1.2945454169