16

 O    0.0244707122    0.0594731572    0.0446784475
 C    0.0104294150    1.2560973510    0.0342491471
 C   -1.1933452669    2.2345139303    0.0473558342
 C   -0.3542089565    3.5266829960    0.0300389354
 O    0.6435112090    3.2059884396   -0.9968321444
 C    1.1761492273    2.2619698635   -0.0059037867
 C    0.7389991183    3.2648301075    1.0731310608
 C    1.5140141195    4.2072265229    1.8882121444
 N    0.7206705460    3.1116831521    2.5084812843
 H   -1.8107343936    2.1295658669   -0.8478692195
 H   -1.8172097689    2.0894677199    0.9340615139
 H   -0.8468267655    4.4892386052   -0.1057045613
 H    2.1907683226    1.9117211612   -0.1765699582
 H    2.5900542991    4.0981343501    1.9860936583
 H    1.1486645562    5.2277738624    1.9725380953
 H   -0.1422615338    3.4721204440    2.9096602289