21

 C   -0.0275645062    1.6382923709    0.0246257882
 C    0.1404484263    0.1218440102   -0.1206807938
 C    0.6816323306   -0.5347898384    1.1452448838
 C   -0.2328474134   -0.6295458185    2.4178226718
 C    0.0813434127   -2.1513561834    2.5305582529
 C   -0.9101164894   -3.1160652472    1.8328127348
 O   -1.4696900127   -2.4332738107    0.7065415658
 C   -0.1689998678   -3.0186569800    0.5596365316
 C    0.8902476877   -2.0812666338    1.1944375964
 H    0.9276607469    2.1260247642    0.2510998737
 H   -0.4200215789    2.0851682283   -0.8942350306
 H   -0.7232817852    1.8836106143    0.8345509959
 H   -0.8189642212   -0.3342095032   -0.3822082339
 H    0.8271087436   -0.0911788300   -0.9515099264
 H    1.6291775752   -0.0527869493    1.4155225003
 H    0.1098466286   -0.0361502038    3.2682655339
 H   -1.2858499711   -0.4095209685    2.2307344036
 H    0.5373670429   -2.5258897747    3.4463685535
 H   -1.5038809634   -3.9177382150    2.2586438183
 H   -0.0491796897   -3.7249418615   -0.2547831580
 H    1.9078656047   -2.4693260699    1.1285496783