23

 C   -0.2274884216    1.5307830388    0.7980509309
 C   -0.1408597850    0.0467342485    0.4875442816
 C    1.0635786282   -0.4747839107   -0.3391925012
 O    1.9434161416   -0.1610449953    0.8092286617
 C    0.7589662249   -0.8571152736    1.3916170127
 C    0.7241140622   -1.0628242733    2.8747205825
 C    0.8773100754   -1.9194454431    0.2319613202
 C   -0.3255039688   -2.7742476373   -0.1671984500
 C    2.1374608044   -2.7839320856    0.2591036985
 H    0.7551125372    1.9310924726    1.0532513468
 H   -0.6178496197    2.0843846268   -0.0631148519
 H   -0.9093906657    1.7139094656    1.6362300474
 H   -1.1195101337   -0.3590195016    0.2263602969
 H    1.4114777586   -0.1631862822   -1.3264923106
 H    0.7481123770   -0.1029956952    3.4000589615
 H   -0.1916451988   -1.5898541363    3.1620646500
 H    1.5820886174   -1.6573048228    3.2035991946
 H   -1.2721912048   -2.2350401578   -0.2149418304
 H   -0.1531227913   -3.2259606986   -1.1507709110
 H   -0.4505342062   -3.5992233388    0.5437474740
 H    2.0253517195   -3.6060557708    0.9759139315
 H    2.3105619315   -3.2382057620   -0.7233046099
 H    3.0137298077   -2.1973710373    0.5325265141