21

 C   -0.2756553146    1.3550278264    0.1292109176
 O   -0.2287712778   -0.0402838950   -0.0549634566
 C    0.8058722069   -0.4481532155   -0.9247413403
 C    0.7213619329   -1.9579836413   -1.0427071820
 C   -0.4359959458   -2.5427612892   -1.8775945706
 O    0.4805404597   -3.2924302127   -2.7101954324
 C    1.6344755433   -2.7154975028   -2.0422522828
 C    2.4762406101   -1.9566687779   -3.0588697384
 O    2.8633776237   -2.8360169661   -4.0967250707
 H    0.6583955163    1.7401056494    0.5679417934
 H   -0.4532802735    1.8871740480   -0.8187188289
 H   -1.1007799595    1.5669547901    0.8132507365
 H    0.6876585071    0.0364478545   -1.9081825661
 H    1.7893127015   -0.1415973568   -0.5273828882
 H    0.7689304932   -2.3821752385   -0.0374553121
 H   -1.1348636565   -3.2005408218   -1.3506970134
 H   -1.0071347798   -1.8044404116   -2.4548118550
 H    2.2489638037   -3.5064532830   -1.5941938868
 H    1.9139395769   -1.0977078182   -3.4572418137
 H    3.3942657870   -1.5760594512   -2.5971730171
 H    2.0483701753   -3.2620275768   -4.3919407924