14

 C   -0.2736635638    1.5160300117   -0.0323727421
 C    0.0936431936    0.0490729300   -0.0295741931
 O    1.2991164091   -0.2297759334   -0.7773100008
 C    1.9494474287   -0.8309448907    0.3513547432
 C    0.7185299621   -0.5768985644    1.2642400834
 C    0.9206933335    0.2985480375    2.4039425526
 N    1.0879203386    1.0017925265    3.3064714836
 H    0.5321627945    2.1270412801    0.3823047856
 H   -0.4641958312    1.8399003951   -1.0598612050
 H   -1.1800704762    1.6870049313    0.5574338473
 H   -0.7395751728   -0.5585790370   -0.4053285901
 H    2.1784698086   -1.8902663330    0.1891772674
 H    2.8623252846   -0.3000034824    0.6402503869
 H    0.2152618308   -1.4871627014    1.5947983312