24

 C   -0.0208193189    1.4525060851   -0.2560616451
 C    0.1553592139   -0.0322885889   -0.0210209138
 C    1.5260327210   -0.6635893346    0.0610726422
 C    0.6435347120   -0.6280375966    1.2878602990
 C    1.0348292416    0.2696402530    2.4465549761
 C   -0.0146288915   -1.9374479729    1.6906529018
 N    0.8767550548   -2.8010577252    2.4660992956
 C    0.7354882205   -2.7614690140    3.9185221810
 C    0.2391183639   -3.9269681093    3.1393547758
 H    0.7839570531    2.0405279633    0.1932494151
 H   -0.0200087073    1.6724713218   -1.3295615743
 H   -0.9692953414    1.8168632818    0.1552142121
 H   -0.5969436968   -0.6334578983   -0.5283573643
 H    1.7001667541   -1.6189626173   -0.4224419035
 H    2.3834470171    0.0026840192    0.0429360679
 H    1.4835003276    1.2058652131    2.1063091247
 H    0.1653369276    0.5243503381    3.0655348380
 H    1.7678454096   -0.2282525211    3.0888056715
 H   -0.9531779723   -1.7282108412    2.2408436487
 H   -0.2938258620   -2.4912269861    0.7864283530
 H    1.6582060328   -2.8272017209    4.4883039934
 H   -0.0139028335   -2.0931118917    4.3406079176
 H   -0.8408925841   -4.0340362310    3.0434545348
 H    0.7913452982   -4.8624952764    3.1254443326