21

 C   -0.0068258797    1.5444603960    0.1668245423
 C   -0.0587347945    0.0165905062    0.1196829487
 C   -1.4871856184   -0.5517669551   -0.0415154390
 C   -2.1140231587   -0.1204497561   -1.2959340319
 C   -2.6396121299    0.1987924399   -2.3307635769
 C   -1.5023916984   -2.0753007766    0.0474742616
 C   -1.7799270042   -2.7571414237    1.3722436087
 C   -2.8133469487   -2.7812851343    0.2841378741
 O   -3.9635349970   -2.0148430553    0.4959343966
 H    1.0225830649    1.8971859987    0.2810259110
 H   -0.4148565584    1.9806467133   -0.7498145784
 H   -0.5883971811    1.9342456710    1.0097405123
 H    0.5623336454   -0.3541598846   -0.7045032094
 H    0.3590116804   -0.4037990246    1.0417785464
 H   -2.1023946672   -0.1631520900    0.7798284484
 H   -3.0950119685    0.4958812319   -3.2430836020
 H   -0.8040104858   -2.5644760797   -0.6264006200
 H   -1.2517910032   -3.6731350933    1.6118961741
 H   -1.9976856215   -2.1206870456    2.2237070588
 H   -2.9816005346   -3.7243107148   -0.2355014096
 H   -4.1500134008   -1.5421964633   -0.3246294860