19

 C    0.0363060368    1.4823467387   -0.0725462788
 N    0.0405314932    0.0452177779    0.0893917330
 C    0.5388030547   -0.6435310753   -0.8452361639
 N    0.6025682902   -2.0265956236   -0.8289757072
 C    1.1394150993   -2.9577125328   -1.8475275658
 C    2.6339605447   -2.8438353271   -2.1078553841
 C    0.6653234966   -4.1243296771   -0.9347060056
 C    0.1445159673   -3.0396045961    0.0280845331
 O   -0.4288519796   -3.0187368338    1.0760545004
 H    0.5815181395    1.9461296644    0.7576792207
 H    0.4836948668    1.8272424315   -1.0200897770
 H   -0.9936312695    1.8539100758   -0.0201437065
 H    0.9703864758   -0.2186651050   -1.7655455488
 H    0.5780013234   -2.8947341465   -2.7867984877
 H    3.1985096806   -2.9216700822   -1.1733915554
 H    2.9608644554   -3.6439756128   -2.7795477508
 H    2.8855713721   -1.8890055654   -2.5808427306
 H   -0.1148162619   -4.7668058067   -1.3466569195
 H    1.4654330845   -4.7412258640   -0.5198474056