25

 C    0.2812451494    0.9881114811    0.8310547315
 C    0.0315555281   -0.3714845025    0.1736917116
 C    0.5356928981   -0.4588156835   -1.2731808673
 O    1.9358657259   -0.1551950944   -1.2929720046
 C    2.2901737343    1.0201930760   -1.9871089938
 C    0.3276782167   -1.8512599260   -1.9035031417
 C   -1.1364519810   -2.3109789242   -1.8836728163
 C    0.8759735434   -1.8889661396   -3.3401814296
 O    0.7966787018   -3.1801097568   -3.9316129223
 H    1.3497257974    1.2171188278    0.8568975413
 H   -0.2277351804    1.7941524493    0.2899330747
 H   -0.0899845002    0.9971937999    1.8603975545
 H    0.5272864888   -1.1581791332    0.7568984912
 H   -1.0402798608   -0.5944387842    0.1902251818
 H   -0.0041801265    0.2853427242   -1.8819627979
 H    3.3764794205    1.1223081863   -1.9108615313
 H    2.0186620142    0.9702958358   -3.0525128802
 H    1.8237891923    1.9169092241   -1.5545442472
 H    0.9304877611   -2.5555233710   -1.3093106089
 H   -1.7951314032   -1.5446926385   -2.3113444645
 H   -1.2408173536   -3.2136722475   -2.4903371845
 H   -1.4905677829   -2.5334947884   -0.8741847369
 H    0.2737877171   -1.2367478538   -3.9851613325
 H    1.9067944704   -1.5149813934   -3.3514215849
 H    1.4069929193   -3.7540644877   -3.4574866123