18

 C   -0.7521622954    1.2148502241   -0.0606955724
 C    0.0067670445   -0.1036097970   -0.0550159764
 C    1.3765008047   -0.1455962960   -0.7600000982
 O    1.8813408925    0.5258576387   -1.6163161934
 C    1.9884538617   -1.0477598546    0.3227425671
 O    3.3080938292   -0.8206144515    0.7134230637
 C    0.7935990654   -0.5801728627    1.1898359176
 C    0.8863605126    0.0891111305    2.5010115380
 N    0.3232623634   -1.2782312916    2.3746217107
 H   -0.1105782157    2.0385352204    0.2647104664
 H   -1.1078481548    1.4461572723   -1.0687887563
 H   -1.6230617504    1.1746437137    0.6019565290
 H   -0.6259275725   -0.9212506357   -0.4271122795
 H    1.8649855353   -2.1126155223    0.0822690209
 H    3.5869992407    0.0185238758    0.3277659949
 H    1.8481934177    0.1360003279    3.0031225280
 H    0.2105966240    0.9132381741    2.7138782575
 H   -0.6930372531   -1.2357066760    2.4262627025