22

 C   -0.1236210205    1.4793336613   -0.0042181998
 C   -0.1492858687   -0.0563662761    0.0347087216
 C   -1.5929607038   -0.5817756365    0.0182553167
 C    0.6362406540   -0.6291571986   -1.1437729128
 C    2.1999974483   -0.5898411637   -1.2190285013
 C    2.2393557684   -1.7624663139   -0.1941565448
 C    1.1076272448   -2.1214191145   -1.2027758638
 C    2.0875609299   -1.6768387167   -2.3269862178
 H    0.8995664519    1.8650224673    0.0468909134
 H   -0.5746549757    1.8544338200   -0.9308833495
 H   -0.6857958197    1.9053192990    0.8335312390
 H    0.3103256435   -0.3737101759    0.9781143811
 H   -2.1041211326   -0.2912513788   -0.9075696906
 H   -1.6233433380   -1.6739340467    0.0856663367
 H   -2.1703845982   -0.1769588591    0.8561301256
 H    0.1586984819   -0.2984726463   -2.0770448333
 H    2.8394056284    0.2948002592   -1.2331475498
 H    3.1293617219   -2.3975754363   -0.2255596808
 H    1.9559401263   -1.5493762591    0.8373212560
 H    0.4793788467   -3.0141187569   -1.1980353307
 H    1.6415017455   -1.3687745245   -3.2769777544
 H    2.9680490757   -2.3064675532   -2.4809955407