12

 N    0.0593029828    1.3740744201   -0.1246482189
 C   -0.0883368605    0.0192549350   -0.0489912833
 C   -1.2440271977   -0.6802887705   -0.0231549711
 C   -1.1965594976   -2.1161585659   -0.0039270897
 N   -2.2120980037   -2.8754794261    0.0163267770
 O    0.0925427776   -2.6654223247   -0.0065487054
 N    1.2601787471   -1.8684800111   -0.0152170630
 N    1.1600018385   -0.6397642037   -0.0386455487
 H    0.9686556990    1.7340802020    0.1176869485
 H   -0.7280605875    1.9561614749    0.1076907982
 H   -2.2190386214   -0.2107242902   -0.0207030822
 H   -1.9344677366   -3.8569991097    0.0289186987