20

 C    0.2179795808    1.5412914025   -0.3985617532
 C    0.0867641676    0.0770665700   -0.0565772403
 N    1.3272127761   -0.7113192054    0.0729704513
 C    0.4634556817   -0.5260239248    1.2498554745
 C    1.0568204022    0.2496967402    2.4079188545
 O    0.0447317678    0.8147560132    3.2345122231
 C    2.0229378301   -0.6237205311    3.2234385443
 C    2.6165392812    0.1415109397    4.3847366249
 O    2.6110053242   -0.2329945720    5.5283534225
 H    1.1087023213    1.9816494843    0.0541614314
 H    0.3002524930    1.6720330502   -1.4826849546
 H   -0.6584658088    2.0992692867   -0.0535079987
 H   -0.7464424242   -0.4176952637   -0.5554559137
 H    1.2127330330   -1.6419265579   -0.3180254750
 H   -0.1352718981   -1.3809454627    1.5712838839
 H    1.6114483669    1.1068765124    2.0143498464
 H   -0.4108426826    0.0963577490    3.6878205673
 H    1.5229998135   -1.5190598116    3.6118402451
 H    2.8370682603   -0.9463347683    2.5601502459
 H    3.0828386639    1.1133568792    4.1002900004