19

 O    0.1364947971    1.4154648855   -0.3982187286
 C    0.0600168667    0.0314898888   -0.1421853051
 C   -1.4000564650   -0.4290702819   -0.0722548643
 O   -2.0837752839    0.0159186850   -1.2539755205
 C   -1.5330437629   -1.9311451431    0.0980869974
 C   -1.3531145177   -2.6785741891    1.4539946326
 C   -2.7138743818   -2.1402273855    1.9577204681
 C   -2.8646153959   -2.6287514500    0.4976716270
 O   -2.0708050003   -3.8293989471    0.8594175239
 H   -0.5459527170    1.5887357752   -1.0603474093
 H    0.5852540899   -0.5552270365   -0.9188117878
 H    0.5682723729   -0.1592900925    0.8097846666
 H   -1.8885960473    0.1179474862    0.7389199118
 H   -1.7978299371   -0.5434174161   -1.9865468890
 H   -1.0314510101   -2.4676732852   -0.7159908480
 H   -0.4393069958   -2.8908320400    2.0097074203
 H   -3.2020566639   -2.7740494044    2.6981809288
 H   -2.8210266959   -1.0770126720    2.1780842231
 H   -3.7661137019   -2.7810498775   -0.0952975769