16

 C    0.0781113477    1.5861678848   -0.0633787138
 C    0.0696079229    0.0730787847    0.0266883493
 N    1.0239088129   -0.6341499753   -0.8633487369
 C    1.3880820624   -1.5840016155    0.2072423940
 C    0.7726787894   -0.6037520048    1.2532756170
 O    1.6890437555    0.2821419115    1.8491449323
 C   -0.1070376252   -1.2064988514    2.2602710397
 N   -0.7803250979   -1.6927566811    3.0647271329
 H    1.0884098047    1.9723715752    0.0770382136
 H   -0.2818042473    1.8966910089   -1.0497972212
 H   -0.5803562806    2.0251694151    0.6928303241
 H   -0.9573621627   -0.3110642453   -0.0500179527
 H    0.6116124420   -1.0544815148   -1.6882837314
 H    0.8643599289   -2.5482131485    0.1839388012
 H    2.4640858741   -1.7555827570    0.3196754728
 H    2.2012094031   -0.2006026966    2.5077126492