23

 C    0.0949156948    1.5110569252   -0.0043385849
 C   -0.0966345541    0.0048091844   -0.0678921857
 O    0.6985853283   -0.4989227253   -1.1258074174
 C    0.7091953161   -1.9115755612   -1.2611527919
 C   -0.5549809390   -2.4192748029   -1.9610170359
 C    1.9904862795   -2.2731897372   -2.0434229431
 C    3.2525475187   -1.7217503837   -1.3557866436
 C    2.1274675363   -3.7779779712   -2.1593140598
 O    2.2189954477   -4.3964474763   -3.1878732364
 H    1.1448879823    1.7588822885    0.1755462879
 H   -0.2100419754    1.9758464842   -0.9461248340
 H   -0.5069356964    1.9371132173    0.8039301573
 H    0.2028437001   -0.4649021907    0.8839067404
 H   -1.1596839439   -0.2338976518   -0.2253393988
 H    0.7764130906   -2.3681718735   -0.2571359407
 H   -0.6369771380   -1.9771859362   -2.9586306687
 H   -0.5348812324   -3.5082762012   -2.0702566732
 H   -1.4534183872   -2.1607596319   -1.3943381277
 H    1.9091151127   -1.8689633881   -3.0578059871
 H    3.1467923859   -0.6465132736   -1.2061726856
 H    3.4035506298   -2.1889902042   -0.3752959892
 H    4.1427768084   -1.9120702480   -1.9617520600
 H    2.1680169351   -4.3025858028   -1.1728701619