16

 O   -0.0111382877    0.2393875724   -0.7381770941
 C   -0.0140403989    1.1883095518   -0.0126629582
 O   -1.2026921236    1.6950346982    0.3979477852
 C   -1.4264521893    2.8111139381    1.2748795109
 C   -0.7842562282    4.0763981205    0.7648281280
 N   -0.0395286196    4.8615978521    1.7639625732
 C    0.6984412980    4.0965825297    0.7443626981
 C    1.3886721483    2.8494398040    1.2360190579
 O    1.1712568931    1.7273512794    0.3651790143
 H   -2.5147821181    2.8964272765    1.3075578794
 H   -1.0794804153    2.5893082551    2.2868301595
 H   -1.3114159193    4.6035653660   -0.0251101545
 H   -0.0563858770    5.8468365896    1.5146570003
 H    1.1890554978    4.6376089344   -0.0596233639
 H    2.4747636756    2.9643582273    1.2386775795
 H    1.0759299242    2.6186502850    2.2570770744