19

 O    0.1288316361    1.2286359681    0.0552519415
 C   -0.0145230052   -0.1570951265    0.2286375545
 C   -0.8698322833   -0.6820208125    1.3649678301
 C   -1.4008024978   -0.6664372926   -0.0579038506
 O   -2.3542295807    0.3087445043   -0.3682723485
 C   -1.6596088728   -1.9334067809   -0.8322036897
 C   -0.7897598696   -3.1733220900   -0.5293663309
 O   -1.8848081155   -3.8459258939    0.1184162196
 C   -2.8109499587   -2.8118463703   -0.2849373609
 H    0.5364865393    1.5978106449    0.8452452999
 H    0.8486497434   -0.7416869989   -0.0855397360
 H   -0.5894124598   -1.6196088151    1.8332775038
 H   -1.3088162071    0.0536176644    2.0309677560
 H   -1.8775678076    1.1511577417   -0.3898219359
 H   -1.7439481471   -1.6785099202   -1.8908285145
 H   -0.4484543686   -3.7100045504   -1.4244559345
 H    0.0674765254   -3.0397721862    0.1419265996
 H   -3.3648037665   -2.3996594911    0.5651717650
 H   -3.5199539140   -3.1715102849   -1.0410782085