17

 C   -0.0536613631    1.4758420034    0.0417174963
 C   -0.0095603038   -0.0206698643   -0.0281506872
 C   -0.0561728885   -0.7211547097   -1.1684346051
 C    0.0582265783   -2.2270134816   -1.0673516303
 O    1.0764194940   -2.5590076244   -0.0737306679
 C    0.1268945206   -2.2907895078    0.9982862666
 C    0.1041816134   -0.7821511285    1.2853319023
 C   -0.9774656835   -2.6708576532   -0.0136539736
 O   -2.0520803301   -3.1824511096    0.0166845767
 H    0.8495955223    1.8714692205    0.5240629139
 H   -0.1355528377    1.9247857939   -0.9513032756
 H   -0.9035637068    1.8184009048    0.6456752542
 H   -0.1769122650   -0.2490530433   -2.1377289534
 H    0.1846423528   -2.7604994781   -2.0096990428
 H    0.2883541590   -2.9164717306    1.8792039394
 H    1.0084724312   -0.4798550312    1.8310112093
 H   -0.7468060832   -0.5435100604    1.9382244472