18

 C    0.1453874687    1.6029269976   -0.0360495403
 C    0.0068812888    0.0771781972    0.0385868400
 C    0.5911886396   -0.6743178930   -1.1916930752
 C    1.3935778141   -1.8443285035   -0.6148665377
 C    1.4587737853   -3.1885984405   -1.2117539231
 O    2.5604067645   -2.2872522189   -1.3269198414
 C    1.5009119244   -1.5864811512    0.8445423688
 C    0.7502571414   -0.5458012318    1.2027252446
 H    1.1974039218    1.8941026291   -0.1264338049
 H   -0.3923193466    2.0041330079   -0.9014977916
 H   -0.2610896193    2.0823743299    0.8609814641
 H   -1.0629271444   -0.1572126326    0.1381498957
 H   -0.1796162554   -0.9965802680   -1.8960509548
 H    1.2832684241   -0.0253417719   -1.7389049728
 H    1.6290920378   -4.0606188219   -0.5797719441
 H    0.9157357604   -3.3891720707   -2.1356525166
 H    2.1118028136   -2.2014549481    1.4948143127
 H    0.6445700214   -0.1687755496    2.2148752966