20

 C    0.1041666165    1.5202353321   -0.0826475684
 C    0.4119187763    0.0476330102    0.0423951467
 N    1.7627452176   -0.3295232744    0.4926530194
 C    0.6026596176   -0.6760721182    1.3304851310
 C    0.5288172313   -0.0216444172    2.7031134906
 C    1.4834583241   -0.7350275843    3.6417241613
 O    1.1881013874   -1.7624263722    4.2179017861
 C    2.8774430209   -0.1576675388    3.8057333802
 O    3.6801735457   -0.9718824756    4.6068431077
 H    0.5911657172    2.1016580635    0.7030801282
 H    0.4636953241    1.9011603170   -1.0442033589
 H   -0.9753459218    1.6985831186   -0.0321750656
 H   -0.0189329620   -0.5599781161   -0.7532533351
 H    2.1058778792   -1.1439399406   -0.0080860529
 H    0.2945024365   -1.7201293711    1.3446364862
 H    0.7888519709    1.0369180891    2.6305728506
 H   -0.4863530475   -0.1166480399    3.1007486883
 H    3.3027852532   -0.0209524366    2.7978712134
 H    2.7718097809    0.8557145818    4.2327868099
 H    3.0946704717   -1.6915008173    4.8932531214