21

 C    0.1633543473    1.3290137915   -0.5212506165
 C   -0.0170274022    0.0173467038    0.2135759062
 C    1.1236162481   -0.9584605492    0.3672747706
 C    0.5597352565   -0.2600194448    1.5865494140
 C    1.3981915502    0.7491058956    2.3520424540
 N    2.4055507247    0.1886055338    3.2596972974
 C    1.8483801694   -0.5559522076    4.3825981697
 C    2.9110076937   -1.0079621581    5.2870876432
 N    3.7448926694   -1.3885720081    5.9897752390
 H    1.1705272582    1.7378825033   -0.4011208988
 H   -0.0015963610    1.1890512398   -1.5950731069
 H   -0.5476883611    2.0864342342   -0.1729667358
 H   -0.9904565147   -0.4366634672    0.0443523326
 H    0.9388305263   -2.0186023550    0.2329104303
 H    2.0991834261   -0.6332367377    0.0149224129
 H   -0.0765671408   -0.8744420471    2.2192162613
 H    1.9335880540    1.4004698484    1.6547382313
 H    0.7487722882    1.4032643700    2.9487359475
 H    3.0371620379   -0.4123206325    2.7388848729
 H    1.1808690373    0.1098502954    4.9443879679
 H    1.2490787523   -1.4418774486    4.1093971473