18

 C   -0.2371032602    1.5871088979    0.0384040402
 C    0.0095081907    0.0644501703    0.0024488982
 C    0.7424811028   -0.3833815425   -1.2789021618
 N    1.9809495543    0.3295271213   -1.5772123197
 C    2.9706031161    0.1684667932   -0.8151105085
 O    3.0331867653   -0.6014077847    0.3157038391
 C    2.2210004065   -0.2279691563    1.4316465719
 C    0.7006474241   -0.3786869096    1.2853443791
 O    0.0718776257   -0.7795722936    2.2378679859
 H    0.6994143093    2.1509363999    0.0320102179
 H   -0.8099957241    1.8905094896   -0.8431730406
 H   -0.8060933575    1.8626678488    0.9303205625
 H   -0.9635862103   -0.4378748589    0.0195279393
 H    0.9424201183   -1.4620892016   -1.2175991091
 H    0.0649300800   -0.2256684239   -2.1235416256
 H    3.9336103263    0.6178257897   -1.0609224640
 H    2.5329414849   -0.8657999957    2.2592417877
 H    2.4287092878    0.8172464861    1.7078567576