19

 C   -0.1237094766    1.5482941409   -0.0303041145
 C    0.0452213633    0.0532921708    0.1105882584
 O   -1.1355348605   -0.6579653048   -0.1932430402
 C    1.2878967994   -0.7252252066   -0.2460499309
 C    2.5744038219    0.0017305166    0.1669393517
 C    2.0605002941   -0.0145812764    1.6582735745
 C    2.0489206810    1.2635144299    2.4549247377
 O    1.0744195557    1.7709186435    2.9495994305
 C    0.7619368804   -0.6778937468    1.2076115205
 H    0.7940432397    2.1045883457    0.1649252439
 H   -0.4418961859    1.7905029633   -1.0527191907
 H   -0.8871175296    1.9080655361    0.6641815446
 H   -1.3367453936   -0.5037518003   -1.1229258555
 H    1.2361457730   -1.5479717923   -0.9488635701
 H    3.4754548739   -0.5991129902    0.0340324965
 H    2.7453293612    0.9838061706   -0.2852671769
 H    2.6835023912   -0.7190603743    2.2244381275
 H    3.0578827136    1.7274152315    2.5751060846
 H    0.2299749478   -1.4430542473    1.7581806885