13

 O    0.2415368779    1.0865532218   -0.6703566785
 C   -0.0760735279    0.1209048376    0.2998993853
 C   -1.4327226522   -0.4909595290    0.0937360968
 C   -2.2116998819   -0.6667241003   -1.0219451339
 C   -3.3670857271   -1.3392334505   -0.5168457199
 N   -3.2899247826   -1.5463146193    0.7677820580
 O   -2.0551817500   -1.0028252420    1.1539988320
 C   -1.9086473301   -0.2981421716   -2.3525316173
 N   -1.6441718027   -0.0160948638   -3.4445005007
 H    0.3983086784    0.6551371063   -1.5176277750
 H    0.6718375262   -0.6860528947    0.3561542972
 H   -0.0705369637    0.6240229281    1.2721041539
 H   -4.2394713844   -1.6677278226   -1.0627776480