20

 C   -0.4514365320    1.1919046134   -0.3003932554
 C    0.1830847823   -0.1753153664   -0.1144720911
 O    0.4307418789   -0.3711058984    1.2692866205
 C    0.9758531171   -1.6181025582    1.5777860541
 C    2.5020697647   -1.8462784081    1.3608379208
 C    2.5545799374   -2.5215712559    2.7735961791
 C    1.1709972420   -1.8572639743    3.0873387462
 C    2.5147433443   -3.9752418640    2.7309048661
 N    2.4771228692   -5.1305963851    2.6908367732
 H    0.2161015987    1.9779899798    0.0636609327
 H   -0.6581998326    1.3746159596   -1.3589592279
 H   -1.3915162570    1.2566237650    0.2545592446
 H   -0.4833923121   -0.9689799123   -0.4902151690
 H    1.1232915477   -0.2452488966   -0.6846037384
 H    0.3923283144   -2.4270249767    1.1123436534
 H    2.8307356676   -2.4441777569    0.5102632228
 H    3.0379415129   -0.8942092756    1.3779112041
 H    3.3828161575   -2.2127101989    3.4143517611
 H    1.3159627134   -0.9055540310    3.6030128187
 H    0.4298782457   -2.4560640796    3.6168324443