24

 C    0.0269703130    1.4677870081   -0.2198365194
 C   -0.0946947885   -0.0574182865   -0.2749417574
 C   -1.4541243474   -0.5709242917    0.2117617427
 C   -1.5833312997   -2.0964460473    0.1591256571
 C   -2.9482250808   -2.5888869659    0.6548283415
 N   -3.0796308795   -4.0358097198    0.6299240724
 C   -3.8708984887   -4.6925728528   -0.2704256730
 C   -3.8337659267   -6.2113088588   -0.1754776025
 O   -4.5613414733   -4.1161090328   -1.0919846943
 H    1.0072635306    1.8038302831   -0.5719516278
 H   -0.7338848943    1.9481264646   -0.8450374272
 H   -0.1047884755    1.8390526489    0.8026800312
 H    0.0740193408   -0.4022203216   -1.3035080125
 H    0.7011843351   -0.5112234302    0.3306052927
 H   -1.6246275646   -0.2249919009    1.2411879546
 H   -2.2512326525   -0.1186566024   -0.3941914689
 H   -1.4331280129   -2.4509239066   -0.8680513817
 H   -0.7875897007   -2.5529995400    0.7649458029
 H   -3.1290689759   -2.2254827051    1.6750933103
 H   -3.7474024664   -2.2038266963    0.0170047790
 H   -2.5071196062   -4.5785252547    1.2549278063
 H   -3.2326909559   -6.5893696311    0.6559379551
 H   -4.8572502991   -6.5801740763   -0.0732260829
 H   -3.4350631908   -6.6125323639   -1.1114763183