16

 O   -0.0242635171   -0.0381143928    0.1306522857
 C    0.0107251919    1.1742655873    0.0858264464
 N    1.1499053147    1.9050433467    0.0296161262
 C    2.5126450453    1.3482752821    0.0149569719
 C    3.2891132215    2.6601128660   -0.0516007242
 C    2.5620593667    3.7301748866    0.8267614437
 O    2.9023791755    4.7946399578   -0.1178806603
 C    2.5164710098    3.6662418132   -0.9658881011
 C    1.3155910308    3.3320514775   -0.0254202359
 H   -0.8946644900    1.8136548607    0.0861853089
 H    2.7131098672    0.7627441501    0.9178279061
 H    2.6682523945    0.6995302168   -0.8528706901
 H    4.3762980248    2.6486832529   -0.0788441311
 H    2.6472041651    3.9341454014    1.8938586928
 H    2.5470015736    3.7935710156   -2.0477407584
 H    0.4090190956    3.9319998580   -0.0237764505