17

 C   -0.2750490747    1.4642693523   -0.3977053514
 O   -0.3571810025    0.0569370679   -0.4353769830
 C    0.9030483219   -0.5412954159   -0.6515153839
 C    0.7690177533   -1.9924776265   -0.6756340336
 C    0.6799282086   -3.1906626967   -0.6986802394
 C    0.5681913547   -4.6494540519   -0.7152586948
 N    0.5939629072   -5.1713319789   -2.0870578184
 C    1.6093878212   -5.2491526347    0.1613118531
 N    2.4222903720   -5.7658973461    0.8001729036
 H    0.3780621693    1.8140943862    0.4172946054
 H    0.1057122047    1.8771311877   -1.3452446299
 H   -1.2860237902    1.8401317944   -0.2281288935
 H    1.3404678547   -0.1968256312   -1.6050871697
 H    1.6139939495   -0.2519418490    0.1421077998
 H   -0.4028714008   -4.9255196950   -0.2819644425
 H    1.4804171598   -4.9323378632   -2.5222263115
 H    0.5391515412   -6.1860408394   -2.0625685703