17

 O   -0.0962320630    1.3345208526   -0.3861433042
 C   -0.0125372758   -0.0217036467   -0.0279121973
 C    0.0559237264   -0.3831258263    1.4951197689
 N   -1.2030111566   -1.1793489703    1.3940459994
 C   -1.3759730675   -0.7332908044    0.0023849145
 C   -2.6440258013   -0.1573578413   -0.5444501393
 C   -2.0891245665   -1.4585885440   -1.0896042796
 C    1.0010874990   -0.7169373578   -0.8351899623
 N    1.8117001237   -1.2506092222   -1.4639202576
 H    0.7938034992    1.6977215899   -0.4582066683
 H    0.9394419243   -0.9347161839    1.8237419053
 H   -0.0754302060    0.5122046090    2.1100240762
 H   -0.9982971668   -2.1737912486    1.4303851240
 H   -3.5125735198   -0.2068490021    0.1028967069
 H   -2.5670723330    0.7330625174   -1.1575181667
 H   -1.6408322533   -1.4629638622   -2.0779931461
 H   -2.5968708530   -2.3798728590   -0.8223557138