19

 C   -2.4735903822    0.8014730697   -1.7443319051
 C   -2.1288452987   -0.6583182591   -1.5659235022
 O   -2.2335035705   -1.5108079958   -2.4051626945
 O   -1.6574455281   -0.8718513589   -0.3031481048
 C   -1.2542350330   -2.2003174904    0.0404130544
 C   -0.0603575660   -2.7333403255   -0.7098159242
 C   -1.4181647684   -2.4641741545    1.5214462800
 C   -2.3796313904   -3.0773566623    0.5261993497
 O   -3.7052900441   -2.6588804239    0.4543807898
 H   -2.9274939731    0.9475232961   -2.7236014228
 H   -3.1559666345    1.1362702399   -0.9584432456
 H   -1.5659675968    1.4071427602   -1.6637431261
 H    0.8044286834   -2.0747166604   -0.5714870658
 H    0.2061654255   -3.7197781428   -0.3192747497
 H   -0.2727521714   -2.8273576062   -1.7756516221
 H   -0.6821078659   -3.0878768345    2.0173988997
 H   -1.7976249985   -1.6425293245    2.1204185885
 H   -2.3123720952   -4.1409107728    0.3228780344
 H   -3.7137880920   -1.6962126442    0.4882894363