18

 C    0.0344097484    1.5641872048    0.0157258073
 C    0.0593880195    0.0366566462   -0.0325721477
 N    0.8738909994   -0.4487819134   -1.1448226136
 C    0.8492856924   -1.8993184308   -1.2783627211
 C    1.3844691329   -2.5634944694   -0.0094202634
 O    1.5189984351   -3.7567774424    0.0875636621
 C    1.7018164798   -1.5897134553    1.1189984685
 C    0.6054659719   -0.5425870560    1.2816598044
 O    0.1794992744   -0.2025016025    2.3571634129
 H    1.0532246748    1.9620581561    0.0379914922
 H   -0.4756661270    1.9715665035   -0.8629371257
 H   -0.4942287672    1.8934240621    0.9119894887
 H   -0.9864868719   -0.3286433469   -0.0892561915
 H    0.5858345853   -0.0054878211   -2.0091282263
 H   -0.1565760668   -2.3240054530   -1.4585603041
 H    1.4799526547   -2.2094829585   -2.1175164942
 H    1.8932256003   -2.1127404699    2.0554228586
 H    2.6045858641   -1.0419700036    0.8100733030