19

 C    0.1230203733    1.5693109591   -0.2015749697
 C    0.0383228820    0.0550876773   -0.0131534722
 C    0.7586143548   -0.3984440903    1.2545006126
 O    1.3046448867    0.3998128642    1.9962105092
 N    0.7699169453   -1.7530218536    1.5298374770
 C    0.1916720243   -2.8016067054    0.7066371944
 C    1.4722786610   -2.1863388566    2.7258161159
 C    0.5790853118   -2.8387487244    3.6944357502
 N   -0.1282607805   -3.3696673772    4.4378431697
 H    1.1624695029    1.8958959633   -0.2778998261
 H   -0.4050485421    1.8664403640   -1.1119515641
 H   -0.3208708658    2.0930076270    0.6476643863
 H   -1.0099663209   -0.2643697647    0.0382644165
 H    0.4695230265   -0.4628439938   -0.8785928842
 H   -0.3852326947   -2.3778565820   -0.1113994854
 H    0.9742009008   -3.4446625429    0.2815607827
 H   -0.4775291547   -3.4292787483    1.3060294316
 H    2.2766631651   -2.8897829048    2.4719905685
 H    1.9179611144   -1.2959932607    3.1763662071