18

 C    0.0319518680    1.3876690330   -0.1071145748
 O   -0.0288424377    0.0058117212    0.2059446595
 C   -1.3011795116   -0.5721480799    0.0820630252
 C   -2.2526032247    0.0003050980    1.0353021058
 C   -2.9991906653    0.5081425540    1.8308039549
 C   -1.8658601762   -0.9281816644   -1.3530078461
 C   -0.7097675360   -1.9483811424   -1.5014599651
 C   -1.3056364041   -2.1265569606   -0.0824339398
 N   -2.6713934821   -2.0540744713   -0.7379330520
 H    1.0707961542    1.6937442771    0.0314692901
 H   -0.2612711262    1.5788284450   -1.1490920251
 H   -0.6112739999    1.9800753821    0.5555894087
 H   -3.6624050688    0.9453727266    2.5363035076
 H   -2.2933359134   -0.2541039349   -2.0964451605
 H   -0.9207155352   -2.7700120502   -2.1849027295
 H    0.3028857907   -1.5598437327   -1.5723424443
 H   -1.0638445938   -2.8667411554    0.6808512719
 H   -3.3498732779   -1.6680492752   -0.0736969464