17

 C   -0.0387236189    1.4736654215   -0.1348216755
 C   -0.0356247562   -0.0239489808    0.0261423594
 C   -0.7906194226   -0.7189920054    1.1116700477
 C    0.7417192458   -0.7170053151    1.1221399225
 C    1.4651742695   -1.9920057337    0.8222527747
 O    1.9940259339   -2.6783394062    1.6508830119
 O    1.4740071743   -2.3697510594   -0.4885412172
 C    1.1804112792   -1.3475051517   -1.4462986065
 O   -0.0390758804   -0.7268040547   -1.2029882906
 H    0.8538068884    1.8129112297   -0.6708550362
 H   -0.9191066467    1.7901046947   -0.7027013310
 H   -0.0608198322    1.9690672829    0.8399974674
 H   -1.2786307554   -0.1269916019    1.8773129381
 H   -1.2908326004   -1.6423604785    0.8455582591
 H    1.2160364914   -0.1237765525    1.8946887307
 H    2.0088506231   -0.6238303084   -1.4492010616
 H    1.1115923971   -1.8518543405   -2.4104339529