16

 C   -0.0159363511    1.4119292245   -0.0720840411
 O    0.0244546464   -0.0041793634   -0.0011628509
 C    0.6294999658   -0.5771708803    1.0620506842
 C    1.2293632836    0.1279636540    2.1164539296
 C    1.8096137353   -0.6142188746    3.1360709750
 N    1.8364156454   -1.9480503615    3.1829033110
 C    1.2592422575   -2.5919477660    2.1684101503
 O    1.2831239395   -3.9411048488    2.2100642436
 C    0.6439381933   -1.9697000924    1.0871377393
 H    0.9922874362    1.8418697655   -0.1075340828
 H   -0.5422186205    1.6511888010   -0.9971109755
 H   -0.5615738543    1.8418268095    0.7764975941
 H    1.2503360965    1.2077239639    2.1535550959
 H    2.2835883549   -0.1005848903    3.9691892042
 H    1.7483915324   -4.1667823918    3.0277025761
 H    0.1905291992   -2.5436405692    0.2901498470