17

 C   -0.0699815593    1.4914185499   -0.0450471873
 C   -0.0292853606    0.0372066320   -0.0295665600
 C    0.0048817145   -1.1693418187   -0.0168812213
 C    0.0232048430   -2.5835880805   -0.0021596412
 C    1.1334435089   -3.3912070264    0.0049960103
 C    2.5878879056   -3.0983914779    0.0003934353
 O    0.7546095434   -4.6964522905    0.0189930407
 C   -0.6089433417   -4.7301430149    0.0208263587
 C   -1.1138405028   -3.4755198157    0.0083268835
 H    0.9395438681    1.9160424281   -0.0128048538
 H   -0.5578819484    1.8694403233   -0.9509045539
 H   -0.6211774821    1.8859061619    0.8163488015
 H    3.0835989737   -3.5091299781    0.8875125944
 H    3.0817230153   -3.5275593256   -0.8790076157
 H    2.7369643465   -2.0169253990   -0.0110366344
 H   -1.0515510181   -5.7121313795    0.0314306849
 H   -2.1530524858   -3.1889782984    0.0064925482