21

 C   -0.3105121397    1.5389510410    0.5062776026
 C   -0.2384835026    0.0384720268    0.6300974866
 O    0.6883493815   -0.6551059465   -0.2240372673
 C    0.8961692301   -0.7177297872    1.1927758189
 C    2.1620152811   -0.0657456138    1.7062791046
 C    0.6429987571   -2.0902450642    1.7886684671
 C    0.2712708113   -2.1657284816    3.2899971169
 C   -0.9903389798   -2.8926486953    2.7866518868
 O   -0.6181596683   -2.6802836932    1.4079393219
 H    0.6772671488    2.0024516356    0.4766229903
 H   -0.8377356722    1.8114767587   -0.4141449659
 H   -0.8707052749    1.9634897326    1.3468770998
 H   -1.2047658178   -0.4622442188    0.6841386070
 H    2.3690578625    0.8655512318    1.1782850068
 H    2.0955191320    0.1478602948    2.7784701972
 H    3.0178164306   -0.7326094327    1.5508187706
 H    1.4759358149   -2.7503475995    1.5041628013
 H    0.9434758885   -2.7428457694    3.9258089370
 H    0.0804781409   -1.1951318648    3.7523148352
 H   -1.0414127892   -3.9609171694    3.0309683288
 H   -1.9529312748   -2.4273836548    3.0280376339