16

 C   -0.3592056999    1.3355599271   -0.7886504114
 C   -0.0618918148    0.0341214815   -0.0800448079
 C    1.1236032026   -0.7652125796   -0.4509994043
 O    1.1100131081    0.0125754452    0.7479566437
 C   -1.2225771943   -0.6565578009    0.5346963229
 C   -1.2943330351   -1.2803174876    1.7363811831
 O   -2.5643362980   -1.7677045571    1.8835759201
 C   -3.1963172262   -1.4013716265    0.7480129126
 N   -2.4658101320   -0.7417376876   -0.0893180667
 H    0.5528217899    1.7502978313   -1.2240187251
 H   -1.0972497295    1.1726986407   -1.5784228484
 H   -0.7738191851    2.0656372465   -0.0864738056
 H    1.1087026342   -1.8442718293   -0.3088697618
 H    1.7873498229   -0.4021958260   -1.2349332857
 H   -0.6063478454   -1.4463221256    2.5452523151
 H   -4.2316847375   -1.6886003022    0.6526498194