21

 O   -0.0842105563   -0.0951288544   -0.2207822372
 C   -0.0568922838    1.0833257544    0.0280965115
 C    1.1732189829    1.9454571926    0.0058762881
 C    0.9674481734    3.2709869888   -0.8010372664
 C    0.7311957283    4.0400398563    0.5310398991
 C    1.3214193389    2.8199730983    1.2957359545
 C    1.3767827261    5.3849503935    0.7113426845
 C    0.6449497778    6.6476708654    0.3248151068
 C    0.8905121691    6.3347860959    1.7794246708
 H   -0.9937864957    1.6273904426    0.3032943464
 H    2.0277278109    1.3264218228   -0.2715339309
 H    1.8957218663    3.5748487237   -1.2923119612
 H    0.1643980807    3.2852755403   -1.5429510798
 H   -0.3431879184    4.1267337433    0.7310620319
 H    0.7949923462    2.4818007223    2.1924208733
 H    2.3753284202    2.9637557833    1.5486727749
 H    2.4500370016    5.3868343418    0.5305646434
 H    1.2099276979    7.4521985083   -0.1325243854
 H   -0.3687133439    6.5500170300   -0.0502778318
 H    0.0418418397    6.0269056187    2.3816805853
 H    1.6235626481    6.9251630322    2.3176776320