20

 C   -0.0212782194    1.5589364597   -0.0791434081
 C   -0.0499517420    0.0268821840    0.0196930048
 C    0.7367073138   -0.4859221623    1.2346352491
 N   -1.4246799008   -0.4806305402    0.0225523285
 C   -1.9553366480   -1.3431889431   -1.0101704142
 C   -3.3711243520   -1.5814915123   -0.5632676930
 C   -3.5993083225   -0.9317575352    0.5782353958
 C   -2.3635536070   -0.2044756853    0.9945244737
 O   -2.1977317604    0.4920490715    1.9811436089
 H    1.0122549044    1.9149337744   -0.1335134464
 H   -0.5493533857    1.9020961771   -0.9741926073
 H   -0.5004627777    1.9998857960    0.7972353753
 H    0.4085944446   -0.3856390618   -0.8869156023
 H    0.2845434786   -0.1161298626    2.1570663927
 H    0.7410091156   -1.5799446144    1.2632220620
 H    1.7741042463   -0.1404588580    1.1862926018
 H   -1.9184337482   -0.8675866128   -2.0024654609
 H   -1.3914124866   -2.2855036207   -1.0891319278
 H   -4.0599274561   -2.1988357834   -1.1248923142
 H   -4.5071494968   -0.8928189307    1.1631079516