20

 C   -0.1755450406    1.5325385155    0.1358489591
 C    0.0104409544    0.0109063073   -0.0025623474
 C    0.6891560564   -0.3749739790   -1.3416844811
 C    2.0269810104    0.2722743569   -1.5990008566
 C    3.0630657928    0.2071537143   -0.7645616351
 C    3.0365495320   -0.5393092370    0.5439765133
 O    2.0031030151   -0.1465833929    1.4658166097
 C    0.7087358368   -0.5469163769    1.2215454876
 N    0.0733120617   -1.2560855080    2.0566004016
 H    0.7871844212    2.0455687702    0.1931615838
 H   -0.7249041250    1.9269358233   -0.7255315783
 H   -0.7441800110    1.7687666692    1.0394693001
 H   -0.9746698818   -0.4630564051    0.0052486054
 H    0.7953243731   -1.4688376215   -1.3759929291
 H   -0.0025934287   -0.1143996261   -2.1488678365
 H    2.1351688540    0.8324644531   -2.5243706395
 H    3.9962014583    0.7007523596   -1.0219494261
 H    2.9544378808   -1.6232340648    0.3701409171
 H    3.9637637252   -0.3689915615    1.0951123848
 H    0.6922358952   -1.5021903165    2.8335256673