19

 C   -0.0035962820    1.5059868217    0.0409403250
 C   -0.0019784861    0.0121403997   -0.0208442688
 C   -0.0599684825   -0.7603070158   -1.1091584803
 C   -0.1075416037   -2.2374378592   -0.7787191183
 O    0.7079055581   -3.0839250438   -1.5571513379
 C    0.3047736236   -2.2229353030    0.7071065884
 C    0.4898601159   -3.4429294234    1.4880437795
 O    1.6235071252   -2.7510007761    0.9354619052
 C    0.0372875985   -0.8263580380    1.2464888775
 H    0.8910070268    1.8789410123    0.5558782790
 H   -0.0356640650    1.9510713275   -0.9568840891
 H   -0.8659735934    1.8786238596    0.6087527189
 H   -0.1162929910   -0.4042065702   -2.1317554129
 H   -1.1335776130   -2.6188444807   -0.8882661787
 H    1.5704510894   -3.0892042357   -1.1178720687
 H    0.4207826611   -3.4142822439    2.5743596277
 H    0.2730077203   -4.4060648307    1.0285459093
 H    0.8204887551   -0.5182117630    1.9486226215
 H   -0.9186322874   -0.7753196773    1.7866707727