21

 C   -0.2098946719    1.5624743858    0.4767531154
 C    0.0203364137    0.1531740855   -0.0725014631
 N    0.6209442562    0.2267409418   -1.4045633117
 C    0.3321419631   -0.6299186133   -2.4171808414
 O   -0.4624875136   -1.5459798078   -2.3620844748
 C    0.8962571594   -0.6651976813    0.8659866493
 N    0.3038064456   -1.0541221214    2.1537546322
 C    0.6870899158   -2.1039306489    1.1887990020
 C   -0.4169467233   -2.9645263895    0.6243039824
 H    0.7366529436    2.1101817537    0.5713011339
 H   -0.8731183941    2.1361524970   -0.1766355497
 H   -0.6592286913    1.4971051653    1.4702104146
 H   -0.9396869321   -0.3507221870   -0.1989448281
 H    1.3151765480    0.9381062608   -1.5748891503
 H    0.9084118713   -0.3884874801   -3.3334998778
 H    1.9324200184   -0.3212586321    0.8789585522
 H    0.9852233679   -0.9739929389    2.9029229849
 H    1.6043595241   -2.6491715232    1.4120777791
 H   -1.3582957075   -2.4139744087    0.5754547022
 H   -0.1740663380   -3.3038537564   -0.3858602531
 H   -0.5754326354   -3.8389037414    1.2647808620