21

 O    0.0759611965    1.4524145629   -0.1134965208
 C    0.0316577282    0.0257982972   -0.0241354876
 C    0.8399980464   -0.4660745963    1.1521087741
 C    0.2853184610   -1.1426584830    2.1603557687
 C   -1.1869524779   -1.4941667348    2.1646049710
 C   -1.4471301627   -2.6963697960    1.2154796494
 C   -1.4424338602   -2.0573301280   -0.2045549378
 C   -1.4135955313   -0.5191790904    0.0234570711
 C   -1.9665055659   -0.3733420555    1.4536073480
 H   -0.1037844830    1.8003884309    0.7662627236
 H    0.4960160414   -0.3122462730   -0.9596582719
 H    1.8973823810   -0.2139088995    1.1549315641
 H    0.8961435228   -1.4919836610    2.9894646713
 H   -1.5337903695   -1.6911372096    3.1822759533
 H   -0.6997952703   -3.4856674756    1.3281509683
 H   -2.4242031823   -3.1375066138    1.4396280642
 H   -0.5842040160   -2.3861681420   -0.7984948588
 H   -2.3382931060   -2.3464053469   -0.7609233987
 H   -1.9979854314    0.0231956934   -0.7234132611
 H   -3.0440071466   -0.5691955219    1.4816371011
 H   -1.7940446542    0.6149027729    1.8916166385