16

 C   -0.1520265812    1.4301385137    0.0424438499
 C   -0.0510849829   -0.0215752123    0.0256298881
 C    0.0632621751   -1.2251234481    0.0102824264
 C    0.0972843102   -2.6363147104   -0.0033938766
 C    1.1848288272   -3.4961992473   -0.0604480755
 N    0.7112133154   -4.7705895409   -0.0496379441
 C   -0.6716357825   -4.7777990130    0.0133184922
 C   -1.0730657620   -3.4665622314    0.0429961458
 O   -2.3541839521   -3.0237163416    0.1053496114
 H    0.8427129369    1.8896245741    0.0312736314
 H   -0.6981206361    1.8088019631   -0.8294624763
 H   -0.6690382312    1.7896546023    0.9397706342
 H    2.2391110900   -3.2802197291   -0.1067570353
 H    1.2831652671   -5.5949019810   -0.0827732505
 H   -1.2382106893   -5.6923616745    0.0313116029
 H   -2.3190968645   -2.0585874736    0.1116776061