21

 C   -0.0140990323    1.5215567537    0.1169540427
 C    0.0253693261    0.0295690410   -0.0011434183
 C    0.0131791878   -0.7228364415   -1.1102973104
 C   -0.0434146852   -0.2804732271   -2.5395079509
 C    0.0003568715   -2.2008621587   -0.7793992010
 C    0.3951599953   -2.2403433206    0.7247680184
 C    0.0226547777   -0.8242278621    1.2499512299
 C   -0.1862874333   -3.3412981537    1.4780284052
 C   -0.6792864466   -4.2466737540    2.0975140931
 H    0.8533034228    1.8954407772    0.6762097935
 H   -0.0274344251    2.0211592310   -0.8545771363
 H   -0.9031152623    1.8475025889    0.6729999900
 H   -0.0456125789    0.8070170018   -2.6444411744
 H    0.8107185420   -0.6719919774   -3.1070450923
 H   -0.9448259412   -0.6661308405   -3.0339969012
 H   -0.9992214257   -2.6294357268   -0.9370580505
 H    0.6893471337   -2.7882284214   -1.3974118409
 H    1.4878346600   -2.3269445136    0.7715318763
 H    0.7268154103   -0.4742658809    2.0137121975
 H   -0.9700197687   -0.8260262725    1.7214206170
 H   -1.1090216778   -5.0476695626    2.6458148027