13

 O    0.0078814366    0.0794953115    0.5162102354
 C   -0.0140506410    1.1490752415   -0.0133997453
 O   -1.1902512595    1.7559437200   -0.2885591369
 C   -1.2721480536    3.0084369475   -0.9856196954
 C   -0.0608644575    3.8737350364   -0.6967951215
 C    1.1656790195    3.0421837684   -1.0184924667
 O    1.1370842498    1.7877891031   -0.3205985068
 H   -1.3570716575    2.8045446477   -2.0610568586
 H   -2.2058789425    3.4660833343   -0.6511583526
 H   -0.0816441028    4.7789720718   -1.3111849854
 H   -0.0508818297    4.1749736395    0.3560100818
 H    1.2274572749    2.8407805809   -2.0959711214
 H    2.0950175234    3.5254330175   -0.7087069965