17

 N    0.3132550362    1.3389689203   -1.5006097087
 C   -0.1224273949    0.3595935916   -0.8375909429
 C   -1.5591852481   -0.0856196137   -0.8553888343
 C   -2.2647084996    0.2115838469    0.4569543532
 C   -3.2909551788   -0.7190615003    0.9862663491
 N   -1.9881532562   -0.5879751115    1.6598020317
 O    0.6390488060   -0.4748737545   -0.0149440916
 C    1.5927596695    0.0740417647    0.7972661228
 O    2.3691296815   -0.5987738842    1.3961130653
 H    1.3188761563    1.4779332207   -1.4004812269
 H   -2.0567376820    0.4274909446   -1.6814384595
 H   -1.5844078910   -1.1645216701   -1.0506978539
 H   -2.3780117086    1.2739563241    0.6646903928
 H   -4.1388289217   -0.3343970688    1.5453440953
 H   -3.4972153874   -1.6217029996    0.4160706335
 H   -1.3893802860   -1.3750251594    1.4216735723
 H    1.5266199049    1.1737097891    0.8409467917