24

 C    0.0352388036    1.5022593722   -0.0055395736
 C   -0.0285512135   -0.0269094476   -0.0098660042
 C   -1.4582199084   -0.5504044035    0.0171373097
 O   -1.4293494085   -1.9605240328    0.0115746253
 C   -2.7107103063   -2.5514669012    0.0359844140
 C   -2.5675428110   -4.0722976487   -0.0171811739
 C   -3.9384363013   -4.7401869826    0.1436487292
 C   -1.8668680358   -4.5190021773   -1.3059876680
 H    1.0711298304    1.8529186916   -0.0237423957
 H   -0.4735860637    1.9261089202   -0.8784693088
 H   -0.4403483514    1.9194921652    0.8890584221
 H    0.4710308766   -0.4262657622   -0.9000156513
 H    0.5063940780   -0.4327739690    0.8564345894
 H   -1.9837609365   -0.1807485593    0.9157501565
 H   -2.0204216872   -0.1747831551   -0.8563845614
 H   -3.2508282402   -2.2513796786    0.9509273617
 H   -3.3118602732   -2.1990920798   -0.8223623935
 H   -1.9369822761   -4.3597986938    0.8349143319
 H   -4.6106890269   -4.4630659601   -0.6774082661
 H   -3.8442431479   -5.8305648873    0.1370400185
 H   -4.4218768938   -4.4515837119    1.0832209988
 H   -2.4787016829   -4.2788427465   -2.1844665774
 H   -0.9043827572   -4.0147908771   -1.4173381706
 H   -1.6957258068   -5.6003644650   -1.3060596726