14

 O   -0.0938363380    1.4651356746   -0.2323692856
 C    0.0472493738    0.0739472847    0.0655342673
 C   -1.2968684538   -0.7047768483    0.1243897755
 C   -1.3630293977   -1.5618321457   -1.1662841898
 C    0.0488385497   -1.4978900526   -1.6976158218
 C    0.8180014214   -0.6519665236   -1.0127473919
 H   -0.3724508423    1.5309907194   -1.1526665681
 H    0.5561766875    0.0649677517    1.0347872567
 H   -1.3056496527   -1.3559821983    1.0033688115
 H   -2.1313703132   -0.0072939339    0.2284428709
 H   -1.6782934188   -2.5911898023   -0.9603223982
 H   -2.0784664271   -1.1729337322   -1.9035365613
 H    0.3714928068   -2.0812389801   -2.5540880106
 H    1.8573427345   -0.4251758635   -1.2226912746