14

 O   -0.0522092202    0.1528162616    0.4429330039
 C    0.0185209560    1.2812429463    0.0910308932
 O   -0.9926208767    2.0848542488   -0.3831307766
 C   -0.0797777563    3.2078205653   -0.6096470318
 C   -0.4224403464    4.4412184460    0.1917217860
 O   -0.1160743814    4.3238333869    1.5881553932
 C    1.0116319262    3.6508899460    1.9118396824
 N    1.6532526855    2.7931380316    1.2349227135
 C    1.0972881847    2.3874350586   -0.0355268858
 H   -0.0343742850    3.4381690395   -1.6771555695
 H    0.1428515807    5.2894703440   -0.2167383406
 H   -1.4888867250    4.6689288451    0.1343988903
 H    1.3432833436    3.9243835432    2.9111912702
 H    1.8963793843    2.1379968471   -0.7361501085