20

 O    0.0841613000   -0.0092793037    0.5496368726
 C    0.0115906731    1.1369572497    0.1757619661
 C   -1.3533360317    1.7908783169   -0.0669870504
 N   -1.3045607264    2.9669337487   -0.9173910600
 C   -1.3462302861    2.7064831273   -2.3539579190
 C   -0.1075689398    1.9607304913   -2.8686276088
 C    1.2440820602    2.5265082620   -2.3908356550
 O    1.8304078425    1.7970408517   -1.3231784340
 C    1.2798418308    1.9884822372   -0.0303415824
 H   -2.0469112703    1.0026745187   -0.4054535294
 H   -1.6986428588    2.1006578465    0.9286994682
 H   -2.0437338822    3.6106137876   -0.6671527738
 H   -2.2466238891    2.1393918891   -2.6553669327
 H   -1.4048613649    3.6822317709   -2.8508252204
 H   -0.1394437777    0.9014001525   -2.5888307975
 H   -0.1478838732    1.9793097220   -3.9638112463
 H    1.9792271168    2.4511726486   -3.1975904181
 H    1.1440865390    3.5884062565   -2.1217694806
 H    1.0769321011    3.0495782119    0.1604082367
 H    2.0292810567    1.6142738549    0.6720356449