20

 C    0.0216603820    1.4361668167    0.0096626812
 N   -0.0565842110   -0.0082508958    0.0023165685
 C   -0.0257924343   -0.7962680068   -1.1311618426
 C    0.0320976263   -2.1047208426   -0.7190581565
 C    0.0377419005   -3.5038452575   -1.2682475607
 C    0.4736014451   -4.3375182953   -0.0239281472
 C    0.0513421777   -3.5173520166    1.2339939982
 C    0.0398190569   -2.1123855149    0.7000249685
 C   -0.0133802743   -0.8084524765    1.1268205180
 H    1.0586981866    1.7945133389    0.0041988031
 H   -0.4885146921    1.8369730682   -0.8699881612
 H   -0.4757662563    1.8271152598    0.9009536186
 H   -0.0399464403   -0.3395734797   -2.1086095501
 H   -0.9632620661   -3.8051541260   -1.6068622269
 H    0.7132273155   -3.6542292920   -2.1168525854
 H    0.0568768665   -5.3486196243   -0.0271246074
 H    1.5643989100   -4.4360065959   -0.0303883237
 H   -0.9459101799   -3.8223753244    1.5802653701
 H    0.7360586902   -3.6768348533    2.0734930199
 H   -0.0167544329   -0.3623186119    2.1092289054