15

 C    0.0188264554    1.4341680635   -0.2293963456
 C   -0.1479067264   -0.0235281532    0.0932449238
 N   -1.2859880703   -0.5891932530   -0.1236021114
 C   -1.4693614338   -1.9529455810    0.0720194463
 N   -2.4255887091   -2.4299784553    0.7610154388
 C   -0.4619047116   -2.7461017613   -0.7022548764
 N    0.7898240776   -2.7077472528   -0.4391031785
 C    1.2938630305   -1.8247727882    0.4973986246
 N    0.9659319380   -0.5965956333    0.6995181972
 H    0.8701619758    1.5750003053   -0.9038369224
 H   -0.8876791229    1.8278566522   -0.6877203550
 H    0.2460294754    1.9893144133    0.6860293037
 H   -2.4289172431   -3.4507493472    0.7080211405
 H   -0.8018604496   -3.3838802913   -1.5217420724
 H    2.1550933740   -2.2105246878    1.0423499268