15

 N   -0.0589587667    1.2279929361    0.0073408129
 C   -0.0249177691   -0.0292838289    0.0007378355
 C   -1.2632210255   -0.9517528780    0.0025878741
 C   -0.5816343211   -2.2754849395   -0.0078025880
 C    0.7689827420   -2.1076676178   -0.0141243113
 O    1.1492438454   -0.7768601065   -0.0093240153
 C    1.4165670262   -3.3605837774   -0.0239967174
 C    0.3833222156   -4.2850990939   -0.0233603924
 N   -0.8257410715   -3.6232339586   -0.0134177468
 H    0.8854549966    1.6163100706    0.0043119719
 H   -1.8739127618   -0.7419534575    0.8883336599
 H   -1.8832759339   -0.7329365366   -0.8744284262
 H    2.4711354975   -3.5807158127   -0.0307224990
 H    0.4185579494   -5.3622130050   -0.0291462264
 H   -1.7251800531   -4.0702053844   -0.0108849816