17

 N    0.0326273191    1.3116796612    0.2259097373
 C    0.0716516539    0.0010027983   -0.1145553610
 O    1.0927506208   -0.5875660211   -0.4274306394
 C   -1.2821649739   -0.7159604631   -0.0933337084
 O   -2.2624734516    0.1969887146    0.3594976552
 C   -1.5447834883   -1.4705747362   -1.4359294987
 C   -1.0200775617   -2.7720724136   -0.7739705026
 C   -1.1837661487   -2.1031466488    0.6163551318
 H    0.8934381613    1.8319506488    0.2375937943
 H   -0.8359237112    1.7410084260    0.4933111081
 H   -3.1181418711   -0.2413067214    0.3406599719
 H   -2.6210176489   -1.5089473916   -1.6370740311
 H   -1.0290783019   -1.1019706002   -2.3241732791
 H   -1.5899982873   -3.6852790383   -0.9562927670
 H    0.0302509703   -2.9395469653   -1.0095152974
 H   -0.3806324286   -2.2321287141    1.3433693721
 H   -2.1408604120   -2.3482487853    1.0890767440