21

 C   -0.0376107790    1.5064844509    0.0547527859
 C   -0.0441137194    0.0179518930   -0.0268182649
 C   -0.0539166434   -0.7893539802   -1.0888314964
 C    0.0288967885   -2.2505206852   -0.5899880805
 C   -0.3623754274   -3.3342058394   -1.5797430313
 C   -0.8320111113   -2.0775617641    0.7029373312
 C    0.0493967474   -0.9032296096    1.2158990387
 C    1.4189708530   -1.6100035370    1.1669603376
 C    1.4085096679   -2.4020860176    0.0960776926
 H    0.8817798583    1.8716208193    0.5326347569
 H   -0.1078811462    1.9653913032   -0.9356497492
 H   -0.8714003605    1.8802302279    0.6631496934
 H   -0.0564066096   -0.5087823761   -2.1352046023
 H    0.3149619622   -3.3488072317   -2.4412210404
 H   -0.3289006629   -4.3254065898   -1.1150562826
 H   -1.3770718704   -3.1743454651   -1.9593037798
 H   -1.8650197309   -1.7860756733    0.4894983073
 H   -0.8063821264   -2.9556539010    1.3558566609
 H   -0.2160997629   -0.4386837980    2.1665057773
 H    2.2291591961   -1.4291013965    1.8608324284
 H    2.2090941669   -3.0195670698   -0.2915993230