17

 C   -0.0612726084    1.5627522563    0.0577986077
 C    0.0984458692    0.0668062534   -0.0044192941
 N   -0.7607051027   -0.8228577845    0.8352563020
 C    0.6978223920   -0.7878668829    1.0643658883
 C    1.4402971139   -1.9475702366    0.4150174354
 C    1.1596934957   -1.7278543183   -1.0680838786
 C    0.4473660580   -0.6117199559   -1.2888308382
 C    1.6040568000   -2.6356281284   -2.0661867965
 N    1.9897684899   -3.3895584918   -2.8571424238
 H    0.8137239824    2.0717994917   -0.3596347311
 H   -0.9404327125    1.8892843680   -0.5090062320
 H   -0.1843861423    1.8996622207    1.0919596015
 H   -1.2113083461   -0.2494739134    1.5478920039
 H    1.0737393122   -0.3565997257    1.9860774618
 H    2.5160974318   -1.9177295113    0.6229612056
 H    1.0648566686   -2.9182758813    0.7551205260
 H    0.1412011185   -0.2510880603   -2.2631878579