16

 O    0.0197575916   -0.0553257076    0.0588896732
 C   -0.0028980773    1.1581013637    0.0207421879
 C   -1.3127678317    1.9800134531   -0.0055410597
 N   -1.1409901879    3.4447734299   -0.0519405885
 C   -0.0944046316    3.7546725564   -1.0980247592
 C    0.9856112004    3.3995110719   -0.0499322420
 C   -0.0949584051    3.8203312672    0.9729659307
 N    1.1154050739    1.9471801029   -0.0037848391
 H   -1.8935169756    1.6545783785   -0.8746526416
 H   -1.8938710237    1.7102826762    0.8822081063
 H   -0.1391504728    3.1485182307   -2.0064735965
 H   -0.1292968949    4.8178080406   -1.3503684789
 H    1.9715145470    3.8694724912   -0.0645552664
 H   -0.1299594124    4.8973154251    1.1574404363
 H   -0.1401930921    3.2729343823    1.9179594308
 H    2.0149227623    1.4926747780    0.0103235167