21

 C   -0.2403340370    1.2930877760    0.0726090028
 O    0.1711434983   -0.0554272082   -0.0627455852
 C    0.7665554258   -0.5606181320    1.0760305683
 C    2.2230554311   -0.2956500315    1.4862547600
 C    2.3763964260   -1.8213050780    1.8132316026
 C    2.9222787218   -2.2538058304    3.1692250640
 C    0.8889125448   -2.0387543359    1.4787266599
 C   -0.0283062293   -1.1089530970    2.2232178237
 O    0.1919958676   -0.7961489574    3.5730615561
 H    0.6083740928    1.9591372281    0.2841639163
 H   -0.6930040649    1.5883707356   -0.8766006726
 H   -0.9841012752    1.4089709994    0.8749315461
 H    2.8440486295    0.0241721816    0.6471299895
 H    2.3635949486    0.3916665802    2.3256785148
 H    2.9727983116   -2.2825600320    1.0191350347
 H    2.3609332359   -1.7938375927    3.9837705377
 H    2.8583391145   -3.3419816897    3.2827625392
 H    3.9777115947   -1.9743415768    3.2671897471
 H    0.4911324736   -2.9206436666    0.9891377704
 H   -1.0757926954   -1.2704805629    1.9620073483
 H   -0.1213718250    0.1014034703    3.7263269362