17

 C   -0.0040249035    1.5057487341   -0.0132660328
 N   -0.0332437792    0.0669733330    0.1309169610
 C   -1.2781736309   -0.5671149840    0.5952204293
 C   -0.4087875474   -1.6030153014    1.3747822510
 C    0.7291478720   -0.5440425884    1.2322410870
 C   -0.8223056800   -2.0092997107    2.6925376335
 C   -1.1703642073   -2.3442600607    3.8014464575
 C   -1.5631898579   -2.7196297096    5.0528939110
 N   -1.8978817994   -3.0385387499    6.1191069993
 H    1.0063430993    1.8291962540   -0.2837114988
 H   -0.6801144140    1.8098118261   -0.8189031108
 H   -0.3026118631    2.0398981956    0.9082730433
 H   -1.8627856115    0.0610735652    1.2863122991
 H   -1.9340852382   -0.9520284441   -0.1909368799
 H   -0.2016404161   -2.4785735123    0.7537512493
 H    1.7261920894   -0.9099565144    0.9706470689
 H    0.7950821580    0.0916228274    2.1297834724