23

 C   -0.1085087919    1.5109243804    0.0986252866
 C    0.0025634044   -0.0018191268    0.0165703676
 C    1.1045550172   -0.6414536069   -0.8867963152
 C    1.1683752597   -1.7959699127    0.1556100428
 C    0.6716166998   -0.7666655625    1.2009119518
 C    0.0614782238   -2.8308784795   -0.0981357847
 C   -1.1884723508   -2.1502363477   -0.7082474173
 C   -1.3587272392   -0.6636846502   -0.3021683736
 O   -2.2946302035   -0.4748100641    0.7570276018
 H    0.8425347256    1.9633251148    0.3990002255
 H   -0.3910192797    1.9374069709   -0.8714194162
 H   -0.8751542753    1.8004703973    0.8239829845
 H    0.8588197055   -0.8778850699   -1.9263196381
 H    2.0170484447   -0.0382933037   -0.8690875114
 H    2.1354921006   -2.2723256434    0.3332578546
 H    1.4895665568   -0.1805264009    1.6300804466
 H    0.0482127734   -1.1350570342    2.0252463178
 H    0.4141617018   -3.6155926494   -0.7767364113
 H   -0.1799822243   -3.3309815359    0.8484778885
 H   -1.1068429432   -2.1917296612   -1.7991441159
 H   -2.1075110505   -2.6859871598   -0.4539429504
 H   -1.8145168146   -0.1272881315   -1.1430160579
 H   -1.9434221401   -0.9020282431    1.5452680641