17

 C   -0.1185043859    1.5823984599    0.0006387940
 C    0.0415499478    0.0608520744    0.0365150201
 N    0.6884133743   -0.4841840632   -1.1608925528
 C    2.0553450574   -0.7391357184   -1.1206964221
 N    2.7426267191   -0.5198629400   -0.0718411663
 C    0.0293863067   -0.7014025327   -2.3811734402
 N   -1.3064264447   -0.3768096963   -2.3969486550
 O    0.6025683378   -1.1129861264   -3.3722263125
 H    0.8624350072    2.0585427058   -0.0750766347
 H   -0.7264296393    1.9052519422   -0.8491484810
 H   -0.5977960051    1.9314836436    0.9207026316
 H    0.6815886109   -0.2237475020    0.8728773694
 H   -0.9210109548   -0.4412548040    0.1869610082
 H    2.4151911720   -1.1291626707   -2.0721547900
 H    3.7132086984   -0.7786220587   -0.2349257184
 H   -1.8455411424   -0.3107110982   -1.5516657153
 H   -1.7903837795   -0.7028819351   -3.2175439451