21

 C   -0.1782326376    1.5133492983    0.0275277671
 O   -0.1372428471    0.1377581658    0.3574831954
 C   -1.3238582299   -0.5956830528    0.0346890062
 C   -1.4589793577   -0.8104685989   -1.4749372683
 C   -1.2835843664   -1.9228692743    0.7917324395
 O   -2.4466333194   -2.6854503390    0.5864997686
 C    0.0293697942   -2.6613393653    0.9881588093
 C   -0.6948092532   -2.0354750442    2.1686396306
 O   -0.1807444013   -0.9602537705    2.8829872234
 H    0.7318483906    1.9644872788    0.4294971136
 H   -0.1994871528    1.6775542338   -1.0571297396
 H   -1.0519338864    2.0079250386    0.4759605587
 H   -2.1990305547   -0.0338444066    0.3995809961
 H   -2.3672124660   -1.3803967547   -1.6880754921
 H   -1.5384968072    0.1371853971   -2.0137847371
 H   -0.5931524165   -1.3584105263   -1.8600505493
 H   -2.3267834805   -3.2023505204   -0.2179430178
 H    0.0238956885   -3.7426471628    0.8935671851
 H    0.9293704955   -2.1656273252    0.6401238344
 H   -1.2179187775   -2.7231126145    2.8252581796
 H    0.1043141856   -0.3116735670    2.2239183466