23

 C    0.0378436131    1.5821457176   -0.0050213697
 C   -0.0111418755    0.0522890102   -0.0578525265
 C    0.7217794956   -0.5080365839   -1.2847314914
 C    0.5056551521   -2.0210593624   -1.4155046339
 C    0.8169423698   -2.7516156800   -0.1293427778
 O    2.0509305894   -2.4082504295    0.5113043545
 C    0.8166168173   -2.0620525990    1.1753127093
 C    0.5582564171   -2.8424006293    2.4442719867
 C    0.5433325329   -0.5621184865    1.2419312010
 H    1.0735650341    1.9381652008    0.0462209747
 H   -0.4229480617    2.0249179416   -0.8943409609
 H   -0.4893177107    1.9691971547    0.8738715391
 H   -1.0660530797   -0.2501966757   -0.1436623104
 H    0.3703416554   -0.0068214408   -2.1936180965
 H    1.7944150806   -0.2984060078   -1.1973941766
 H   -0.5392731800   -2.2307789589   -1.6830248447
 H    1.1224811879   -2.4328955646   -2.2237927056
 H    0.6067048458   -3.8236322420   -0.1373349854
 H    0.8621261208   -3.8855261188    2.3254140823
 H    1.1237888461   -2.4147513020    3.2800898599
 H   -0.5039197361   -2.8135964952    2.7111250910
 H    1.4887005424   -0.0702539374    1.5079007341
 H   -0.1514468667   -0.3565642712    2.0646914371