16

 O    0.0904882369    1.5336823974   -0.3340557113
 C   -0.0556964254    0.1752235209   -0.0123205338
 C    0.1558268279   -0.2687041465    1.4806720753
 C   -1.1648792106   -1.0768490338    1.3865355331
 C   -1.5260732264   -0.2958627608    0.0947874537
 C    0.7685137961   -0.7043360849   -0.9438011308
 O    0.4863357642   -1.8216435651   -1.2912173892
 C    2.0422683150   -0.0798610355   -1.3867528927
 N    3.0459982732    0.4092619705   -1.6886579012
 H    0.9993926750    1.8126233207   -0.1674805231
 H    1.0758930285   -0.8021135917    1.7318056955
 H    0.0645379816    0.6153280310    2.1169447246
 H   -0.9853289349   -2.1339339867    1.1839003465
 H   -1.8517049014   -0.9874552377    2.2289986737
 H   -2.1640737773    0.5693664283    0.2834074694
 H   -1.9118034523   -0.8679150060   -0.7494487795