17

 C    0.1186714545    1.5799664643    0.0700466019
 C   -0.0204165969    0.0971800114   -0.0070596699
 C    0.3724751324   -0.9563402967   -0.9872358795
 C    0.9633350934   -1.0167411110    0.4364470109
 C   -0.1147562393   -1.5533950102    1.3209480705
 O   -0.1346751044   -2.0813026573    2.3979350214
 C   -1.1848928536   -0.8968519607    0.4304936955
 C   -0.9992587359   -1.6167755429   -0.9435363462
 O   -1.7872473459   -1.0879276714   -1.9861868118
 H    1.1053809934    1.8960612688   -0.2833390446
 H   -0.6352462725    2.0739652972   -0.5519177751
 H   -0.0006282509    1.9387960225    1.0980360156
 H    1.0345027898   -0.8720081402   -1.8407352137
 H    2.0275350112   -0.9351158797    0.6139255050
 H   -2.1697333155   -0.6393147879    0.8123935121
 H   -1.0429943890   -2.7158908302   -0.9238221356
 H   -2.6837165110   -1.4230727858   -1.8819351465