14

 N   -0.0344740430    1.2789629046   -0.0445438693
 C    0.0681216944   -0.0666638322    0.0451235443
 O    1.0911848068   -0.7117309142    0.0714039885
 C   -1.3360303911   -0.7101407002    0.1126264582
 O   -2.3636717266   -0.0771352034    0.0850007260
 O   -1.2547445838   -2.0363304540    0.2018402341
 C   -2.5000719507   -2.7402139182    0.2629367243
 C   -2.1909719263   -4.2237407604    0.1654367793
 O   -3.0386799749   -5.0671767497    0.2756178458
 H    0.8007925621    1.8367790316   -0.0975068236
 H   -0.9450328057    1.7078956979   -0.0589458887
 H   -3.0223228372   -2.5205054030    1.2000692337
 H   -3.1551283464   -2.4336116585   -0.5599705270
 H   -1.1218957774   -4.4594697903   -0.0215931257