16

 O   -0.0553124344    1.3739372332   -0.3874324478
 C    0.0225594639    0.0540386268    0.1137245729
 C   -1.3309835826   -0.5578382229    0.2675063729
 C   -1.9590457584   -1.8710798164    0.0761131576
 C   -2.9350194514   -1.6559196281    1.2374897879
 C   -2.6487883118   -0.1366918823    1.0439880609
 C   -3.1759973501    0.0873154727   -0.3624800675
 O   -3.9426497650    0.8212613879   -0.8999022040
 N   -2.1974926936   -0.8118226687   -0.9778566489
 H   -0.4720701884    1.3245089912   -1.2559897373
 H    0.6305915349   -0.6013903138   -0.5280224776
 H    0.5213052179    0.1238458736    1.0859598384
 H   -1.5369537667   -2.7958715128   -0.2962186605
 H   -3.9712509863   -1.9890511371    1.1250465393
 H   -2.5156119583   -2.0372631057    2.1711967811
 H   -2.7707769496    0.5924054523    1.8390223926