21

 C   -0.0551569761    1.5800113205    0.1164863107
 C    0.0183996603    0.0635621326    0.1046730740
 C   -1.2397369167   -0.5841886559   -0.4442167032
 O   -1.3895759668   -0.1743427626   -1.8017655896
 C    1.2744911902   -0.7242854774   -0.2623924184
 C    2.5387891408   -0.0395591311    0.2637244636
 C    1.9564158683   -0.0836495992    1.7152678142
 C    0.6927748465   -0.7541727702    1.1656032285
 O   -0.0355808151   -1.7066913484    1.8621074343
 H    0.8769212971    2.0477879146    0.4392494106
 H   -0.2924403285    1.9474878780   -0.8853608746
 H   -0.8471988955    1.9200569363    0.7944279088
 H   -1.1690961359   -1.6764272882   -0.3639150329
 H   -2.1054816204   -0.2676935487    0.1584510312
 H   -2.2427634681   -0.4907317088   -2.1121928211
 H    1.2381508793   -1.4573148227   -1.0595464201
 H    3.4332486069   -0.6575918804    0.1572018858
 H    2.7581857949    0.9530743125   -0.1406082564
 H    2.5246839851   -0.7644198587    2.3569016317
 H    1.8273557994    0.8631566626    2.2490354201
 H    0.5661774343   -2.4112127251    2.1272495628