21

 C    0.0718645246    1.5496709555   -0.0246058553
 C    0.0160058364    0.0184226827    0.0481124803
 C    0.8114120344   -0.4929726315    1.2551052635
 C   -1.4627478866   -0.5322024577    0.0432425193
 C   -2.2362189275   -0.0472323879   -1.2157924928
 C   -1.4288160743   -2.0038853574    0.0104248569
 C   -1.4013846847   -3.2027584633   -0.0669638381
 C   -2.1843555892   -0.0881947013    1.2465241301
 C   -2.7824299192    0.3032480752    2.2126988826
 H    1.1128912360    1.8836576223    0.0239597383
 H   -0.3546071490    1.9422300429   -0.9511847219
 H   -0.4639584770    2.0005973417    0.8169545672
 H    0.4701090017   -0.3924884653   -0.8625645276
 H    0.3948661890   -0.1028392946    2.1893631084
 H    0.8017012414   -1.5842842268    1.3080281132
 H    1.8526141770   -0.1631064841    1.1861550438
 H   -1.6770788268   -0.3101921767   -2.1182509654
 H   -3.2149080920   -0.5288375808   -1.2600737989
 H   -2.3850146945    1.0333139475   -1.1855493370
 H   -1.3817320298   -4.2633818339   -0.1173761181
 H   -3.3126195000    0.6322132533    3.0721515915