23

 C    0.0882463333    1.3572406114    0.2251260030
 O   -0.0059039964   -0.0432764088    0.2958971118
 C   -1.2258759227   -0.5356763697   -0.2245951862
 C   -1.2039642989   -2.0386178976   -0.1581332080
 C   -1.6000313731   -2.7595005446    1.1076213500
 C   -2.4746796099   -2.8634215010   -0.1185339435
 C   -3.8469455173   -2.2637799662   -0.1529691277
 C   -4.6612023605   -2.2970969660   -1.4246757353
 C   -5.0554561948   -3.1631002378   -0.2537866069
 H    1.0584977856    1.6433219361    0.6390330181
 H    0.0238257670    1.7223916462   -0.8130330037
 H   -0.7052138515    1.8535550029    0.8079211213
 H   -2.0739643350   -0.1266728788    0.3490297835
 H   -1.3537919656   -0.1966331682   -1.2677812792
 H   -0.3791177027   -2.4719133866   -0.7171731380
 H   -1.0235485373   -3.6224999008    1.4217410435
 H   -1.9663807274   -2.1491587358    1.9278154880
 H   -2.4125252995   -3.8047952669   -0.6605993837
 H   -3.9769544637   -1.3817260308    0.4670224313
 H   -5.2809678195   -1.4406368269   -1.6667531286
 H   -4.2225166155   -2.7846141374   -2.2893098151
 H   -4.8825002552   -4.2316322121   -0.3321392808
 H   -5.9445664593   -2.8994086108    0.3083314066