16

 N   -0.0627645367    1.2652144345   -0.0216516681
 C   -0.0901507145    0.0084957093   -0.0988634947
 O   -1.0405291523   -0.6846577002    0.5706653290
 C   -1.0422643211   -2.0815558698    0.4191171728
 C   -2.0022124742   -2.7864423850    1.3827293303
 O   -2.6901147684   -3.4395575030    0.2939908808
 C   -1.9386493221   -2.7066120480   -0.7063164179
 C   -2.7323906609   -1.7845233129   -1.4951764476
 C   -3.3723601364   -1.0148278360   -2.1598678823
 H    0.7155052511    1.6313264261   -0.5658494236
 H    0.6032978986   -0.6315467256   -0.6613393602
 H   -0.0212733480   -2.4760361160    0.4111466365
 H   -1.5615453018   -3.5034420282    2.0824567677
 H   -2.6475419339   -2.0841598378    1.9220367702
 H   -1.4005035586   -3.4010583715   -1.3640254835
 H   -3.9433105210   -0.3307574659   -2.7383729095