21

 C   -0.8931216420    1.2338101305    0.0502531919
 C   -0.0729464286   -0.0565518352   -0.0671961852
 C    0.8274669698   -0.1323784875   -1.2837368256
 C    2.0414928263   -0.6119635314   -1.0079877092
 C    2.2188489759   -0.9328634825    0.4504163775
 C    3.0744399311    0.0770754503    1.2701486303
 C    1.7728766810    0.8350284946    1.6559868612
 C    0.9197374093   -0.3490816247    1.0883205686
 O    0.3950420322   -1.1957818518    2.0915794257
 H   -0.2600947187    2.1259950900    0.0282243427
 H   -1.6058756319    1.3155862835   -0.7768995198
 H   -1.4722742823    1.2538968838    0.9809793099
 H   -0.7818623671   -0.8986370178   -0.0899898271
 H    0.4819669636    0.1552885432   -2.2722324489
 H    2.8303218684   -0.7646025659   -1.7378675275
 H    2.4204316051   -1.9916874363    0.6399312512
 H    3.5624492417   -0.3908761385    2.1281461234
 H    3.8195517059    0.6471217007    0.7097005794
 H    1.6250314820    1.0209112151    2.7225888669
 H    1.6443934275    1.7740955084    1.1145498768
 H   -0.2875010495   -0.7074003285    2.5650190777