21

 O    0.1327285851    1.3516522051   -0.0837624669
 C    0.0220618073   -0.0429016411   -0.0037233944
 C   -0.4172382512   -0.7465610158    1.2707507082
 C   -1.2866002751   -0.7455389902    0.0398761294
 C   -2.6826956639   -0.1358818655   -0.2033862699
 C   -2.5637138186   -0.7537851812   -1.6284448399
 C   -1.8072206739   -1.8802913769   -0.8615349540
 C   -2.9263108142   -2.4818030461    0.0165132571
 C   -3.5934453967   -1.1540749968    0.5161400749
 H   -0.6615936638    1.7409358717    0.2956338915
 H    0.8343945779   -0.4940913663   -0.5664679976
 H    0.0944296623   -1.6582610443    1.5666494915
 H   -0.7193568676   -0.1166787827    2.1041417437
 H   -2.8957445935    0.9246083641   -0.0520778775
 H   -3.4897943605   -1.0207552777   -2.1471761848
 H   -1.9073706226   -0.1758146150   -2.2810682642
 H   -1.1302363160   -2.5701169041   -1.3668436877
 H   -3.6123878005   -3.1103551123   -0.5586497334
 H   -2.5273642943   -3.0813649523    0.8392994182
 H   -3.5518609553   -1.0501585644    1.6038040121
 H   -4.6386080447   -1.0621960681    0.2066693138