17

 C   -0.2581102159    1.5572498688    0.0910570405
 C    0.1304311897    0.0740007816   -0.0230645240
 C    0.7138631154   -0.4721095175    1.2425988294
 C    0.1999971199   -1.3775689747    2.1433587272
 N    1.1477226242   -1.4842376166    3.1064790948
 C    1.1557519942   -2.2990170923    4.3035479173
 N    2.1979528453   -0.6888873657    2.8239720670
 N    1.9381163082   -0.0791374328    1.7032670109
 H    0.6113242455    2.1578494408    0.3712327047
 H   -0.6458798848    1.9329412826   -0.8608282364
 H   -1.0281304845    1.7038942328    0.8552517956
 H   -0.7446225092   -0.5226071110   -0.3031004925
 H    0.8636907916   -0.0450561427   -0.8289915371
 H   -0.7219237883   -1.9341807900    2.1751220523
 H    1.0960946610   -3.3613076328    4.0502502676
 H    2.0946817398   -2.1012528022    4.8204938061
 H    0.3181448579   -2.0371132585    4.9561526965