19

 O   -0.0660309905    1.4483715545    0.0000942990
 C    0.0109384871    0.0256193139   -0.0189342575
 C   -1.4165779083   -0.5147344429    0.0698818736
 C   -1.4515089319   -2.0156216319   -0.2411872043
 C   -0.9561753600   -2.3018223019   -1.6661218303
 C    0.2799895164   -1.5064415127   -2.0016476343
 C    1.0486117255   -1.8775417145   -3.2052554189
 O    0.7647265867   -2.7943370700   -3.9423506190
 C    0.7047756374   -0.4719568893   -1.2622230769
 H    0.8270252709    1.8015415011    0.0677490921
 H    0.5817246414   -0.3293156617    0.8581981195
 H   -1.8240309962   -0.3019592590    1.0624037095
 H   -2.0266134917    0.0377494049   -0.6549728439
 H   -0.8182959056   -2.5507642585    0.4787093366
 H   -2.4659655431   -2.4050554928   -0.1109451028
 H   -0.7491151653   -3.3667897549   -1.8132090906
 H   -1.7376093948   -2.0577632780   -2.3988304512
 H    1.9396815304   -1.2372690760   -3.3979108833
 H    1.6080219917    0.0607477798   -1.5626399275