14

 N   -0.1737512279    1.3195996485    0.0115494619
 C   -0.0120754897    0.0715756922    0.0033756172
 O   -1.1349068665   -0.7125148150    0.0081356669
 C   -1.0272499486   -2.0687344474    0.0006072586
 N    0.1510032595   -2.6628919237   -0.0098724748
 C    0.1364836856   -4.0022668859   -0.0163984182
 C   -1.0476793762   -4.7229877933   -0.0122976543
 N   -2.2406696289   -4.1104779158   -0.0015850514
 C   -2.2344849829   -2.7868439546    0.0048589946
 H    0.7337171399    1.7824393077    0.0063483260
 H    0.9142574029   -0.5012726611   -0.0075801037
 H    1.1016022225   -4.5011268953   -0.0250758013
 H   -1.0462850825   -5.8083259597   -0.0176368311
 H   -3.1833115673   -2.2591161765    0.0135777799