17

 C   -0.0504328487    1.5258141408    0.0410928606
 C   -0.0070638021    0.0218487618    0.0096034963
 C    0.0714614072   -0.6504889332   -1.2122777718
 N    0.1628199477    0.0072577751   -2.4402421798
 C    0.1174178186   -2.0579412791   -1.1661635990
 O    0.1909756927   -2.7078381750   -2.3602081837
 N    0.0922929612   -2.7800102501   -0.0657110833
 C    0.0162930984   -2.1251684733    1.1041411274
 C   -0.0347083600   -0.7452462291    1.1819601415
 H    0.8003491395    1.9577386695   -0.4992874752
 H   -0.9612021069    1.9160923800   -0.4337953888
 H   -0.0307519490    1.9004191656    1.0667997520
 H   -0.3421479599    0.8801459284   -2.4941094131
 H   -0.0386625186   -0.5936120537   -3.2268975902
 H    0.2010186752   -3.6500748229   -2.1450151324
 H   -0.0037764434   -2.7402775452    1.9985818835
 H   -0.0944347119   -0.2545442296    2.1475371662