20

 C   -0.3915947998    1.4134494992    0.0618240765
 C    0.0663951898   -0.0468335465    0.0295928981
 C    0.8200917487   -0.4012289456   -1.2757892339
 C    0.6222842641   -1.8527240635   -1.7169310748
 C    0.9665361884   -2.9033376812   -0.7015914025
 C    1.3031943687   -2.7751843831    0.5853773983
 N    1.4106394690   -1.6353277355    1.3891162702
 C    0.9206746631   -0.3499890386    1.2554720442
 O    1.1789581423    0.4770338425    2.1099791934
 H    0.4619818529    2.0906020654   -0.0344484978
 H   -1.0833364505    1.6079913732   -0.7634677830
 H   -0.8889897309    1.6504976398    1.0041478157
 H   -0.8169679370   -0.6993411495    0.0913514276
 H    0.4603971438    0.2549839128   -2.0752214730
 H    1.8877885710   -0.1811466733   -1.1576317865
 H   -0.4245493652   -1.9902712098   -2.0291266702
 H    1.2136350931   -2.0378163743   -2.6244872758
 H    0.9336091790   -3.9268218682   -1.0650310001
 H    1.5446489230   -3.6737235262    1.1452595949
 H    1.9123562165   -1.7478641778    2.2585823487