19

 C    0.0132870223    1.5956587254    0.0940333245
 O    1.4972931412    1.5066147615   -0.0249765840
 C    1.2057669974    0.3123777883   -0.8793603017
 C    1.2072121564   -1.2453694920   -1.1596338006
 C    1.7134635668   -2.1750757541   -0.0779321894
 C    1.5126104340   -1.5064066623    1.2912678569
 C    0.2292741765   -0.6562411336    1.2867655084
 C    0.0262404193    0.0322715927   -0.0720892900
 O   -0.2825259854   -1.0882282267   -1.0297727399
 H   -0.2791510340    2.0158429426    1.0596519836
 H   -0.4120457346    2.1594885659   -0.7426565560
 H    0.9281223026    0.7357290236   -1.8513106739
 H    1.4711885190   -1.5449697424   -2.1764271702
 H    1.1520718321   -3.1128789555   -0.1563190103
 H    2.7692366485   -2.4129117342   -0.2502165841
 H    1.5012344021   -2.2437192274    2.0992257182
 H    2.3577107636   -0.8358079289    1.4790432739
 H   -0.6569678768   -1.2836955657    1.4381265168
 H    0.2608234989    0.0704511428    2.1028603677