16

 O    0.0943292841    1.3775726608   -0.1455261461
 C    0.0526520860   -0.0263506223   -0.0785006019
 C    0.7510228174   -0.6368326508    1.1662400035
 C    0.0194209781   -1.9609125377    1.4726598980
 C   -1.3836668609   -1.7302568056    0.9470586016
 O   -1.9402550560   -0.4594186678    1.3079553763
 C   -1.3639557653   -0.6036719113   -0.0042514168
 C   -2.2652520435   -0.4801359024   -1.1217163566
 N   -2.9588688438   -0.3780647797   -2.0404307437
 H   -0.3637684061    1.7212851630    0.6310032368
 H    0.5201150979   -0.3783751900   -1.0047609960
 H    1.8215060718   -0.7685227709    1.0010999947
 H    0.6297675111    0.0603588042    1.9995517821
 H    0.4604271160   -2.8041082286    0.9287875295
 H    0.0270049330   -2.2167503524    2.5361743573
 H   -2.1040486299   -2.5387187286    0.8593180814