16

 O    0.3999761360    0.4834441201   -1.0562728162
 C    0.1259217066    1.2636285750   -0.1754972990
 O    0.9686268599    1.6309529792    0.8127867656
 C    2.2969692014    1.0667104998    0.7526000376
 C    3.2060978763    1.9006541646   -0.0201164835
 C    3.9681689289    2.5858205088   -0.6458517100
 C   -1.1952607060    1.9347909951   -0.0290610954
 C   -1.7958002656    2.4824219529   -1.2860459958
 N   -2.3457397504    1.2813602394   -0.6709326151
 H    2.6221220070    0.9991676043    1.7938688101
 H    2.2384470919    0.0628560767    0.3237782240
 H    4.6412767836    3.1866677902   -1.2063405112
 H   -1.3844261828    2.4190760366    0.9217664528
 H   -2.4175969705    3.3699658051   -1.2180206435
 H   -1.2096867124    2.3822587068   -2.1947235308
 H   -1.9902015641    0.4663298955   -1.1705329095