14

 C    0.0056233513    1.3685300650    0.1087886698
 N   -0.0195961095   -0.0792879417    0.0074445966
 C   -0.0907220038   -0.8334707070   -1.1249445686
 C   -0.0359726882   -2.1528771752   -0.7351827708
 C    0.0702542991   -2.0658069945    0.6630484384
 N    0.0822155470   -0.8176733771    1.1156248502
 N    0.1551201396   -3.1825220307    1.5834166454
 O    0.1371435051   -4.2984067183    1.0707701846
 O    0.2376163850   -2.9472440077    2.7777052946
 H    1.0190894577    1.7207014009    0.3197902448
 H   -0.3385400177    1.7942370568   -0.8347121133
 H   -0.6569695754    1.6814141604    0.9168009958
 H   -0.1753419141   -0.3769026537   -2.0983043475
 H   -0.0726406863   -3.0413025773   -1.3397165399