20

 C   -0.8998889594    0.9465069103    0.2153405608
 C    0.0588288517   -0.2292674938   -0.0562143671
 C    1.0134185303    0.0804654609   -1.2329221272
 C    0.3068732711    0.2739628368   -2.4934481866
 C   -0.2897907792    0.4226417951   -3.5269259015
 C    0.8009672306   -0.6121153883    1.2076310421
 C    0.0278492511   -1.2010433142    2.3588553487
 N    2.0614163903   -0.4057443012    1.2387593856
 O    2.6218914924   -0.7769030999    2.4721751983
 H   -0.3366646605    1.8386736537    0.5093402627
 H   -1.4711437596    1.1814724449   -0.6862192848
 H   -1.6065907091    0.7137424834    1.0169223779
 H   -0.5521746056   -1.0964604950   -0.3435019185
 H    1.6062890157    0.9704065994   -0.9932797740
 H    1.7361503607   -0.7359069167   -1.3347542578
 H   -0.8029340432    0.5571935139   -4.4464902554
 H    0.0104351512   -0.5094377686    3.2080693768
 H   -1.0004544232   -1.4315492382    2.0741895912
 H    0.5188817022   -2.1126827102    2.7112775980
 H    3.5564524224   -0.5912634021    2.3331300209