13

 N   -0.2158793533   -1.1757169928    0.0636520663
 C   -0.1077847436   -0.0260962204    0.0536998713
 C   -0.0225880241    1.4437315053    0.0393568652
 O   -0.5868707724    2.0097132943    1.2045461051
 C    0.4983504702    2.2664676187    2.0710466071
 O    1.5322392441    2.7531821637    1.2397732712
 C    1.4579924924    2.0121319173    0.0372440679
 C    2.5053707582    0.9816986100   -0.0345677885
 N    3.3543826316    0.2018217558   -0.1003069553
 H   -0.5789339388    1.8161725786   -0.8243781607
 H    0.2123672309    3.0465420233    2.7775901992
 H    0.8112399228    1.3487832076    2.5930405112
 H    1.5962663717    2.7039536185   -0.7982139300