18

 O   -0.1612262466    1.4108930589   -0.0000899210
 C   -0.0383881405   -0.0012438046    0.0139366557
 C    0.4195758536   -0.6037699823    1.3926053411
 N   -0.7691268759   -1.3910245870    1.8282138469
 C   -1.1093959434   -2.0620862515    0.5051809770
 C   -1.4283397379   -0.6430291970   -0.0152635055
 C   -1.8754851078   -0.3891289388    1.4623118899
 C   -3.2069905348   -0.8297502772    1.8258794138
 C   -4.3257535821   -1.1573952643    2.1195009995
 H    0.7185948823    1.7925979920    0.0749190326
 H    0.5831320822   -0.3435752235   -0.8251707043
 H    1.2850696931   -1.2667886462    1.3143430794
 H    0.6391808791    0.1878163900    2.1146884827
 H   -0.2860794050   -2.6218074139    0.0514176324
 H   -1.9871360740   -2.6978347281    0.6194578602
 H   -2.0652381016   -0.4305528311   -0.8736298752
 H   -1.6899847408    0.6174402443    1.8454750606
 H   -5.3102185199   -1.4515898496    2.3877533543