21

 C    0.4618972490   -1.2308977218    1.6790958589
 C   -0.0044322051   -0.2424107735    0.5987805846
 N   -1.3006130886   -0.5115981665   -0.0395187377
 C   -1.4563573098   -1.8201581488   -0.6790208920
 C   -0.4593678867   -2.1085663844   -1.8051579003
 O    0.7969699878   -2.6092941160   -1.3643423563
 C   -2.4368753224   -0.2206623971    0.8256067061
 C   -2.4992560454    1.1978613838    1.2025038607
 N   -2.5560433344    2.3087058623    1.5142544225
 H    1.3941104502   -0.8719723564    2.1267815235
 H   -0.2693448330   -1.3291659329    2.4879069685
 H    0.6489984622   -2.2212712957    1.2568999666
 H   -0.0625228508    0.7664145350    1.0202507781
 H    0.7507464864   -0.1780724525   -0.1927308873
 H   -1.4156942266   -2.6616860175    0.0356106186
 H   -2.4588729402   -1.8343096313   -1.1251065592
 H   -0.8885477128   -2.8983751756   -2.4315764030
 H   -0.3451311996   -1.2142734660   -2.4324112831
 H    1.3869370110   -1.8684910091   -1.2063560494
 H   -3.3587637498   -0.4588928872    0.2832034226
 H   -2.4648950812   -0.8169300690    1.7567115275