20

 O   -0.2847777254    0.2756430100    1.4174644736
 C   -0.2670534751    0.2052047928    0.0030070925
 C   -1.4815765481   -0.5273223604   -0.5862157558
 O   -1.4328410555   -0.4851393108   -2.0108070185
 C   -1.6240721377   -1.9514895828   -0.0486151440
 C   -2.9208873579   -2.6239577964   -0.5155800358
 N   -3.0692325875   -3.9896036302   -0.0342980610
 C   -3.6604733451   -4.2833544558    1.1531781602
 O   -4.1505913864   -3.4680201214    1.9065997281
 H   -1.0121753234    0.8496573195    1.6789466205
 H   -0.1976817986    1.1987302073   -0.4631624270
 H    0.6482979291   -0.3432459128   -0.2567512494
 H   -2.3858232672    0.0424254985   -0.3278821621
 H   -0.6419737414   -0.9608247630   -2.2900613702
 H   -0.7563726423   -2.5456687829   -0.3733891330
 H   -1.5964644700   -1.9221693241    1.0446041496
 H   -3.7806012449   -2.0616117396   -0.1407500382
 H   -2.9706176938   -2.6260486547   -1.6077339115
 H   -2.6498914068   -4.7426826438   -0.5552910836
 H   -3.6581028719   -5.3729420493    1.3580543656