17

 C   -0.0142848999    1.5946478465   -0.0756393705
 C   -0.0212693166    0.0688147595   -0.0451972710
 C   -1.4348434472   -0.5012939536    0.2186966859
 C   -1.9458209599   -0.1154518745    1.5326040616
 N   -2.3119887537    0.2032325844    2.5814556579
 C    0.7185834713   -0.6359583064   -1.2289262516
 C    1.7139649884   -1.1487258998   -0.1586486686
 O    2.7128717822   -1.8124054487   -0.1537887722
 N    0.9977538535   -0.5239416954    0.8358460889
 H    0.9955062128    1.9648554431   -0.2705270557
 H   -0.6785223954    1.9701504314   -0.8608987715
 H   -0.3541067802    2.0091500171    0.8786988702
 H   -2.1300945971   -0.1491739366   -0.5515277266
 H   -1.4065110199   -1.5943491935    0.1638077674
 H    0.1592240047   -1.4212665245   -1.7410789247
 H    1.1591523400    0.0403555353   -1.9629378272
 H    1.1664006274   -0.4186648043    1.8265855877