16

 C   -0.0806929356    1.5473808940   -0.0196767389
 C    0.0302209737    0.0531889874    0.0399173500
 C   -0.8336346543   -0.8369408516    0.9070406096
 C    0.6548404713   -0.9241818510    1.0270552868
 N    1.1415926139   -1.8191087509   -0.0514103355
 C    0.6834584776   -0.8065372887   -1.0644342868
 C   -0.1757971832   -1.3355979298   -2.1269823626
 N   -0.8686402946   -1.7270590477   -2.9651354204
 H    0.8642777465    2.0125556738   -0.3228175011
 H   -0.8524627855    1.8584190758   -0.7337561523
 H   -0.3553897205    1.9543329423    0.9583525462
 H   -1.3409969852   -0.3047532650    1.7056159019
 H   -1.3835311716   -1.6744407918    0.4866928283
 H    1.2151872736   -0.7661988731    1.9405400217
 H    2.1549820624   -1.8738618702   -0.0632610874
 H    1.5189598513   -0.2692455636   -1.5259646195