23

 C    0.1278740679    1.7716155110   -0.1433089101
 C    0.0152204400    0.2366778226   -0.0733836775
 C    0.6822320420   -0.4586880426   -1.2268761562
 C    1.8992149345   -1.0056742769   -1.2415480277
 C    2.2622205992   -1.6121609808   -2.5743064679
 C    1.1591308780   -1.0581751600   -3.5047937559
 C   -0.0152914148   -0.6641982187   -2.5689725311
 C   -1.0807469094   -1.7687792863   -2.4763182139
 O   -0.6383080180    0.5635571015   -2.9612191274
 H    1.1774548039    2.0819807884   -0.1250867142
 H   -0.3211219817    2.1469727499   -1.0646004813
 H   -0.3785544269    2.2347434070    0.7100097136
 H    0.4584745208   -0.1169138469    0.8648624110
 H   -1.0466804563   -0.0370232272   -0.0405027365
 H    2.5617783294   -1.0477804060   -0.3823282610
 H    3.2710670750   -1.3418905732   -2.9069270340
 H    2.2417586969   -2.7104839748   -2.5276098978
 H    1.5059900436   -0.1391622146   -3.9860239546
 H    0.8615570675   -1.7600910898   -4.2902437724
 H   -0.6319130928   -2.7265027481   -2.1956136123
 H   -1.8472681129   -1.5154167148   -1.7383497942
 H   -1.5748859661   -1.9046045616   -3.4470899719
 H   -1.1976789601    0.3813854021   -3.7234825670