18

 C   -0.0543824312    1.5105032914   -0.0210954979
 C    1.2910401507    0.8271153974    0.0177217776
 C    2.1353935259    0.8364624661    1.2907050017
 C    2.1384024125   -0.5219004509    2.0177479099
 C    0.7337358279   -1.0339577281    2.2587335885
 O   -0.2719201034   -0.0396481443    2.5103734599
 C   -0.3182929911   -0.7538888080    1.2675537729
 C    0.0188227892    0.0045225388    0.0182782345
 H   -0.3834449486    2.0069170373    0.8852520398
 H   -0.3743037836    1.9797990157   -0.9447380246
 H    1.8519395450    0.8227253261   -0.9116123206
 H    3.1650101665    1.1158043620    1.0476945236
 H    1.7601804384    1.5949053694    1.9834958125
 H    2.6789675900   -1.2775334824    1.4310819849
 H    2.6691126829   -0.4295310499    2.9727818745
 H    0.6442083173   -1.9246920795    2.8813094758
 H   -1.1599928764   -1.4423636612    1.1898994585
 H   -0.2356872720   -0.5279066602   -0.8933898615