21

 C    0.4249693018    1.1995590211    0.2212009338
 O   -0.2150403759    0.0069288453   -0.2138097455
 C    0.4445770110   -0.5888336567   -1.2955019644
 C    1.4410231495   -1.6931247334   -0.9646036878
 C    2.7392586440   -1.8489172253   -1.7107213683
 O    1.5827454121   -1.9830741559    0.3998794268
 C    0.1093818682   -2.0344020646   -1.6178248556
 C   -0.9656636301   -2.7781939508   -0.8619393828
 O    0.2102244117   -2.3818775767   -2.9774110348
 H    1.4616303347    1.0131430991    0.5314053248
 H    0.4279626217    1.9577283473   -0.5745820226
 H   -0.1471463801    1.5779437475    1.0713725001
 H    0.6491711386    0.0749390895   -2.1366652081
 H    3.4881926307   -1.1542182447   -1.3173125740
 H    3.1239845908   -2.8668862689   -1.5890503708
 H    2.5978928154   -1.6650412575   -2.7764202360
 H    0.9356913974   -1.4389249228    0.8679884827
 H   -0.9977630324   -2.4971753784    0.1906617628
 H   -1.9517564064   -2.5650395456   -1.2921209281
 H   -0.7873006783   -3.8554088317   -0.9303928942
 H   -0.5912594545   -2.0771224470   -3.4190577480