22

 C   -0.3558986166    1.5021524749   -0.1181740592
 C   -0.0260475438    0.0052096642   -0.0640417815
 C    0.8893982317   -0.4431202419   -1.1817114865
 C    0.3393004484   -0.8728855166   -2.4968406534
 N    0.8702148088   -1.8776318905   -1.5518408386
 C    2.2586649325   -2.2736053112   -1.8289603263
 C    3.1270427686   -1.0000240505   -1.9756279695
 O    3.2450456274   -0.5471879080   -3.3256662432
 C    2.3335525028    0.0563275938   -1.1880151107
 H    0.5445383569    2.1171519943   -0.0163954488
 H   -0.8309814612    1.7663881260   -1.0689120075
 H   -1.0398129339    1.7818095551    0.6888068382
 H    0.4408259078   -0.2358653800    0.9007373129
 H   -0.9477781478   -0.5838031671   -0.1170068203
 H   -0.7386354412   -0.9227661183   -2.6310319412
 H    0.9110130699   -0.6502077989   -3.3917144741
 H    2.6105084830   -2.8683517735   -0.9772878094
 H    2.3122499340   -2.9093565915   -2.7206902555
 H    4.1293065547   -1.1512631765   -1.5511683156
 H    3.6628657820   -1.2482714812   -3.8362216864
 H    2.4596399782    1.0414444664   -1.6441222523
 H    2.7018380279    0.1146905711   -0.1571942314