16

 N   -0.0808241874    1.3223171712    0.0981898192
 C   -0.0657049319    0.0604962445    0.0859307124
 O   -1.2134393105   -0.6313256002   -0.0441131106
 C   -1.1405485351   -2.0397949131    0.0581114307
 C   -1.5767825301   -2.7214758974    1.4066748601
 C   -2.5861415445   -3.5355098605    0.5899315174
 N   -3.5148331783   -2.5358379835    0.0236939206
 C   -2.2330536497   -2.8109631967   -0.6685730458
 H    0.8692666405    1.6778125883    0.1819495401
 H    0.8253470552   -0.5803559207    0.1621996172
 H   -0.1480544891   -2.3906675481   -0.2489619690
 H   -0.7739180256   -3.3010785679    1.8660497551
 H   -2.0297397502   -2.0479504395    2.1361885356
 H   -2.8752791804   -4.5692722807    0.7248241889
 H   -4.2328514247   -3.0410425824   -0.4953101858
 H   -2.2189924283   -3.1458303234   -1.6982360760