20

 O    0.1693234995    1.4218870402   -0.4740843486
 C    0.0249223206    0.0981829079   -0.0196073295
 C    0.9133875178   -0.8523606139   -0.8277630495
 N    2.3210864428   -0.4894653734   -0.7182977241
 C    3.1380609487   -0.3175470121   -1.7998369562
 O    2.7856833441   -0.3493371321   -2.9574138081
 C    0.1057008968   -0.1314737062    1.5280649642
 C   -1.1929373365   -0.9766376099    1.4338508375
 C   -1.4509504737   -0.3659925818    0.0294940336
 H    1.1036839633    1.5671962272   -0.6667604101
 H    0.7591788177   -1.8889290332   -0.5020891581
 H    0.6597674418   -0.7858270071   -1.8881005693
 H    2.7589607305   -0.5419935137    0.1889428183
 H    4.1849585965   -0.1244305292   -1.4909426011
 H    0.9988004651   -0.6125227662    1.9411991956
 H   -0.0561268330    0.8161927187    2.0467758717
 H   -0.9917754383   -2.0503451589    1.3920853648
 H   -1.9526889721   -0.8010507542    2.1972375153
 H   -2.1052769295    0.5074525254    0.0726043300
 H   -1.7949792722   -1.0286168875   -0.7693186965