18

 O   -0.0399643975    1.3744597427    0.0686816761
 C    0.0504690404   -0.0132962431    0.0346882982
 C    0.8935012584   -0.7848930506    1.0596645311
 N    0.5409790133   -2.1582258162    0.6258340356
 C   -0.9530178946   -2.0859450207    0.6979842617
 C   -1.3053826049   -0.7730788710   -0.0314816762
 O   -1.1681336106   -0.9836581646   -1.4594290839
 C    0.2591749134   -0.7790913155   -1.3194649318
 C    0.9033477973   -2.0892652017   -0.8260836615
 H    0.8408498392    1.7431489169   -0.0588010257
 H    1.9710446906   -0.6104785634    0.9686515946
 H    0.5870097704   -0.6041541197    2.0937852471
 H   -1.4132661259   -2.9515941915    0.2173758948
 H   -1.2477340728   -2.0627656633    1.7524152593
 H   -2.2385068413   -0.2759068524    0.2405985394
 H    0.7077167819   -0.2932444448   -2.1896992343
 H    1.9955931355   -2.0685169547   -0.9086386225
 H    0.5224089872   -2.9580700965   -1.3670625418