18

 C   -0.0336682683    1.5368792098    0.0272628363
 C    1.4587050757    1.9861516954    0.0224487871
 C    2.2519729311    0.6793439384    0.0229220262
 C    2.3457169631   -0.0755729050    1.3795752950
 O    1.1898959940    0.1987467394    2.2097788572
 C    0.3728276669   -0.6695284680    1.3858181103
 C    0.0263505053    0.0093216050    0.0299731767
 N    1.3639077348   -0.4082908815   -0.5526897411
 C    1.6221968048   -1.2531906005    0.6882422867
 H   -0.5656425750    1.9069689642    0.9074740826
 H   -0.5576236054    1.9021501908   -0.8600380473
 H    1.6886947757    2.5782678626   -0.8673617006
 H    1.7031440611    2.5901063639    0.9000729029
 H    3.2101005618    0.7271966788   -0.5025076613
 H    3.2750664916   -0.0879420112    1.9524597673
 H   -0.3918866833   -1.1919114570    1.9640633627
 H   -0.8019876351   -0.4806181684   -0.4898216283
 H    1.9347678614   -2.2922453966    0.6104180175