19

 O    0.1208497927    1.4401419992    0.0587499169
 C    0.0530818277    0.0287810752    0.0785472559
 C   -1.3746170085   -0.4406663132    0.0029090042
 C   -2.4079192750    0.4014035693   -0.0042178489
 C   -3.8463483642   -0.0295609675   -0.1183144491
 C   -4.0392930752   -1.5355988931   -0.2550821700
 O   -4.9924806733   -2.0136183047   -0.8236476010
 C   -2.9529237945   -2.3794471187    0.3889979135
 C   -1.5543012174   -1.9388400011   -0.0802234222
 H    1.0434527718    1.6972251186    0.1368469295
 H    0.6152105693   -0.4120265250   -0.7649793459
 H    0.5121844836   -0.3812630994    0.9964556278
 H   -2.2165943891    1.4678247126    0.0506956655
 H   -4.4101291321    0.2931458054    0.7717224947
 H   -4.3474831058    0.4532569705   -0.9654993941
 H   -3.0205568741   -2.2293944435    1.4753661378
 H   -3.1480150991   -3.4327432496    0.1761951519
 H   -1.3858683716   -2.2763131012   -1.1131191457
 H   -0.7902791153   -2.4469471440    0.5221734193