18

 C   -0.1049559178    1.4443329764    0.1204409724
 N   -0.0425198602    0.0072688706   -0.0351539109
 C    0.6245261049   -0.6097617765   -1.0439859563
 C    1.2699685126    0.0324968856   -2.0517484172
 C    1.8374672683   -0.6754762375   -3.1937786627
 O    2.2155677628   -0.1440503627   -4.2087333579
 O    1.9095687634   -2.0495697739   -3.1123162908
 C    1.7969827219   -2.6374677999   -1.8211935923
 C    0.5845154186   -2.1166935179   -1.0578182213
 H    0.8898441190    1.8850976970    0.2689875608
 H   -0.5534974835    1.9109077784   -0.7641829063
 H   -0.7242754237    1.6826133150    0.9867817011
 H   -0.3734286018   -0.5623783613    0.7235064331
 H    1.3068341721    1.1108542237   -2.1241129460
 H    1.7288414303   -3.7154115921   -1.9864888164
 H    2.7101809498   -2.4343561085   -1.2445798891
 H    0.5935637716   -2.5189271046   -0.0372791961
 H   -0.3440752084   -2.4568140719   -1.5336322743