10

 O   -0.0753717771   -0.1210427731    0.0014541432
 C   -0.0558850092    1.0838007043    0.0058116824
 C    1.2416684511    1.9079865734   -0.0009322201
 C    2.4476496750    1.0899166386   -0.0140996139
 N    3.4180810092    0.4651944191   -0.0245799391
 C   -1.2568930103    1.8946421917    0.0179405877
 C   -2.2408939186    2.5872784470    0.0280372129
 H    1.2276949903    2.5726048950   -0.8733473404
 H    1.2415474976    2.5647495122    0.8775437341
 H   -3.1239784579    3.1801768216    0.0371101932