17

 N   -0.0444532231    1.4158867528    0.1318106972
 C    0.0195914599    0.0242718144    0.0435869439
 C   -1.1474064716   -0.7556064351    0.0228980065
 N   -1.1556727575   -2.0831413746   -0.0013243859
 C    0.0156145877   -2.7293337629   -0.0065876541
 C   -0.0748336543   -4.2370409257   -0.0295983602
 O    1.2280779806   -4.7927193918   -0.0869707067
 C    1.2333110240   -2.0531807755    0.0091536772
 C    1.2351250269   -0.6648642139    0.0336365874
 H    0.7571884167    1.8999973281   -0.2464189257
 H   -0.9061998242    1.8181368886   -0.2089152676
 H   -2.1198759756   -0.2633657764    0.0270704594
 H   -0.6171530635   -4.5711125356    0.8692905629
 H   -0.6836514347   -4.5390998513   -0.8962398511
 H    1.1448876108   -5.7495554061   -0.0692766592
 H    2.1581087120   -2.6148475756   -0.0005316538
 H    2.1720994659   -0.1148870794    0.0482119599