24

 C   -0.6145918503    1.1954965401    0.2506753995
 N    0.0232831252   -0.1076060120    0.1516029845
 C    1.4214080276   -0.1427623208   -0.2617583717
 C    1.0376188284   -0.5153069891    1.1304129704
 C    1.4599279967    0.3214903232    2.3212850100
 C    0.5356920611    0.1512400458    3.5380225609
 C    1.0067127205    0.9235114219    4.7516961297
 C    0.6464226915    2.3800188572    4.9169259222
 C    0.0344723407    1.3401150117    5.8246457552
 H    0.0480361471    2.0150793462    0.5714251504
 H   -1.0153984284    1.4608744756   -0.7332455893
 H   -1.4547972199    1.1390352855    0.9509349529
 H    1.6893833400   -0.8986469276   -0.9961349748
 H    1.9369728941    0.8102227910   -0.3868342525
 H    0.9731861332   -1.5800620457    1.3594044914
 H    2.4789202571    0.0201737000    2.6008053032
 H    1.5256147516    1.3811101085    2.0532581869
 H   -0.4801178670    0.4737323238    3.2753441748
 H    0.4593288451   -0.9167423345    3.7851369946
 H    1.9993273101    0.6441544524    5.0987521137
 H    1.3850485518    3.0568727052    5.3320565335
 H    0.0075425384    2.8309521547    4.1639382650
 H   -1.0130609495    1.0956748899    5.6801371436
 H    0.3575546849    1.3052652169    6.8592790862