19

 C   -0.1956046354    1.5413400775    0.2787803138
 C   -0.0423767560    0.0677585320    0.0773543644
 C    0.0521593758   -0.6349874434   -1.1027611053
 C    0.0624228805   -0.2219216394   -2.5375507854
 C    1.4675498924   -0.1756154003   -3.1475304834
 O    1.3291507189    0.1858993400   -4.5112152902
 N    0.1837475275   -1.9589843198   -0.7139061912
 C    0.1546986084   -1.9925024929    0.6468698145
 N    0.0217059888   -0.7924679451    1.1569056252
 H    0.6829432345    1.9682922151    0.7757473217
 H   -0.3314395889    2.0658459159   -0.6710472935
 H   -1.0596418445    1.7581589216    0.9154496038
 H   -0.5512480073   -0.8991670750   -3.1454900327
 H   -0.3873000525    0.7703873664   -2.6360396712
 H    2.0807430211    0.5501180088   -2.5921248072
 H    1.9528057814   -1.1598737061   -3.0398219858
 H    2.2075907815    0.2797209673   -4.8907425691
 H    0.2513948293   -2.7506169754   -1.3315340904
 H    0.2311499744   -2.9151792572    1.2032230620