21

 C    0.0035093145    1.5347217802    0.0301378596
 C    0.0000970894    0.0097278922   -0.0005418210
 C    0.6472476768   -0.6199801628   -1.2602222641
 C    0.1178188984   -2.0656513165   -1.1476018441
 C    0.8842689921   -2.7830137197   -0.0030412593
 C    1.1056476801   -1.8780883780    1.1884325387
 C    0.7098999545   -0.6039971832    1.2061109884
 C   -1.3207870215   -1.7977838486   -0.7246183664
 C   -1.3916123688   -0.6365512888   -0.0743086791
 H    1.0264648611    1.9268621710    0.0240115594
 H   -0.5219670887    1.9457768410   -0.8380201880
 H   -0.4906459727    1.9138356383    0.9323352540
 H    0.2619863991   -0.1414485104   -2.1667569930
 H    1.7391772751   -0.5469943621   -1.2535870549
 H    0.2032480001   -2.6403070165   -2.0744653965
 H    0.3409968473   -3.6848876185    0.3147404805
 H    1.8548046727   -3.1401177759   -0.3760055283
 H    1.5934532154   -2.3154925733    2.0565556728
 H    0.8625250773    0.0174316099    2.0853604608
 H   -2.1275998414   -2.5096541733   -0.8584652250
 H   -2.2610208009   -0.2200381749    0.4226082153