17

 C   -0.0148100486    1.5150993076    0.0791751886
 C    0.0049952361    0.0255877631   -0.0043747603
 C    0.8421064412   -0.9791962764   -0.8435286214
 C    0.7689864018   -1.9900557031    0.2416829511
 C   -0.0655982452   -1.0301990129    1.1194140491
 C   -1.0973063055   -1.0105163310    0.0115596351
 C   -2.5835175746   -0.9392359908   -0.0049240026
 N   -0.2762595501   -1.9889306277   -0.8419005494
 H    0.9531073308    1.9134385140    0.4057119023
 H   -0.2538654543    1.9702819733   -0.8894403898
 H   -0.7688821153    1.8531113374    0.7985520287
 H    1.5155125421   -0.8673631210   -1.6861449393
 H    1.3755990693   -2.8619166020    0.4572330856
 H   -0.1635677532   -0.8804277949    2.1860403762
 H   -2.9388389413   -0.1596319169    0.6773184053
 H   -2.9543177360   -0.7085437186   -1.0099966658
 H   -3.0253411573   -1.8916330101    0.3086425465