19

 O    0.1846917030    1.3478244683   -0.0464939360
 C    0.0900550732   -0.0515953579    0.0263229955
 C   -1.3650221713   -0.5636546498    0.0491171070
 C   -1.4672434104   -2.0751202500   -0.1874293389
 C   -2.8992725859   -2.5397644959    0.0689419196
 C   -3.2800920479   -2.2086909380    1.5019913475
 O   -3.0531027007   -0.8309935352    1.8602081953
 C   -2.0673697894   -0.0886134820    1.3210313345
 O   -1.8102296254    0.9740618825    1.8392391727
 H   -0.3392820898    1.6776169515    0.6989216481
 H    0.5838320415   -0.4546645265   -0.8653873366
 H    0.6228269640   -0.4575174350    0.9036406991
 H   -1.8933083174   -0.0443898706   -0.7639932218
 H   -1.1483340896   -2.3087166000   -1.2079663014
 H   -0.7816381519   -2.6067899794    0.4866231888
 H   -3.5875730890   -2.0435130482   -0.6258083086
 H   -3.0074135946   -3.6191673731   -0.0809936549
 H   -4.3417588811   -2.3790729178    1.6954155460
 H   -2.7054392073   -2.8276073828    2.2029929240