16

 O    0.2963735690    1.5085708400   -0.2803249646
 C   -0.0146858981    0.1925061407    0.0645676109
 C    0.4716492628   -0.1555615603    1.4990512999
 O   -0.4358800624   -1.1344558139    2.0054730400
 C   -1.6219899397   -1.1037209091    1.3128040622
 N   -2.6168111586   -1.8324409234    1.5683534453
 C   -1.5301818328   -0.0832096622    0.2033960411
 C    0.6093598800   -0.7607237010   -0.9405563555
 O    1.2535590829   -0.3572449521   -1.8777601076
 H    0.8225814364    1.4528793073   -1.0947843434
 H    1.4823776405   -0.5704004141    1.5422932471
 H    0.4353697873    0.7597000910    2.1005144675
 H   -2.4317498089   -2.4257466772    2.3792237905
 H   -2.0088561142    0.8535817203    0.5058236604
 H   -2.0249915267   -0.4348127867   -0.7032473081
 H    0.4428537925   -1.8419771391   -0.7645559756