15

 O    0.2431858841    1.1925527027    0.5494240804
 C    0.0236189785   -0.0964901980    0.0542632441
 C   -1.4633992173   -0.4921957807   -0.0586590399
 C   -1.4361044637   -1.7107609301   -1.0046003269
 O   -2.6746884371   -2.0338573704   -1.5672477374
 C   -0.3946170164   -1.3167279082   -2.0454308305
 O   -0.3955450324   -1.6503950757   -3.2004503576
 C    0.5394163622   -0.2831880658   -1.3678045806
 O    1.4166857547    0.3553220234   -1.8856129896
 H    0.9948698408    1.5544359750    0.0590662766
 H    0.5402285253   -0.8549741699    0.6755986569
 H   -1.9216322441   -0.7109336029    0.9065293568
 H   -2.0213775789    0.3226375051   -0.5317025588
 H   -1.0131948994   -2.5727450930   -0.4510626136
 H   -2.5021007966   -2.3141041716   -2.4772500298