17

 C    0.0999614088    1.5649206953    0.1293221821
 C   -0.1329137949    0.0610049857   -0.0909524925
 C    0.6440136830   -0.4960121344   -1.2478553451
 C    0.1482710104   -0.9768431434   -2.4235109985
 O    1.1385902706   -1.3876350754   -3.2525049422
 C    2.3205090229   -1.1670797572   -2.5947769610
 C    2.0655504575   -0.6221800781   -1.3658238787
 C    3.5148312275   -1.5158682823   -3.2485433364
 C    4.5458219079   -1.8100346132   -3.7979157464
 H    1.1564100445    1.7776172720    0.3210784978
 H   -0.1987948485    2.1394395418   -0.7527396737
 H   -0.4770447816    1.9269116006    0.9858497333
 H    0.1345581371   -0.4819119930    0.8243671335
 H   -1.2005479477   -0.1238103009   -0.2544686200
 H   -0.8549270260   -1.0909782306   -2.8022090424
 H    2.8105768251   -0.3501296880   -0.6343961030
 H    5.4541376535   -2.0697102690   -4.2825190469