12

 O   -0.0183489871    0.0424975585   -0.3378754934
 C    0.0960212523    1.2076314115   -0.1812476046
 C   -0.8482478203    2.4366637449   -0.0672099696
 O    0.3288806616    3.2897032521    0.0596578828
 C    1.2784378865    2.2129493414   -0.0199608979
 C    2.0975480858    2.0545122974    1.1761586826
 N    2.7352780522    1.9107759459    2.1290238483
 C   -1.6839284288    2.7299364124   -1.2079701103
 C   -2.3721120480    2.9503422973   -2.1675903084
 H   -1.4265371580    2.4304240433    0.8664994491
 H    1.9160681933    2.2835204574   -0.9102968251
 H   -2.9861145095    3.1510531776   -3.0116028535