20

 C   -0.0614959847    1.5392394252   -0.1895622058
 C   -0.0208082820    0.0312483374    0.0724392829
 C   -1.4022745950   -0.6266067987   -0.0016712230
 C   -1.3638059164   -2.1319117156    0.2593388887
 N   -2.7049532264   -2.7066724149    0.2241901337
 C   -3.1759810455   -3.1642285081   -1.0791145696
 C   -2.7883829193   -4.1404636598   -0.0234452030
 H    0.9368191791    1.9835881297   -0.1269617704
 H   -0.4612399822    1.7569452731   -1.1863220893
 H   -0.7002947422    2.0498663201    0.5395478479
 H    0.6514994207   -0.4477062691   -0.6520336537
 H    0.4183528340   -0.1563612736    1.0614329129
 H   -2.0792916868   -0.1628414307    0.7261257324
 H   -1.8437264191   -0.4445964045   -0.9908378004
 H   -0.6890003243   -2.6206035284   -0.4698941695
 H   -0.9457610332   -2.3257292290    1.2555581990
 H   -4.2220066275   -2.9740465027   -1.3018377711
 H   -2.5028419182   -3.0625451434   -1.9298709009
 H   -1.8589667394   -4.6885763844   -0.1728239863
 H   -3.5461743016   -4.6763839525    0.5412723055