17

 C    0.0778149398    1.5885491349   -0.0265114773
 C    0.0955867077    0.0713383459    0.0445513658
 C    1.0448823613   -0.7236694937   -0.8961055388
 C    1.2900925150   -1.7271559369    0.2726898144
 C    2.6275349039   -2.2286206785    0.5186487350
 N    3.6990979485   -2.5879940615    0.7664335815
 C    0.7779289557   -0.6143587159    1.2625009630
 O    1.8117696885    0.2034040170    1.7461498211
 H    1.0784431627    1.9947740234    0.1364896896
 H   -0.2777585774    1.9217096448   -1.0073342966
 H   -0.5866981342    2.0140547311    0.7326020014
 H   -0.9207988733   -0.3277274880   -0.0468778147
 H    0.6328572234   -1.1392845238   -1.8168971365
 H    1.9503396035   -0.1591040856   -1.1260408267
 H    0.5845739245   -2.5617173441    0.2333780676
 H    0.1273799291   -0.9689272807    2.0725333353
 H    2.4175875115   -0.3356281983    2.2681929958