15

 O   -0.5491748121    0.4394708739    0.3707875628
 C    0.0268377687    1.4707246168    0.5924176917
 C    1.3452401130    1.8752013803   -0.0207798727
 O    2.0297639389    0.8458350916   -0.7514897269
 C    2.2020033831    1.7016223841   -1.9063793394
 C    1.2790776784    2.7938943788   -1.2705846627
 C    0.1486901213    2.4495174891   -2.2839435941
 C    1.0923444225    1.4204448240   -2.9494336927
 O    1.0177427521    0.7256209795   -3.9152699133
 H   -0.3951662920    2.2499710710    1.2706343108
 H    1.9869778555    2.2929823763    0.7705542751
 H    3.2455493562    1.8109940936   -2.2113003680
 H    1.5571055208    3.8383211291   -1.1585233238
 H   -0.7829563633    2.0413094908   -1.8849993264
 H   -0.0940927430    3.2729207111   -2.9625121704