16

 C   -0.2387538881    1.5727741388    0.0366247708
 C    0.0742579940    0.0624244135    0.0078649494
 N    0.7514551030   -0.3023772072   -1.2227313177
 C    1.9548141851   -0.9359151769   -1.3891197645
 O    2.4165599137   -1.1857881988   -2.4801953321
 C    2.6942549497   -1.3097153028   -0.0866510049
 O    3.7684589769   -1.8621479026   -0.1421822176
 C    2.0338627407   -0.9650156422    1.1819190106
 C    0.8480077488   -0.3499064551    1.2175328814
 H    0.6868666694    2.1542102749    0.0261590558
 H   -0.8364706719    1.8524658377   -0.8361789580
 H   -0.8098691120    1.8304199864    0.9333025158
 H   -0.8914958413   -0.4701285121    0.0500667866
 H    0.2940861447   -0.0633507759   -2.0928481255
 H    2.5638891145   -1.2449733643    2.0868795105
 H    0.3774990129   -0.1094544033    2.1672900694