15

 C    0.0015633335    1.4486331342   -0.0739615086
 C    0.0464694592   -0.0521293419   -0.2377604634
 O    1.0633190547   -0.6857242539   -0.3846012015
 C   -1.2898293856   -0.7540462273   -0.2087853172
 N   -2.4059122593   -0.1599449835   -0.0581855341
 C   -3.4365602597   -1.2092118259   -0.0915893241
 C   -2.6434692551   -2.5281787267   -0.2901509425
 O   -1.2635401850   -2.0970635233   -0.3548910040
 H    1.0172515410    1.8432610000   -0.1094088056
 H   -0.6106597459    1.8964069214   -0.8624698122
 H   -0.4784723994    1.7112211494    0.8734495668
 H   -4.0095184781   -1.1934203554    0.8412391011
 H   -4.1398479262   -1.0086972531   -0.9064914317
 H   -2.7422207089   -3.2290618354    0.5429229306
 H   -2.8816381053   -3.0481465586   -1.2216515335