22

 C   -0.0072615674   -2.6592739887    3.1161176989
 C   -0.0495733114   -2.0001860747    1.7545433064
 C   -1.0622710008   -0.9213402558    1.4770582353
 C    0.4156480348   -0.5850779602    1.4495827429
 C    1.0283984842    0.4116314927    2.3949872926
 C    0.3472785346    1.7820484878    2.3937423628
 O    1.1040011307    2.7541742645    3.0755478814
 C    1.8181135224    0.0219798115    3.5931419500
 N    2.5025452767    0.5589708685    2.4000788644
 H   -0.2245612847   -1.9502340358    3.9193838045
 H   -0.7599273417   -3.4539212417    3.1669182600
 H    0.9661456672   -3.1179830244    3.3232262427
 H    0.1240288670   -2.6952851566    0.9363540584
 H   -1.6131737709   -0.9200967387    0.5431817889
 H   -1.6356724068   -0.5705319366    2.3297403430
 H    0.8080778340   -0.4651823130    0.4403529234
 H    0.1624685123    2.0732011402    1.3448641866
 H   -0.6284217289    1.7178549006    2.8882556394
 H    2.0204579579    2.5884664477    2.8056856484
 H    1.8319155220    0.6876105912    4.4507531886
 H    1.9456893496   -1.0294544175    3.8180938980
 H    2.9322269492   -0.1979542909    1.8744779735