19

 C   -0.1888287968    1.5124254291    0.0303354222
 C    0.0342686992   -0.0087935408    0.0446314636
 C    0.7549510457   -0.4636652299    1.3148753586
 N   -1.2023367781   -0.7776497829   -0.0934658734
 C   -1.9316553474   -0.7275846574   -1.2658446760
 C   -1.5367092489   -0.5203356786   -2.5735925550
 N   -2.6968103457   -0.6664497422   -3.2752121034
 N   -3.7320726920   -0.9368295344   -2.4803004895
 N   -3.2762673402   -0.9710927934   -1.2556327943
 H    0.7651699834    2.0494102214    0.0576893323
 H   -0.7291562463    1.8217757954   -0.8688058618
 H   -0.7765792045    1.8223203056    0.9019440017
 H    0.6633945719   -0.2767505453   -0.8146699231
 H    0.1539365854   -0.2343410604    2.2033292140
 H    0.9342313927   -1.5416095359    1.2949215131
 H    1.7133279380    0.0520474027    1.4232254252
 H   -1.8093295754   -0.7341275183    0.7155668764
 H   -0.5948219486   -0.3013045342   -3.0433997027
 H   -2.8442906425   -0.5890982005   -4.2683355080