18

 O    0.0545509670    1.3796892829    0.0106359390
 C    0.0144250597   -0.0186613634   -0.0332895723
 C    0.3050766087   -0.7217617217   -1.3878881864
 C   -0.9073194000   -1.6583380599   -1.1272902557
 C   -1.3624021915   -0.7340288400    0.0430637469
 C   -1.4047551515   -1.3585326960    1.4313740157
 O   -0.0222730784   -1.4773804848    1.8474479698
 C    0.7612777851   -0.6151158680    1.1507157063
 N    1.9469882600   -0.2882075908    1.4394656136
 H    0.9192973633    1.6129742656    0.3763864093
 H    0.1185942262   -0.0187652761   -2.2032365400
 H    1.2907131205   -1.1733122713   -1.5163624973
 H   -1.6167672615   -1.7701925634   -1.9483457328
 H   -0.6171547046   -2.6544244707   -0.7820757439
 H   -2.2240477536   -0.1064096448   -0.1820944120
 H   -1.9280529521   -0.7273647644    2.1589097595
 H   -1.8384751132   -2.3615923589    1.4537205508
 H    2.2613988159   -0.7301274044    2.3038782993