17

 N   -0.0069403750   -1.1442913832    0.1352831891
 C    0.0270469945    0.0103407537    0.0836462163
 C    0.0298166233    1.4558851364   -0.0261171161
 C   -1.1939412884    2.0841887913   -0.7165329362
 N   -0.9041930230    3.2396726483   -1.5544140003
 C    0.0673018109    4.1532142104   -0.9565616347
 C    1.4462277112    3.5062997287   -0.7275439135
 C    1.3274741420    2.1784913896   -0.0171511958
 O    0.5007085474    2.1417078863    1.1454975002
 H   -1.6976445144    1.3263853357   -1.3220526507
 H   -1.8887972235    2.3782285711    0.0804049162
 H   -0.5629195842    2.9274874169   -2.4583613054
 H    0.1705626112    5.0307748580   -1.6013703131
 H   -0.3387682250    4.4979406136    0.0007090510
 H    1.9472611872    3.3334431185   -1.6892459074
 H    2.0973484830    4.1701133636   -0.1457044648
 H    2.2373486328    1.5845610813    0.0674227153