22

 C   -0.1060336777    1.3364992641   -0.4660154878
 O   -0.0727882306    0.0467099533    0.0934181949
 C   -1.2871064193   -0.6526944341   -0.0638553635
 C   -1.1260653597   -2.0417364486    0.5448478449
 C   -2.4039571596   -2.8426544167    0.4435345791
 N   -2.6894745109   -3.5095466400   -0.8426419894
 C   -2.4891227656   -4.3268094834    0.3729134656
 C   -1.3083807246   -5.2683954534    0.3104232605
 O   -1.5422366550   -6.3019997855   -0.6321379338
 H    0.8718667630    1.7936713784   -0.2957011558
 H   -0.3010218115    1.3083306740   -1.5501069293
 H   -0.8788147902    1.9673016271    0.0026359125
 H   -2.1113198940   -0.1072016175    0.4307629465
 H   -1.5515196001   -0.7406677055   -1.1308898195
 H   -0.3091847296   -2.5510661111    0.0282844522
 H   -0.8353204754   -1.9368265279    1.5970481351
 H   -3.2545444563   -2.3659908825    0.9328423568
 H   -3.6774508951   -3.4441027200   -1.0696491404
 H   -3.3810124428   -4.7754113524    0.8082749105
 H   -0.3882507346   -4.7174865222    0.0735066929
 H   -1.1630080717   -5.7589697263    1.2787521651
 H   -1.7419296288   -5.8549880897   -1.4634801772