21

 C   -0.0269007137    1.4911803791   -0.2795355840
 C   -0.0382341261   -0.0361583889   -0.1903725712
 C   -1.4148639970   -0.5968816052    0.2169483800
 C   -1.4599057160   -2.0832778430    0.2912211207
 C   -1.6526264353   -2.9711868745    1.3027219394
 C   -1.5675215170   -4.2805255406    0.7221643971
 C   -1.3274956281   -4.1017502600   -0.6038951843
 C   -1.1362591967   -5.0313243922   -1.7477869789
 O   -1.2595568202   -2.7645238619   -0.8796678019
 H    0.9588841151    1.8648449476   -0.5731010659
 H   -0.7526672978    1.8509367293   -1.0176021751
 H   -0.2825405408    1.9477880489    0.6834151385
 H    0.2468555221   -0.4699311927   -1.1553833959
 H    0.7117524352   -0.3761152042    0.5338938299
 H   -1.7018491173   -0.2009019552    1.1975493012
 H   -2.1693308754   -0.2378905000   -0.4971536335
 H   -1.8358906073   -2.7242893744    2.3371404974
 H   -1.6730618329   -5.2289304969    1.2260583690
 H   -1.8941708703   -4.8782946615   -2.5249890865
 H   -0.1555820420   -4.8963399915   -2.2188425434
 H   -1.2080870186   -6.0645696223   -1.4007692924