18

 C    0.1260434853    1.4658857596   -0.0170129218
 C    0.1424533426   -0.0456166782   -0.0254615390
 C   -0.0830427214   -0.6457239206   -1.3973848469
 O    0.1243768322   -2.0453048584   -1.4624959562
 C    0.0556370065   -2.6727167728   -0.2218743296
 C    0.8840037567   -2.2628697542    0.9579677093
 C   -0.6395903928   -2.1259251113    0.9890087445
 N   -0.5712724673   -0.6197035777    1.1468377103
 C    0.9291735311   -0.7295122292    1.0321345085
 H    0.9766711094    1.8690588549   -0.5769271082
 H   -0.7960304523    1.8433671443   -0.4726630191
 H    0.1703743190    1.8412342238    1.0082606466
 H   -1.1132627524   -0.4051725717   -1.7110400122
 H    0.5980172257   -0.1828849719   -2.1218787278
 H   -0.0487412846   -3.7451125092   -0.3543245335
 H    1.5479796186   -2.9191764160    1.5048275469
 H   -1.4011655071   -2.6522539881    1.5519561456
 H    1.5745157707   -0.1883153836    1.7175991724