14

 O   -0.0811925793    0.0020868517    0.0242702717
 C   -0.0677029729    1.1978445778    0.0140836925
 N   -1.0378577847    2.1578529119   -0.0829738087
 C   -0.1574774036    3.3206682939    0.0270111957
 C    1.0468969550    2.3176134711    0.0857511773
 C    1.8867517111    2.3395721270    1.2537764388
 C    2.5872616669    2.3503420252    2.2413075001
 C    3.3715264844    2.3653325586    3.3519437362
 C    4.0688044449    2.3811168877    4.3378351513
 H   -2.0411726423    2.0767563558   -0.1533849470
 H   -0.1638038364    3.9787189728   -0.8465868401
 H   -0.2934286898    3.9045781028    0.9407030565
 H    1.6409273739    2.3239391030   -0.8335595331
 H    4.6813685527    2.3902608608    5.2050005789