22

 C   -1.1311995642   -0.3848136314    0.3498032047
 C    0.3939928734   -0.4926745689    0.4791459974
 C    1.1048038769   -0.7511710942   -0.8399215260
 C    1.1218597433    0.3915874877   -1.8465914494
 C    1.9461658704    1.5996782051   -1.3831836633
 O    2.3770304978   -1.4214512096   -0.7236412001
 C    1.2956779301   -2.1269341914   -1.3467534357
 C    0.8164528250   -3.3952668130   -0.6857281264
 H   -1.4274450068    0.4480032061   -0.2956132273
 H   -1.5603058251   -1.2998135067   -0.0718042740
 H   -1.5910297368   -0.2201677902    1.3288958649
 H    0.7916423904    0.4293511756    0.9195177660
 H    0.6561241983   -1.2909082235    1.1779757866
 H    1.5415281483    0.0132068003   -2.7847181118
 H    0.0926571890    0.7002983663   -2.0680626627
 H    1.5078082952    2.0871098845   -0.5068327176
 H    2.9628723177    1.2890652461   -1.1249443742
 H    2.0105636803    2.3501308643   -2.1767255661
 H    1.4144004462   -2.2217986653   -2.4295053246
 H    0.6557058144   -3.2715730495    0.3865654923
 H   -0.1204106309   -3.7312920203   -1.1436961593
 H    1.5572252472   -4.1900621018   -0.8250492835