20

 C   -0.0111070316    1.5454154403   -0.0672964183
 C    1.5231373460    1.3355865689    0.0411495861
 C    1.2145733205    0.0320463093    0.8694101303
 C   -0.0685890173    0.0278877621    0.0277788960
 N   -1.2289015959   -0.7784191268   -0.3221600361
 C   -0.0192739560   -0.8081204754   -1.1890300889
 C    0.2029431305   -0.1199429500   -2.4844669689
 C    1.2410572372    0.7242873401   -2.5375707619
 C    2.1496206610    1.1279282994   -1.3745515412
 H   -0.4228886093    2.0115723423    0.8334396090
 H   -0.4115070472    2.0323400580   -0.9560830506
 H    2.0962585391    2.0942319352    0.5788557995
 H    1.8897003683   -0.8235955583    0.7769374723
 H    1.0698840522    0.2793256773    1.9265507459
 H   -1.2817053231   -1.6495388401    0.2013352278
 H    0.5808589616   -1.7147081049   -1.0807758768
 H   -0.3859342702   -0.3471749947   -3.3690880964
 H    1.4966637178    1.1802535515   -3.4921632139
 H    2.6183166005    2.0776506063   -1.6567970609
 H    2.9827499058    0.4125238796   -1.3016919230