21

 C   -0.0592448003    1.5611085713   -0.1626892043
 C    1.4031354170    2.0603990957    0.0487133012
 C    2.2326363934    0.8059337841    0.3789497550
 C    2.2270000286    0.3806209432    1.8816686587
 C    1.3078229243   -0.8580916422    1.8474560901
 C   -0.1415002988   -0.4280596566    1.5392383904
 C   -0.0190988215    0.0371326860    0.0534069142
 C    1.4496837376   -0.3915246456   -0.2355770961
 O    1.7028613436   -1.4974174809    0.6249030269
 H   -0.7695840765    2.0470622333    0.5125517035
 H   -0.3940347494    1.7903305142   -1.1792823035
 H    1.7778036532    2.5318155279   -0.8653323749
 H    1.4784177921    2.8146034961    0.8375039266
 H    3.2542246932    0.8791482967    0.0019427085
 H    3.2287648170    0.0953929288    2.2121526039
 H    1.8603881745    1.1667981674    2.5482063523
 H    1.4243686130   -1.5520861829    2.6802822759
 H   -0.8138960757   -1.2848972797    1.6276736413
 H   -0.5049101665    0.3592060718    2.2062449255
 H   -0.7418600367   -0.4852193565   -0.5758003103
 H    1.6891348679   -0.6568030121   -1.2653650147