20

 C   -0.0185448868    1.5136530616    0.0027715944
 C    0.0118594714    0.0145885824    0.0125314331
 C   -0.0230389607   -0.8133542411   -1.0873628016
 N   -0.0005297292   -2.1232174843   -0.6635567701
 C    0.0707666096   -3.2852159939   -1.5237223738
 C    1.5087422461   -3.6594518506   -1.8907164890
 O    1.4320832632   -4.7955272457   -2.7331830225
 C    0.0593536303   -2.1378439926    0.7085950867
 C    0.0656726545   -0.8380850171    1.1557171857
 H    0.8634454530    1.9419040076    0.4937979261
 H   -0.0458338598    1.9016596405   -1.0199618441
 H   -0.8971877018    1.9078063847    0.5273545609
 H   -0.0712524812   -0.5792711831   -2.1401115317
 H   -0.4043803786   -4.1332863783   -1.0220900999
 H   -0.4940671458   -3.0904598652   -2.4402276920
 H    1.9893224062   -2.8056332825   -2.3921267118
 H    2.0763214354   -3.8662062056   -0.9705811250
 H    2.3251069437   -5.0544828924   -2.9768079489
 H    0.0847541907   -3.0741856807    1.2443363483
 H    0.0879939299   -0.5253153938    2.1892986554