20

 C    0.0691367059    1.5445278790    0.2636781878
 C    1.5506046636    1.5464478527   -0.2275289326
 C    1.4128468955    0.0828636796   -0.6418977407
 C   -0.1041302829    0.0437328593   -0.0657972681
 C    0.4243196034   -0.9082215122    1.0986669709
 C    1.7008577069   -1.0929811350    0.2371185817
 C    3.1932242797   -0.9146437391   -0.1932353002
 N    2.4132461039   -0.7136842724   -1.5444113085
 C    1.5884541653   -1.9139797039   -1.0673624227
 H   -0.0871862864    1.8099207763    1.3126901419
 H   -0.5702794349    2.1816153649   -0.3519528536
 H    1.7102124002    2.2115645634   -1.0808453143
 H    2.3154527299    1.7756046579    0.5232393715
 H   -1.0140623275   -0.2650131155   -0.5805239061
 H    0.5551675564   -0.3651130877    2.0386868247
 H   -0.1484172669   -1.8185273816    1.2940165974
 H    3.7178405715   -0.0199657571    0.1466981341
 H    3.8605651621   -1.7816096428   -0.2266930018
 H    2.1280520419   -2.8641633740   -1.1167847220
 H    0.6110639725   -1.9857968018   -1.5514408194