15

 O    0.0053947199    1.4719870462   -0.0387339106
 C    0.0445493188    0.0555884271   -0.0083164977
 C    0.6543776236   -0.4833302361   -1.2398081998
 N    1.1661932926   -0.8507499914   -2.2079187410
 C    0.7588789407   -0.4802533083    1.2363068437
 C    0.0810635642   -0.1254188934    2.5905252881
 N   -0.1276025760   -1.5632521725    2.7852179880
 C    0.4585779792   -1.9658327832    1.6119240959
 O    0.6383475079   -3.0351084207    1.1008503246
 H    0.8994232305    1.7981583975   -0.1958293344
 H   -1.0047217449   -0.2599587209    0.0179882784
 H    1.8283413338   -0.2591147286    1.1931304811
 H    0.7408405768    0.3394553963    3.3286001149
 H   -0.8391690837    0.4591662553    2.5005723170
 H   -0.5375903134   -2.0922754074    3.5404749017