18

 N   -0.0108750993   -1.1898499506    0.2322993987
 C    0.0103103348   -0.0345248600    0.2195531455
 C    0.0616408177    1.4243450170    0.1916626849
 C    1.4369777050    1.9583658104   -0.2727686948
 C    1.4522977770    3.4543027318   -0.2972847621
 C    0.8248046467    4.4208587530   -1.3236494736
 C    1.9316549764    5.4668265720   -0.9426738333
 C    2.4823750649    4.4464685886    0.0612529380
 O    1.4156187685    4.1339094251    0.9692417482
 H   -0.7319577820    1.7880322194   -0.4709556950
 H   -0.1579121192    1.8092588773    1.1930521383
 H    2.2121857337    1.5984067723    0.4100140728
 H    1.6658450051    1.5658620121   -1.2690781039
 H    0.9165284281    4.0738619500   -2.3558784230
 H   -0.2109606885    4.7044095043   -1.1231378407
 H    2.6149420294    5.6729182755   -1.7695056407
 H    1.5924297194    6.4073894998   -0.5036599024
 H    3.4939080923    4.3171361820    0.4301860431