18

 C    0.0333391090    1.4922156763    0.0932718374
 C    0.0103672230   -0.0031443528    0.0004186889
 C   -0.9612342134   -0.8789472651    0.8099887942
 C   -1.0891101465   -2.2289722462    0.1081306940
 C    0.4168727395   -2.0707559405   -0.2275844477
 C    0.5353063944   -1.0408474812    0.9667467419
 C    0.4732236551   -0.8475440293   -1.1989517920
 C   -0.3224519388   -0.8706150265   -2.4234123486
 N   -0.9660427503   -0.8842335397   -3.3842959341
 H    1.0184459128    1.8942842862   -0.1683129979
 H   -0.7035248307    1.9413917254   -0.5819409971
 H   -0.2019699861    1.8231066444    1.1100466060
 H   -1.6517884746   -0.4152220446    1.5028773191
 H   -1.2463029479   -3.0345942186    0.8300259000
 H   -1.7873454671   -2.3362614035   -0.7282068807
 H    1.0547117260   -2.9310321468   -0.4137181352
 H    1.1982029490   -0.9629150298    1.8158765267
 H    1.5104396565   -0.6027950178   -1.4475206048