19

 C   -0.0205979872    1.5035385120   -0.0425578985
 C    1.3952218094    2.0949041357   -0.0008518058
 C    2.0735215292    1.7663947497    1.3399541200
 C    1.8932092262    0.3221771505    1.7053054005
 C    2.5361821801   -0.5097601364    2.6049931198
 C    1.8618771493   -1.7413577986    2.4989113035
 N    0.8762048683   -1.6938399815    1.6055159555
 N    0.9069096707   -0.4271196730    1.1409100951
 C    0.0259360893   -0.0226806105    0.0572733975
 H   -0.6118961840    1.9093356307    0.7878550241
 H   -0.5343891205    1.7806479638   -0.9681633154
 H    1.9862265505    1.6796074059   -0.8271189507
 H    1.3631811555    3.1790367915   -0.1460219962
 H    3.1401002875    2.0110899657    1.3074292693
 H    1.6395425632    2.3993305761    2.1267975101
 H    3.3640527464   -0.2529851228    3.2465861247
 H    2.0503582082   -2.6595613315    3.0363364454
 H   -0.9611661025   -0.4507788583    0.2484507233
 H    0.3945410802   -0.4539350189   -0.8827866420