19

 C   -0.1973692803    1.3939285031    0.5189744649
 C    0.0117341201   -0.0274105130    0.0137505813
 C    1.3721595565   -0.3922497327   -0.5314010103
 C    0.9344005972   -0.9362598493    0.8054516721
 C   -1.1764430966   -0.6414759821   -0.6344060594
 C   -1.5676356665   -0.7524165513   -1.9566338626
 C   -2.8247614438   -1.3913319058   -1.9150068026
 N   -3.2028759949   -1.6639417632   -0.6691762851
 N   -2.1897937607   -1.1963118492    0.0855095596
 H    0.7140545191    1.7791198470    0.9871799468
 H   -0.4676004267    2.0643546163   -0.3034260760
 H   -1.0017361238    1.4390798714    1.2614500821
 H    1.4180817219   -1.0814625175   -1.3663908372
 H    2.1298492323    0.3837681054   -0.5451624698
 H    1.3936929235   -0.5308209735    1.7008354674
 H    0.6889132230   -1.9907203777    0.8644074380
 H   -1.0169861503   -0.4149167179   -2.8197578541
 H   -3.4664839685   -1.6666917570   -2.7393535301
 H   -2.2329746014   -1.3048471830    1.0850755948