23

 C    0.1458297787    1.6210884138    0.2081658616
 C   -0.2326957285    0.1403788681    0.2998466332
 C    0.7535791382   -0.6618872176    1.1318282550
 C    0.6666822820   -2.2001147808    1.0570123312
 C    2.0389402519   -2.1181085663    0.3596127975
 O    2.0872568412   -0.6753910724    0.5399136166
 C    3.2291074624   -2.7751657193    1.0575416918
 C    4.5375110784   -2.5126398621    0.3078565783
 O    3.3040714659   -2.3275712013    2.4036288468
 H    1.1494652241    1.7306339322   -0.2125080863
 H   -0.5537823963    2.1720093206   -0.4271864749
 H    0.1422704389    2.0928148752    1.1972074364
 H   -1.2290882479    0.0255816041    0.7474967697
 H   -0.2854799935   -0.2968856008   -0.7052702731
 H    0.8011785122   -0.2570964492    2.1518398031
 H    0.6981020194   -2.7037697393    2.0234212939
 H   -0.1529376938   -2.5943268762    0.4533390280
 H    2.0303844040   -2.3813908162   -0.7063874443
 H    3.0422691322   -3.8556372770    1.1107840672
 H    4.6976442539   -1.4354262304    0.1903537070
 H    5.3791220786   -2.9298693446    0.8663028720
 H    4.5208444792   -2.9642984143   -0.6898369391
 H    3.2992097987   -1.3626244463    2.3472647583