22

 C   -0.2881179795    1.4287497153    0.2863576304
 C    0.0374372336   -0.0234442045   -0.0491045863
 C    1.3404854811   -0.2352711884   -0.8854135996
 C    2.0759760658   -0.7514397744    0.3875857642
 C    0.7160914273   -0.8063249952    1.0932848354
 N    0.4491012297   -0.6016206974    2.5167294647
 C    0.1959386922   -1.9298772575    1.9062069589
 C   -1.2579965943   -2.3372605156    1.9348145696
 O   -1.6948763747   -2.5804219566    3.2614415576
 H    0.5897985435    1.9506122520    0.6830762245
 H   -0.6254363491    1.9673457368   -0.6055639068
 H   -1.0734781355    1.4885111541    1.0453854649
 H   -0.8466719191   -0.5128151314   -0.4694515225
 H    1.2355876926   -1.0040418814   -1.6540662754
 H    1.7554842499    0.6639328690   -1.3466091898
 H    2.6231305519   -1.6936967524    0.2982096607
 H    2.7462921944   -0.0024518084    0.8221196916
 H    1.3210951672   -0.6092966603    3.0407416823
 H    0.8992410096   -2.7252576100    2.1508755776
 H   -1.8677187399   -1.5587257385    1.4519654271
 H   -1.4080338947   -3.2705006644    1.3813773275
 H   -1.4726151419   -1.7817048207    3.7553669934