16

 C   -0.0378842253    1.5239629557   -0.0092755248
 C   -0.0102925611    0.0212442455   -0.0120808921
 C   -0.0241350292   -0.7141600958   -1.1940422282
 C    0.0025101562   -2.1044826074   -1.1481546437
 N    0.0418071514   -2.8069367709   -0.0121775807
 C    0.0552926124   -2.1123164856    1.1222961306
 C    0.0311021615   -0.7100794286    1.1933236659
 C    0.0484874108   -0.0602298391    2.4590014846
 C    0.0633466097    0.4857011462    3.5328833972
 H    0.8440970801    1.9303745054    0.4971165164
 H   -0.0688644190    1.9210905882   -1.0263742412
 H   -0.9097003626    1.8981007070    0.5379441727
 H   -0.0556835029   -0.2047026847   -2.1516848900
 H   -0.0081476588   -2.6818859213   -2.0695415260
 H    0.0872635610   -2.6850351475    2.0455405434
 H    0.0765687260    0.9631593230    4.4813573361