17

 C    0.0394228652    1.5773980985   -0.0295381757
 C    0.0362058289    0.0606897217    0.0407862767
 O    0.7466054094   -0.4699199803   -1.1028797178
 C    1.4862501304   -1.5780030455   -0.6620455331
 C    2.4976213692   -1.3503313343    0.4774558013
 O    2.1792476529   -0.1265477375    1.1350346317
 C    0.7815932281   -0.5500228096    1.2244686096
 C    1.1598577690   -1.9818986863    0.7424433778
 O    0.7832352114   -3.1951660873    1.2662999906
 H    1.0627138830    1.9481118302    0.0567985562
 H   -0.3811094724    1.9120729092   -0.9813787000
 H   -0.5652204715    1.9984304480    0.7802824482
 H   -0.9990911696   -0.3241064974    0.0318819670
 H    1.7183416842   -2.3079059492   -1.4292614774
 H    3.5205203172   -1.7069150492    0.4998212969
 H    0.3564561428   -0.3998127423    2.2174706043
 H    0.0524187418   -3.5439410686    0.7432724637