17

 C    0.1689329897    1.5486447269   -0.0912870530
 C    0.1117493735    0.0968494026   -0.0248100537
 C    0.0612529962   -1.1048817444    0.0326032604
 C    0.0141014303   -2.5516987105    0.1012139275
 O    0.1208703106   -3.0783761932    1.4495431762
 C   -1.2296555417   -3.5722791376    1.4352757679
 C   -1.3889533179   -3.2509743920   -0.0734384231
 C   -2.5308055731   -2.4794943300   -0.5038726229
 C   -3.4913445002   -1.8474592705   -0.8543846580
 H    1.1985736630    1.9031616923   -0.2101800066
 H   -0.4139061477    1.9257445360   -0.9387311260
 H   -0.2380616825    2.0017287244    0.8191740664
 H    0.7899381566   -2.9878486704   -0.5393440273
 H   -1.2864394751   -4.6308627009    1.7092437085
 H   -1.8919099711   -2.9868722083    2.0833773870
 H   -1.2828642772   -4.1479864886   -0.6891868933
 H   -4.3360490734   -1.2840951558   -1.1650028899