17

 N   -0.0391390467    1.2200414526   -0.0044329549
 C   -0.1185046673   -0.0194436982   -0.2287086871
 O   -1.1349573524   -0.7346448788    0.2887496503
 C   -1.0846338057   -2.1487081291    0.1007790340
 C   -2.4744059188   -2.7072047645    0.3819417373
 C   -2.5004570483   -4.2106064327    0.2616037769
 C   -3.6305622936   -4.9296687677   -0.3368768617
 O   -2.4165532149   -4.7424086264   -1.0660503736
 H    0.7701817777    1.6072411321   -0.4851829301
 H    0.5737699359   -0.6180570327   -0.8379002235
 H   -0.7837716480   -2.3904623637   -0.9265155823
 H   -0.3442862053   -2.5863046061    0.7853324554
 H   -2.7816530024   -2.4120400037    1.3920352915
 H   -3.1866262261   -2.2647968617   -0.3215838992
 H   -1.8876985200   -4.7512553881    0.9861390714
 H   -3.8423927051   -5.9543563232   -0.0352728092
 H   -4.4878138390   -4.3668999281   -0.7040708953