20

 C    0.1670405764    1.5357637475    0.1762307868
 C   -0.0665039875    0.0336788028   -0.0513274774
 C    0.6861342849   -0.4852271507   -1.2543067668
 N    0.2593758314   -0.0547993982   -2.4508857093
 C    0.9129496837   -0.4849797510   -3.5307722264
 C    2.0032595305   -1.3469479813   -3.4887468455
 C    2.4596078158   -1.7999482823   -2.2503121914
 C    3.6517850058   -2.7143918063   -2.1360520464
 C    1.7730986875   -1.3515487083   -1.1217304996
 H    1.2210079491    1.7432951931    0.3890551114
 H   -0.1150314547    2.0987691539   -0.7173063630
 H   -0.4276374845    1.9004621258    1.0193144024
 H    0.2247956196   -0.5324207601    0.8399358936
 H   -1.1361176799   -0.1410471448   -0.2131124581
 H    0.5412098729   -0.1252821037   -4.4882116029
 H    2.4853360232   -1.6620822729   -4.4086892992
 H    4.5854566557   -2.1388784732   -2.1359833390
 H    3.6244911181   -3.2933776195   -1.2089637025
 H    3.7018783256   -3.4114355093   -2.9775984847
 H    2.0808181665   -1.6791292914   -0.1330068319