15

 O   -0.0205956936    1.4188250190   -0.0390064973
 C   -0.0073816612    0.0019274645   -0.0739877622
 C   -1.4125380978   -0.5077483352    0.0279100831
 C   -2.4649050469    0.3113977774    0.1316424412
 O   -3.7511046871   -0.1546423226    0.2251427604
 C   -3.9010956404   -1.4984509195    0.2068207742
 N   -2.9890477012   -2.3770383427    0.1130271226
 C   -1.6421518031   -1.9542000099    0.0134224652
 N   -0.6623939967   -2.7697908991   -0.0844208743
 H    0.8862990326    1.7270808259   -0.1122969907
 H    0.4387090725   -0.3869998760   -1.0019249556
 H    0.5809131560   -0.4288065093    0.7504926016
 H   -2.4167237918    1.3895086931    0.1522577113
 H   -4.9510922565   -1.7651974769    0.2858432111
 H   -1.0219484050   -3.7262999887   -0.0770296206