18

 O   -0.0206830776   -0.1123628328    0.0574115163
 C    0.0607220899    1.0869703142   -0.0168006721
 C    1.3639360161    1.8373854088   -0.2096852532
 C    1.3259153884    2.9089758006   -1.2927541292
 C    0.4326197908    2.7736076132   -2.4536147698
 O    0.1092308491    3.6638493601   -1.3739127835
 C    2.5815470030    3.7303767127   -1.3951579753
 C    2.5573105149    5.0898036588   -1.9794134693
 N    2.7412656626    4.9110284265   -0.5254983217
 H   -0.8355817459    1.7362242871    0.0719481953
 H    1.6010602648    2.3286634425    0.7460046586
 H    2.1606294693    1.1150866890   -0.4118259453
 H    0.6951094966    3.2606114415   -3.3901368854
 H   -0.2158917636    1.9029222464   -2.5442918977
 H    3.4888264289    3.1362526990   -1.4876641993
 H    3.4280377219    5.4619481249   -2.5108729940
 H    1.6006788615    5.4699444582   -2.3237741288
 H    1.8493004593    5.1019541291   -0.0708779158