23

 C   -0.0664413327    1.6563436755   -0.0065137313
 C   -0.0139004731    0.1238939817   -0.0129173191
 C    0.7486659561   -0.4730210681   -1.2032432554
 O    0.1346291541   -0.0751189944   -2.4389989173
 C    2.2551384550   -0.1470855533   -1.2454266272
 C    2.7736298668   -1.2532161528   -2.1617841993
 O    2.0405105178   -2.4091235200   -1.7845202444
 C    0.7570971053   -2.0297543289   -1.2681779394
 C    0.5424138008   -2.7861570444    0.0377053788
 H    0.9337788077    2.0999408218    0.0399141293
 H   -0.5719229492    2.0454664375   -0.8970272115
 H   -0.6264449966    2.0182133180    0.8605962038
 H    0.4435372474   -0.2250927550    0.9189183645
 H   -1.0377875778   -0.2676655310   -0.0305912714
 H    0.2651161151    0.8729645966   -2.5436554001
 H    2.4601450208    0.8609152561   -1.6177386282
 H    2.6940391138   -0.2394344816   -0.2457360878
 H    2.5881828164   -0.9955156879   -3.2147520283
 H    3.8386872106   -1.4706735541   -2.0372797702
 H   -0.0193203004   -2.3167071146   -1.9894795634
 H    1.2704445546   -2.4884828619    0.7987941366
 H   -0.4661394915   -2.6316891863    0.4323533617
 H    0.6755529188   -3.8552730729   -0.1486265903