13

 O   -0.0834713537    1.2546970752   -0.3150400288
 C    0.0111290816   -0.0349222862   -0.0197084539
 N    1.1864704596   -0.5692829914    0.0059739342
 C    1.4959966275   -1.8820591196    0.1798100074
 N    0.8077509795   -2.9701159527    0.0232843999
 C   -0.5380812005   -3.0020613679   -0.1923406405
 C   -1.4977386468   -2.0509896071   -0.0162570227
 C   -1.3455701125   -0.6395169229    0.2880906328
 O   -2.2549384785    0.0814989101    0.6500795323
 H    0.8185584961    1.5667322246   -0.4921932195
 H    2.5460765983   -2.0286892936    0.4315764833
 H   -0.8906269861   -3.9935292312   -0.4726916422
 H   -2.5349058447   -2.3577051373   -0.1179962824