14

 O   -0.2329966109    0.2473219442   -0.6330362432
 C    0.0815591450    1.0976947069    0.1654018002
 C    1.3179954863    1.8403976195    0.1075828473
 C    2.3473613597    2.4743363829    0.0868500024
 C    3.5599241707    3.2733869570   -0.0032471418
 O    3.5543871937    4.3966371437   -0.4562633088
 N    4.6714778517    2.6510218936    0.5409387600
 C    5.2787085614    1.4307090619    0.0345310884
 C    5.9897675186    2.7507925981   -0.0431149522
 H   -0.5697276642    1.3732736036    1.0183829340
 H    5.5660183321    0.7011053441    0.7854420537
 H    4.8789294405    1.0157968128   -0.8868241414
 H    6.0615654799    3.2399387563   -1.0104033915
 H    6.7961741656    2.9678929055    0.6505573829