15

 C    0.0589600746    1.4638123597   -0.1495221446
 C    0.0028507683   -0.0202952452   -0.0435364379
 N    0.1231240113   -0.8489916449   -1.0769729234
 N    0.0002406836   -2.0362093508   -0.4876702827
 C    0.0995255063   -3.2850543622   -1.2063071498
 C    1.4968587946   -3.5097980670   -1.7879938400
 O    1.7124502831   -4.3278455530   -2.6371375290
 N   -0.1760136273   -1.9653394199    0.8275034476
 N   -0.1806967224   -0.6935546373    1.1236378071
 H    0.8504985612    1.8651934342    0.4896092693
 H    0.2497059819    1.7598170994   -1.1819148203
 H   -0.8846586408    1.9094975938    0.1788071550
 H   -0.1217118219   -4.0817342987   -0.4903418537
 H   -0.6368099875   -3.3194925962   -2.0127406172
 H    2.2923997451   -2.8702438917   -1.3498916704