20

 C    0.2588984904    1.5547785318   -0.4888111181
 C    0.0555180998    0.0947791355   -0.1465007431
 C    1.2241783708   -0.8510048955   -0.0281357990
 C    0.4184662987   -0.5006262328    1.2014039425
 C    1.0328811883    0.3002058008    2.3161369886
 C    0.0861124294    0.8560322818    3.4296112595
 N    0.8356739550    0.0375542524    4.3845499448
 C    1.6920440149   -0.5211766923    3.4665765621
 O    2.5775986268   -1.3274360727    3.5586532797
 H    1.1910701178    1.9490843177   -0.0737312895
 H    0.3074635767    1.6916442485   -1.5746618069
 H   -0.5626766648    2.1756444297   -0.1133442262
 H   -0.8417016035   -0.3315592559   -0.5886147685
 H    1.1431583177   -1.8533876183   -0.4329491657
 H    2.2198814270   -0.4246849272   -0.1029998307
 H   -0.2541658323   -1.2790083960    1.5552411920
 H    1.7213553991    1.0590312454    1.9367106601
 H    0.1497771466    1.9338342031    3.6104388286
 H   -0.9635026934    0.5646960929    3.3164999287
 H    0.7401548749   -0.1009212785    5.3794598110