11

 O   -0.0220338801    1.3158722442    0.0097550654
 C    0.0353538634   -0.0246686590    0.0022856104
 N    1.1944869999   -0.6089906985   -0.0076684541
 N    1.1543680313   -1.9637036606   -0.0147441843
 C    0.0240716687   -2.7577778581   -0.0123880118
 O    0.0566822309   -3.9747947556   -0.0192544243
 C   -1.1930792525   -1.9253262063   -0.0008441780
 N   -1.1942178006   -0.6343866903    0.0061452915
 H    0.8869112463    1.6443576429    0.0061773083
 H    2.0567681784   -2.4200847202   -0.0225209056
 H   -2.1438563857   -2.4547344883    0.0018439825