17

 O    0.1202319423    1.2851349128   -0.3205840776
 C    0.0691679256   -0.0337990414    0.2101574573
 C   -1.3193093141   -0.6234174079    0.1215760597
 C   -1.9120796132   -1.2321781539   -1.1288360618
 C   -0.8792838816   -2.0570816971   -1.9126893051
 C   -0.6374468939   -2.9353326751   -0.6428860546
 C   -1.6644428516   -2.0876172133    0.1227273887
 H   -0.2550278670    1.2462016707   -1.2066675328
 H    0.8076401692   -0.6842209661   -0.2797827040
 H    0.3718592574    0.0587797621    1.2589645719
 H   -2.0516158172   -0.0290456552    0.6652782768
 H   -2.8555887675   -0.8809412342   -1.5301247182
 H   -1.3296091066   -2.6286848079   -2.7267582034
 H   -0.0183685452   -1.5128883434   -2.3155721636
 H   -0.9802388833   -3.9616313778   -0.7911294887
 H    0.3782971627   -2.9702099543   -0.2374754775
 H   -2.3890459762   -2.4852764182    0.8237824529