15

 N    0.2792805484    0.1084600306    1.0210093178
 C    0.0307719949    0.1626737795   -0.3130764698
 O    0.5252974009    0.9826388279   -1.0609096005
 C   -1.0049407661   -0.8574392704   -0.8268680918
 C   -0.9214335849   -2.2380640405   -0.2601948063
 N   -0.8152633546   -3.3143446378   -1.0248115557
 N   -0.7853402837   -4.3176616313   -0.1134846075
 C   -0.8670926220   -3.8230638110    1.1335593354
 N   -0.9588216467   -2.5090843626    1.0841838376
 H    0.9635720522    0.7436849818    1.3968461546
 H   -0.0838260222   -0.6467969825    1.5854440554
 H   -1.9943552497   -0.4374475976   -0.6038269232
 H   -0.9005112557   -0.9011216001   -1.9102772966
 H   -0.7066231295   -5.2729847312   -0.4214241301
 H   -0.8590409514   -4.4364939851    2.0218111106