18

 O    0.5964108413    0.0643657065   -1.0206258603
 C   -0.0968915782    0.2348454565    0.1989916355
 C   -1.5875305412    0.4253170905   -0.0175554054
 O   -2.0650616281   -0.7709760617   -0.6313137181
 C   -3.3726969170   -0.7646601885   -0.9826078308
 C   -4.3857516926    0.1581324551   -0.8652627211
 C   -5.5503682970   -0.4525679042   -1.4308078457
 C   -5.2068448556   -1.7052873206   -1.8636541483
 N   -3.8643849066   -1.8883418332   -1.5847989322
 H    0.1417404729   -0.6413551890   -1.4939466674
 H    0.0614138429   -0.6176981015    0.8784363521
 H    0.3141142925    1.1279266400    0.6805665976
 H   -2.1108019602    0.5951984079    0.9336423597
 H   -1.7737529708    1.2784603854   -0.6830260826
 H   -4.3128077377    1.1417948637   -0.4323698062
 H   -6.5293274168   -0.0048715769   -1.5054037809
 H   -5.7812063794   -2.4811157853   -2.3415765822
 H   -3.3196264184   -2.7115985845   -1.7713509537