25

 C   -0.0762934267    1.5365420019    0.2068510150
 C   -0.0139016744    0.0270711993   -0.0531773358
 C    0.7753553820   -0.4426335049   -1.3082748108
 C    2.2066542576    0.1391782906   -1.2796342329
 C    0.8282788245   -1.9904571568   -1.2751602608
 C    1.1575692657   -2.6145275228   -2.6357644473
 C    0.1006507919   -2.2304417252   -3.6794878826
 C   -0.2421742331   -0.7662907540   -3.6017878326
 C    0.0687940645    0.0161660788   -2.5685573743
 H    0.9154604435    1.9638137178    0.3815295100
 H   -0.5328990812    2.0815698458   -0.6253154563
 H   -0.6804152559    1.7406045580    1.0966905852
 H    0.4341376736   -0.4617266472    0.8228377263
 H   -1.0360264321   -0.3642691670   -0.1301730875
 H    2.6923454773   -0.0690418331   -0.3187007049
 H    2.8224844100   -0.2935317496   -2.0730837634
 H    2.2053118869    1.2231461632   -1.4278678520
 H    1.5551474250   -2.3116224268   -0.5192350996
 H   -0.1489298407   -2.3683388451   -0.9455566768
 H    2.1415822663   -2.2699155277   -2.9760090677
 H    1.2256977618   -3.7040652253   -2.5445707196
 H    0.4511246304   -2.4773787596   -4.6895816683
 H   -0.8112138273   -2.8294737551   -3.5332875358
 H   -0.7730626078   -0.3399865002   -4.4506531520
 H   -0.1932451720    1.0712709048   -2.6125935151