24

 C   -0.2665054334    0.2314179581   -0.8466049154
 O   -0.1306489882   -0.8024723722    0.1015082599
 C    0.7549046662   -0.5429354469    1.1839374965
 C    0.4423944216   -1.6132347773    2.2495429883
 C    1.3569093799   -1.5091757435    3.4780921968
 C   -1.0336618969   -1.5511595344    2.6661378872
 C    2.2003649039   -0.5612393518    0.7151934700
 C    2.8559720255    0.6700833097    0.2014321669
 N    3.2623442271    0.0996888454    1.4938780171
 H    0.6391138695    0.3727141255   -1.4507588106
 H   -1.0879833251   -0.0529943705   -1.5095049437
 H   -0.5171975429    1.1915071929   -0.3681755497
 H    0.5399760971    0.4589561637    1.6059609762
 H    0.6210229433   -2.5839767829    1.7669224422
 H    1.1008024937   -2.2880986326    4.2032470818
 H    2.4134242717   -1.6205583320    3.2236893558
 H    1.2286083584   -0.5439569462    3.9847340128
 H   -1.6907835820   -1.6409357001    1.7999793037
 H   -1.2696208236   -2.3563136833    3.3692699965
 H   -1.2568129251   -0.6004496239    3.1666570936
 H    2.5079194184   -1.5161103798    0.2919340267
 H    3.6015073452    0.6035199918   -0.5859021194
 H    2.2801600341    1.5923014625    0.2026390226
 H    2.8467013317    0.6394280577    2.2500615042