15

 N   -0.1897699532    1.5251543121   -0.1385090965
 C    0.0417649727    0.0848275204    0.0060890652
 C   -1.3090598682   -0.7078284425    0.0214338633
 O   -1.4792635178   -1.3852950198   -1.2619685972
 C   -0.2561389944   -1.3832705234   -1.8373621888
 C    0.3965988150   -1.8942466880   -2.9071112392
 O    1.6816445291   -1.4332781529   -2.8687119393
 N    1.8682185289   -0.6104646231   -1.7538837319
 C    0.7038751858   -0.6009555789   -1.1654295108
 H    0.7042869092    2.0091027450   -0.1364451992
 H   -0.6023950810    1.7129622749   -1.0497009556
 H    0.5784118359   -0.0710504126    0.9453439491
 H   -1.3069694383   -1.4745396433    0.8022599821
 H   -2.1594815449   -0.0397992698    0.1660445639
 H    0.1515793012   -2.5426129681   -3.7303951151