14

 N    0.1397644874    1.3306862886    0.1647758386
 C   -0.0469755082   -0.0257956833    0.0540268578
 C   -1.1962643401   -0.7195442957    0.0189119297
 C   -1.1726278254   -2.1735432865   -0.0072197056
 N   -2.2496175599   -2.8623519657   -0.0298558942
 N    0.1149632008   -2.7699139848   -0.0144153851
 C    1.1332466738   -2.0135894355    0.0058056679
 O    2.3862404459   -2.4680298187   -0.0076688764
 O    1.1745061906   -0.6624495514    0.0425433344
 H    1.0016457573    1.6709682406   -0.2373433586
 H   -0.6649938855    1.8897954054   -0.0736718900
 H   -2.1509939822   -0.2123378312    0.0175014737
 H   -2.0057581513   -3.8540488885   -0.0505507348
 H    2.3166903266   -3.4323993533   -0.0330316375