18

 C    0.0681788979    1.5481962978    0.1114713831
 C   -0.0138348915    0.0185496639   -0.0382412840
 C    0.7072185115   -0.5060057188   -1.2485513263
 C    0.1228027399   -0.9127924200   -2.4216829200
 N    1.1210550121   -1.2952820252   -3.2966992835
 C    2.3342988860   -1.1451277768   -2.7122685574
 C    2.1289859151   -0.6539793192   -1.4312365135
 C    3.1957133857   -0.3771462062   -0.4793813697
 O    4.3817200439   -0.5190622960   -0.7022304143
 H    1.1054194875    1.8828906797    0.2100908158
 H   -0.3581846943    2.0475096047   -0.7640652937
 H   -0.4803776212    1.8831374222    0.9976136952
 H    0.3830631152   -0.4537072378    0.8683860343
 H   -1.0667691247   -0.2800229178   -0.0975444716
 H   -0.9155953015   -0.9679647832   -2.7080374623
 H    0.9681269155   -1.6435835634   -4.2276976265
 H    3.2540581671   -1.3936133307   -3.2156225198
 H    2.8512555559   -0.0142716133    0.5150226242