22

 C    0.0792558112    1.5422510737   -0.2675124567
 C    0.0519281772    0.0482220187   -0.0249685547
 C    1.3244066143   -0.7663280653   -0.0071761349
 C    0.5223434768   -0.5913903538    1.2627189420
 C    1.0738136509    0.1964843043    2.4341498928
 C    1.9474364705   -0.6634834155    3.3561385095
 C    2.5028012601    0.1117951401    4.5428697468
 O    3.2837848503   -0.7798377490    5.3254482901
 H    0.9720651003    2.0113964986    0.1554594092
 H    0.0770395543    1.7590874106   -1.3415922283
 H   -0.7948413818    2.0368643021    0.1715349374
 H   -0.8028241208   -0.4447720493   -0.4823401829
 H    1.3418810726   -1.7346754578   -0.4955670725
 H    2.2611367766   -0.2200842808   -0.0783137410
 H   -0.0512203800   -1.4636494957    1.5702267063
 H    1.6616265044    1.0480115224    2.0706759164
 H    0.2434314241    0.6246288656    3.0135069405
 H    1.3686378272   -1.5135944470    3.7379242898
 H    2.7850615237   -1.0870251075    2.7896987452
 H    3.1087769636    0.9599330111    4.1823620290
 H    1.6726407083    0.5356856852    5.1323529392
 H    3.6345073562   -0.2921118209    6.0761362866