14

 O   -0.0045987948    1.4520724439   -0.0833600980
 C    0.0084556890    0.0460126121   -0.0003257120
 C    0.1408078482   -0.5701022457    1.4311661451
 O   -1.1767010192   -1.1354496602    1.3562779676
 C   -1.4339361635   -0.5222336232    0.0830323977
 C    0.8755141056   -0.5494012267   -1.0049058390
 C    1.6285590850   -1.0169762654   -1.8269425748
 C    2.4732070369   -1.5514349460   -2.7569041041
 N    3.1943321876   -2.0040780234   -3.5471062418
 H    0.9030871421    1.7698454092   -0.1515025086
 H    0.9147216566   -1.3320207667    1.5686955262
 H    0.2266677300    0.2079358640    2.1994472353
 H   -2.1721120999    0.2857550950    0.1396272027
 H   -1.7190438235   -1.2485174068   -0.6835044965