15

 O    0.0698258143   -0.1184939558    0.0010187684
 C   -0.0165439889    1.0931832897    0.0089935028
 C   -1.2101286286    1.9333061407    0.0301064820
 C   -1.1417516907    3.2971661833    0.0365019421
 N    0.0206917316    4.0477271397    0.0243125016
 C    1.0688239688    3.2970774413    0.0056232790
 C    2.5809935163    3.4190609024   -0.0149602880
 C    2.5734492724    1.8458758914   -0.0233898896
 N    1.1041805256    1.9398507499   -0.0020999870
 H   -2.1658700012    1.4240645740    0.0406339499
 H   -2.0579197380    3.8810763432    0.0524084811
 H    2.9943060124    3.8878712364   -0.9095315620
 H    3.0193811657    3.8782199578    0.8726533561
 H    2.9620777505    1.3709372194   -0.9260859709
 H    2.9873775898    1.3612330568    0.8627492845