18

 C   -0.0841102338    1.5009594718   -0.2490850084
 C   -0.0380401629    0.0218695701    0.0216130801
 O    1.2349227256   -0.6279610692   -0.0616754090
 C    0.5938701903   -0.5818146566    1.2193998788
 C    1.2735308303    0.1831328335    2.2855206892
 C    2.4418977576    0.9039329280    2.1562768134
 N    2.7431122226    1.4390694647    3.3819940682
 C    1.7906122692    1.0730209405    4.2984067276
 C    0.8660438614    0.2899714100    3.6499756351
 H    0.6680132114    2.0317018725    0.3383286442
 H    0.0939857841    1.7008563031   -1.3110799817
 H   -1.0721699337    1.8994765677    0.0060976848
 H   -0.8437269577   -0.5545565489   -0.4396227334
 H    0.1858409800   -1.5427306835    1.5412916174
 H    3.0792637042    1.0450410351    1.2997428056
 H    3.5517907752    2.0006748099    3.5815141273
 H    1.8509526254    1.3973868487    5.3247355911
 H   -0.0095539092   -0.1572695876    4.0958007899