18

 C   -0.0952199965    1.3217482313   -0.2325582948
 C   -0.0913096741   -0.1311586709   -0.1477569749
 C   -0.0872747227   -1.3348938071   -0.0741882870
 C   -0.0830244757   -2.7702890467   -0.0020502202
 C   -0.4615289071   -3.4304872361    1.2936622791
 N   -1.4001262362   -3.4726485104    0.1829361988
 C    0.8551484109   -3.5575859171   -0.9136034177
 C    1.5499579134   -2.7969403973   -2.0195608724
 O    1.0147403002   -4.7407318657   -0.7342086431
 H    0.5236604661    1.6687448744   -1.0672829299
 H   -1.1083374030    1.7077033215   -0.3905025434
 H    0.2962953678    1.7778022143    0.6834167865
 H    0.0146790439   -4.3808357135    1.5118805865
 H   -0.6589525313   -2.7765776044    2.1376850616
 H   -2.1109269324   -2.7538908582    0.3069995168
 H    2.1846560822   -2.0112491769   -1.5963728633
 H    2.1515509097   -3.4859768009   -2.6126947610
 H    0.8135512248   -2.2921973462   -2.6541126815