18

 C   -0.0004270789    1.5208520036    0.0733377400
 C   -0.0523807900    0.0249426182   -0.0083953934
 C    0.5393120412   -0.7264567850   -1.2292624362
 C    0.4110107712   -2.1893886303   -0.6873708649
 C   -0.2140185104   -1.8484748876    0.6821757426
 O    0.6016894142   -0.7023420333    1.1069068869
 C   -1.2698538688   -0.8214977245    0.3221749504
 N   -2.5012017147   -0.5797790024    0.4254333364
 O   -3.2031684712   -1.6984857063    0.9269192622
 H    1.0350519335    1.8693600925    0.0092770164
 H   -0.5628586129    1.9612591556   -0.7553694603
 H   -0.4339986848    1.8720690308    1.0124002740
 H   -0.0326080324   -0.5514157964   -2.1442651674
 H    1.5765919994   -0.4281797461   -1.3989535570
 H   -0.2323536985   -2.8266030962   -1.2992925929
 H    1.3790028155   -2.6790938635   -0.5628694704
 H   -0.3479756675   -2.6186777948    1.4375104628
 H   -4.1053426147   -1.3643406841    0.9715938006