20

 O   -0.0149020175   -0.0460957804    0.0044722166
 C   -0.0026714189    1.1693293019    0.0101510479
 N   -1.1187433486    1.9605540088    0.0291932757
 C   -0.9286097425    3.4108017480    0.0339881455
 C   -0.1034777705    3.7832496939    1.2830027147
 C    1.2120938207    2.9536328416    1.2622555589
 C    1.2400584946    2.0602123886   -0.0023400648
 C    1.1777266096    2.9662043521   -1.2567161193
 C   -0.1376664586    3.7959980065   -1.2331467984
 H   -2.0295283218    1.5294513037    0.0398431475
 H   -1.9085064653    3.8927995103    0.0497539923
 H    0.1009491714    4.8587561159    1.2813203110
 H   -0.6879699828    3.5659346773    2.1812723868
 H    2.0893225221    3.6091226437    1.2532242168
 H    1.2925500316    2.3307678713    2.1574194369
 H    2.1219540457    1.4185433995   -0.0175822407
 H    2.0550636360    3.6215560068   -1.2652339600
 H    1.2334256741    2.3522772288   -2.1599037525
 H   -0.7464631141    3.5879506814   -2.1173559102
 H    0.0670416747    4.8714303201   -1.2259758848