19

 C   -0.4039308216    1.5967099597   -0.4103128877
 C   -0.1786068868    0.1164273360   -0.0610760779
 C   -1.4533125893   -0.6384192453    0.1702330171
 N   -1.7606386283   -1.0816666426    1.3837564675
 N   -2.9679946139   -1.6899803705    1.2290614886
 C   -3.4128519521   -1.6371799287   -0.0469235044
 O   -4.5943888622   -2.2079414923   -0.3366563834
 C   -4.9938630690   -2.1107771272   -1.6969766934
 C   -2.4611140578   -0.9588641387   -0.7811748724
 H    0.5497332937    2.1085396498   -0.5740405590
 H   -1.0032625935    1.7041717281   -1.3202422604
 H   -0.9324991560    2.1101005939    0.3986628105
 H    0.3901812201   -0.3621489664   -0.8684867296
 H    0.4271190536    0.0356516599    0.8465814119
 H   -3.4237044270   -2.1254696963    2.0119932821
 H   -4.2691106628   -2.6055649658   -2.3545073038
 H   -5.9591636618   -2.6126522491   -1.7710558931
 H   -5.0986900223   -1.0623707193   -2.0008240261
 H   -2.4803809231   -0.7306753550   -1.8332431165