15

 N    0.4972591771    0.4133902800   -0.4155438848
 C   -0.6822682185    1.0580820468   -0.2771099446
 O   -0.8286743984    2.2682444368   -0.2326638130
 C   -1.8780898482    0.1412802129   -0.1450532016
 O   -1.6284849032   -1.2522729526    0.0611970198
 C   -2.1546668775   -0.5004119081    1.1517137792
 C   -1.2522395797   -0.3114572688    2.3655003451
 N   -1.2033589502    0.9799922013    2.8030692937
 O   -0.7050747608   -1.2443796018    2.9118659310
 H    1.3520384498    0.9452278151   -0.4149752393
 H    0.5250986727   -0.5913898763   -0.3439537507
 H   -2.7089467571    0.3923536648   -0.8013530830
 H   -3.1897731279   -0.7343704296    1.4019880298
 H   -1.4283470926    1.7398881034    2.1772591241
 H   -0.5829068556    1.1785349362    3.5735400644