17

 N    0.3552097656    1.0748096047   -0.6730929349
 C    0.0774694866    0.1513033902    0.2939358153
 O    0.9011223367   -0.1983531081    1.1173093141
 C   -1.3442746437   -0.3517806131    0.2665657459
 N   -1.5694857578   -1.7199590317    0.7564691978
 C   -2.1253866920   -0.6068963014    1.5241515106
 C   -1.5682848118   -0.3883477838    2.9168361359
 C   -2.0783226093   -1.4387388697    3.8791462476
 O   -2.5903551520   -1.2065412084    4.9446549774
 H    1.2961675188    1.4287970580   -0.7296578081
 H   -0.2868998558    1.2959317732   -1.4131864326
 H   -1.9355494314   -0.0221849001   -0.5862936895
 H   -2.2835891166   -2.1762212303    0.1957521284
 H   -3.1954538354   -0.4231861466    1.4290854086
 H   -0.4769304159   -0.4760455188    2.8624256874
 H   -1.8314875923    0.6024472993    3.2981123719
 H   -1.9355124137   -2.4836235333    3.5228104242