19

 N   -0.2175100259    1.0224654757   -1.3632959026
 C   -0.3650584318   -0.2837628729   -1.7307043204
 O    0.2300981500   -0.7664501144   -2.6779082282
 C   -1.3303932805   -1.0558919556   -0.8688868893
 C   -1.9723350137   -2.2676062417   -1.4620484725
 N   -1.0095861913   -2.4059987033   -0.3847243779
 C    0.2908348591   -3.0184411188   -0.6836271363
 C    0.2556282414   -4.4790685904   -0.2389008149
 O   -0.7305986579   -5.2365663641   -0.9219927940
 H    0.4352137522    1.5896608837   -1.8788375466
 H   -0.6396349349    1.4013500298   -0.5344843666
 H   -1.8891432391   -0.4630702156   -0.1464860258
 H   -3.0080063093   -2.4932308147   -1.2189086326
 H   -1.6499344125   -2.5246444584   -2.4683505984
 H    0.5572937823   -2.9438199864   -1.7432409702
 H    1.0586993986   -2.4903298791   -0.1050840445
 H    1.2181940600   -4.9483946346   -0.4682745075
 H    0.1068267244   -4.5270805614    0.8502526967
 H   -1.5860023713   -4.9074663176   -0.6287068384