16

 N   -0.0371273642    1.4707346690    0.1156977381
 C    0.0088973736    0.0199081870    0.0044215139
 C   -1.3963535357   -0.5779886413   -0.0631251650
 N   -2.1614698136   -0.0898753619   -1.2268872404
 C   -1.4999792203   -1.4310747439   -1.2731591662
 C   -0.1789714448   -1.3622372769   -1.9570835848
 C    0.6507764041   -0.5542374795   -1.2801067130
 C    1.9609110812   -0.1734160791   -1.6691796781
 N    3.0357988338    0.1738978197   -1.9296166288
 H    0.8979827027    1.8636008057    0.0611260439
 H   -0.5693439248    1.8361092547   -0.6697500549
 H    0.5431554732   -0.3702422060    0.8795757277
 H   -1.9215282462   -0.8051398567    0.8568795513
 H   -3.1542824641   -0.2207156720   -1.0408261626
 H   -2.1175573508   -2.3198461234   -1.3243167106
 H    0.0494340458   -1.8600717354   -2.8913313904