21

 O   -0.2227203158    1.4748483854    0.1040269571
 C    0.0036338245    0.0761993405    0.0441151987
 C    0.6524502484   -0.5323916094    1.3017408908
 C    0.2195208929   -2.0002647413    1.2235234490
 C   -1.2626951119   -1.9073977983    0.8259695669
 C   -1.9912874943   -3.2098722453    0.4240789091
 C   -2.7630905466   -3.0339566543    1.7438600369
 O   -2.1125905534   -1.7769415775    2.0083918306
 C   -1.3501367499   -0.6565140265   -0.0748121949
 H    0.6322281870    1.9111677630    0.1747303853
 H    0.6308740496   -0.1655799041   -0.8297572109
 H    1.7369872425   -0.3902569669    1.3421643925
 H    0.2088538581   -0.0585816962    2.1849414912
 H    0.7750777932   -2.5190248039    0.4302247884
 H    0.3529180386   -2.5612610569    2.1517616175
 H   -2.6011270945   -3.1263941400   -0.4778283863
 H   -1.3595795740   -4.0975754504    0.3487110469
 H   -3.8506756623   -2.9226706099    1.6599358718
 H   -2.5454939008   -3.7819536531    2.5173045558
 H   -2.1430537569   -0.0051350955    0.3014233246
 H   -1.5891283845   -0.9144757993   -1.1101406109