21

 C    0.0516438440    1.5578543150   -0.0291260719
 C    0.0245452218    0.0421565052   -0.0010417341
 C   -1.1239020845   -0.5751374878   -0.7773624900
 C    1.3378743187   -0.6993026613    0.0046302591
 O    2.5160610236    0.0421227924    0.0040322584
 C    0.4770767498   -0.7101832491    1.2522961752
 C    0.9199883036   -0.0082563652    2.5223760824
 C    2.1788431853   -0.5587796115    3.1616505840
 O    3.1100673560   -1.0450774718    2.5628053220
 H    0.9961590840    1.9544664291    0.3463965120
 H   -0.0546144156    1.9125618918   -1.0604891542
 H   -0.7741085894    1.9852610024    0.5520190497
 H   -1.0972541189   -0.2640435605   -1.8282083477
 H   -1.0857046230   -1.6688561735   -0.7526326132
 H   -2.0916034393   -0.2675298876   -0.3631371057
 H    1.3836960700   -1.6277632987   -0.5673249305
 H    3.0758905546   -0.3554817181    0.6886583276
 H   -0.0485142045   -1.6425333841    1.4450749479
 H    1.1348381235    1.0540642706    2.3412478869
 H    0.1212342631   -0.0171915020    3.2737102718
 H    2.2280109872   -0.4590759856    4.2683173903