15

 N   -0.0545153953   -1.0553841337   -0.0516398231
 C   -0.0319851120    0.1000819763    0.0073749715
 C    0.0388617094    1.5200369205    0.0944624248
 C   -0.9324166851    2.4021836423    0.8253513376
 C   -0.0611946981    3.6499286388    1.0705643426
 C    1.3676325675    3.1492621312    1.4037933457
 C    1.2831584378    2.4370447884    0.0318029534
 C    0.2381326699    3.4902460056   -0.4569726104
 N   -0.8794170547    2.4542167056   -0.6657726621
 H   -1.7979063949    2.0273287399    1.3571549668
 H   -0.5152216690    4.5248653289    1.5290310107
 H    2.0937923141    3.9675421791    1.3836864126
 H    1.5139116135    2.5399771339    2.2996242734
 H    2.1465880356    2.1012307146   -0.5360415729
 H    0.3991876113    4.2788630187   -1.1864109006