21

 C   -0.4721388450    1.4559413934    0.0403731040
 C    0.1369640235    0.0602705270   -0.0461312099
 C    1.2314184316   -0.1161164339   -1.1057304189
 O    1.8715481676   -1.3367792093   -0.7615860666
 C    1.8594270394   -1.4470924620    0.6501819680
 C    2.0406247710   -2.8259794106    1.2070841083
 C    3.1428529467   -1.7907596484    1.3447821569
 C    0.8851281755   -0.4205166739    1.2225937086
 O    1.6381712771    0.6160506081    1.8466611128
 H    0.2950089005    2.2057917543    0.2557226289
 H   -0.9532315098    1.7323170730   -0.9032270166
 H   -1.2377981514    1.5124551413    0.8227640060
 H   -0.6499848286   -0.6751771726   -0.2556394507
 H    0.8499320153   -0.2108410824   -2.1260872316
 H    1.9395266259    0.7272506523   -1.0694991590
 H    1.4775721630   -3.1105288434    2.0901657598
 H    2.1886465864   -3.6207761823    0.4842820923
 H    4.0150885970   -1.9074930698    0.7117887708
 H    3.3292234120   -1.3451936309    2.3146982114
 H    0.1995195991   -0.8760039203    1.9495160219
 H    1.0165992532    1.2131420203    2.2751490936