20

 C   -0.1038075202    1.5601656787   -0.0762895956
 C    0.0265595859    0.0485301119    0.0132659534
 O    0.6525535052   -0.3909482798   -1.2134373845
 C    1.1794070154   -1.6396824603   -1.2168088107
 N    1.4455899913   -2.4105161316   -0.2500052231
 C    1.2555370601   -1.9359829350    1.1088764173
 C    2.6121963265   -1.5177920392    1.7548055848
 C    2.2769081958   -0.0342920989    1.4426679408
 C    0.7931911235   -0.4524421545    1.2245637992
 H    0.8817477869    2.0344293419   -0.0795799443
 H   -0.6271142924    1.8464469064   -0.9924738295
 H   -0.6686650322    1.9390024950    0.7808829722
 H   -0.9743644624   -0.4080072814    0.0303319424
 H    1.3852609591   -1.9483075216   -2.2410084655
 H    0.6775421225   -2.6831282079    1.6599385947
 H    2.6298904948   -1.7220185685    2.8288137098
 H    3.5021647362   -1.9477891749    1.2924024626
 H    2.4715748540    0.6991638946    2.2277220823
 H    2.7473350359    0.3133624057    0.5188732541
 H    0.1937035039   -0.2810707705    2.1240093496