17

 O   -0.0667821661    1.4552746842   -0.0916490700
 C    0.0138584070    0.0488619212   -0.0063193022
 C   -0.0061277267   -0.6364268994    1.3773273284
 C   -1.4987914324   -0.1987255861    1.6060391981
 C   -2.1826329617   -1.3444297399    2.3213447490
 C   -1.6648666952   -2.4385829851    1.7577778698
 C   -0.6917463985   -1.8992457253    0.7254983673
 C   -1.3563858758   -0.6390517679    0.0714359157
 O   -2.3236155346   -0.6849685999   -0.9027513503
 H    0.8176928580    1.8204470281    0.0048193952
 H    0.7193649476   -0.3628971810   -0.7406928854
 H    0.7785385036   -0.6580051480    2.1336378910
 H   -1.7226513891    0.8359521029    1.8538311286
 H   -2.9336259296   -1.2577902287    3.0937009400
 H   -1.8703503872   -3.4819894352    1.9489679936
 H   -0.1032016624   -2.5783345134    0.1074563545
 H   -2.4242858069    0.2047772934   -1.2609074332