19

 O   -0.0912753865    1.3923115915   -0.1358911729
 C   -0.0529274310   -0.0000993783   -0.0984139180
 C   -0.3199729421   -0.6732308567    1.2224835130
 O   -0.6665690824    0.1856377162    2.2832683468
 C   -1.3512582878   -0.7813801772    0.1170620320
 C   -2.7013671005   -0.0540206096    0.1986293599
 C   -3.6959748058   -0.9488211384   -0.5993816030
 C   -2.8843398847   -2.1657798041   -0.9719697759
 C   -1.6152159491   -2.0672602206   -0.5762792645
 H   -0.3859340789    1.6736076334    0.7420176971
 H    0.6959528465   -0.4043509947   -0.7734769112
 H    0.2309176990   -1.5662456552    1.5141126904
 H    0.1408122385    0.3999137406    2.7643437229
 H   -3.0160186143    0.0586273851    1.2391212176
 H   -2.6223792471    0.9506765557   -0.2249785539
 H   -4.5785863763   -1.2129433466   -0.0040540011
 H   -4.0778905077   -0.4391092715   -1.4934374757
 H   -3.3043020228   -3.0056317227   -1.5143183067
 H   -0.8423248169   -2.8104094769   -0.7419421569