23

 C   -0.3967696231    1.4657068717   -0.1192743996
 C   -0.0611583879   -0.0030797444    0.0186212021
 C    1.3025925750   -0.6125230155   -0.3106545222
 C    2.5137925535    0.2408198492   -0.6827182700
 C    3.4100462845    0.5515788760    0.5264426798
 C    2.5985102194    1.1568757136    1.6767195201
 C    1.5212694765    0.1780176590    2.1838528734
 C    0.7903898947   -0.6150027248    1.1058244640
 O    0.3713765130   -1.8884907125    1.5521971646
 H    0.4379736223    2.1239424786    0.1283053780
 H   -0.6986777690    1.6982438546   -1.1472196545
 H   -1.2318656453    1.7389487171    0.5359040846
 H   -0.8846884378   -0.6565289387   -0.2595926168
 H    1.2485304322   -1.5805875916   -0.7979759644
 H    3.0955850046   -0.2815447787   -1.4486563178
 H    2.1927471540    1.1838737909   -1.1430581134
 H    3.8901916124   -0.3741947247    0.8706072352
 H    4.2149400576    1.2336415562    0.2299578376
 H    3.2566171414    1.4178589066    2.5129223697
 H    2.1473542264    2.0996884082    1.3456641075
 H    2.0116030520   -0.5776887650    2.8087975608
 H    0.8065823010    0.7010311879    2.8338586064
 H   -0.3670380876   -1.7559028537    2.1574067749