12

 N    0.0441513856   -1.1786316666   -0.0480694093
 C    0.0260410989   -0.0211328137   -0.0219766752
 C   -0.0052860192    1.3986001086    0.0188493665
 C    0.2810192380    2.2912684170   -1.1856616169
 C    1.1183332071    2.4418267219    0.0340742147
 O    0.4694526988    3.2297864383    1.0201337283
 C   -0.6013943713    2.2568335842    1.1401867254
 H    0.7465930681    1.7719080363   -2.0164943725
 H   -0.4297183222    3.0684961105   -1.4509280157
 H    2.1944352310    2.3282266980    0.0866350010
 H   -1.5900763469    2.6929334331    0.9641678911
 H   -0.5666552478    1.7661264223    2.1169867427