19

 C    0.0177421818    1.4572113338    0.0476912432
 C   -0.0217299909   -0.0272075195   -0.0250837738
 C   -0.0603922765   -0.8878640528   -1.0480699559
 C   -0.0209243214   -2.2374010505   -0.3324148748
 O   -0.9502286513   -2.0136065357    0.7792170430
 C    0.0244351552   -0.9987353657    1.1724883452
 C    1.1409052671   -2.0082135947    0.7301927554
 C    1.3842652341   -3.1745347471    1.6765182721
 O    2.3462929297   -1.4240505498    0.3160935000
 H    0.9430464143    1.8009567722    0.5272993376
 H   -0.0326166248    1.9070988980   -0.9476812183
 H   -0.8135002312    1.8535726168    0.6444700235
 H   -0.0700917183   -0.7083726451   -2.1130406020
 H   -0.1807710770   -3.1686225444   -0.8762850188
 H   -0.0875723085   -0.6244310095    2.1911452405
 H    0.4420881371   -3.6010152418    2.0200450242
 H    1.9549007762   -3.9640094747    1.1699805071
 H    1.9661558961   -2.8433947316    2.5434315381
 H    3.0291564083   -2.1014933479    0.3200994640