25

 C   -0.0495915071    1.5013501884   -0.0928810271
 C   -0.0236383133    0.0114788826    0.2085336917
 O   -1.3028601901   -0.5198244685   -0.0737975455
 C   -1.4092336590   -1.9381032625   -0.0057885303
 C   -1.4278271371   -2.4434109287    1.4400297650
 C   -2.6851658340   -2.3219450414   -0.7542553754
 C   -2.6757810415   -1.8947235491   -2.2160112201
 O   -3.8688955862   -2.3519876970   -2.8191493923
 C   -3.9774992962   -1.9717741305   -4.1676294396
 H    0.9252258021    1.9513003451    0.1184541930
 H   -0.2943836752    1.6767388173   -1.1443603155
 H   -0.8032364986    2.0025210722    0.5212193041
 H    0.7401554277   -0.4937424256   -0.4069060764
 H    0.2519312948   -0.1539214404    1.2619047245
 H   -0.5415724204   -2.3821773003   -0.5262412109
 H   -2.2709900961   -2.0048545018    1.9831447731
 H   -1.5297518319   -3.5329518771    1.4631188486
 H   -0.5066981293   -2.1860101760    1.9701251435
 H   -2.8187968175   -3.4080994747   -0.7029550771
 H   -3.5472213563   -1.8659315218   -0.2539896657
 H   -2.5961053587   -0.8001466711   -2.2902383597
 H   -1.7982553325   -2.3213317672   -2.7352605105
 H   -4.9268998000   -2.3607648333   -4.5446525178
 H   -3.9699926404   -0.8762314160   -4.2872741469
 H   -3.1580589635   -2.3848612424   -4.7786145627