16

 C    0.0080813164    1.4935821848   -0.0303567027
 C   -0.0544479237    0.0021755796    0.0537720104
 C   -1.1502135202   -0.7603956123   -0.1279201858
 C   -1.0583298451   -2.1964904221   -0.0779502656
 N   -2.0555905685   -2.9619161354   -0.3518388249
 C    0.2998575088   -2.6533245842    0.3163056412
 N    0.5133956631   -4.0138834873    0.4367642564
 N    1.3217881121   -1.8880708151    0.5344034301
 O    1.1606713978   -0.5168953316    0.3335024754
 H    0.7158206691    1.8038790876   -0.8059489154
 H   -0.9757372534    1.9030973910   -0.2637042765
 H    0.3562940455    1.9170693481    0.9173342961
 H   -2.1036115412   -0.3066995139   -0.3643772762
 H   -1.7847696321   -3.9455142916   -0.3340267362
 H   -0.2366963375   -4.5135226368    0.8953355863
 H    1.4211740689   -4.2373665310    0.8238393574