20

 N   -0.0614589652   -1.1697854342   -0.1501064153
 C   -0.0408115428   -0.0162311749   -0.0773504207
 C   -0.0064198964    1.4469459685    0.0303753877
 C   -0.8347885525    1.8899455416    1.2599020821
 C   -1.0954595935    3.4043458474    1.3398625719
 C    0.0985930983    4.2540168562    1.7061840564
 C    1.2696626464    4.2732659934    1.0707983224
 C    1.6347428546    3.4492222340   -0.1414553103
 C    1.4641776588    1.9277325792    0.0125793290
 H   -0.5014370380    1.8390130199   -0.8701165629
 H   -1.7983876725    1.3712725259    1.2187646995
 H   -0.3316773882    1.5497808377    2.1716785279
 H   -1.5132052048    3.7415978034    0.3789066315
 H   -1.8871977128    3.5685947864    2.0772611431
 H   -0.0300148612    4.9125948661    2.5618520190
 H    2.0402044318    4.9466203672    1.4386188295
 H    1.0483260843    3.7836919264   -1.0108994226
 H    2.6799891865    3.6436702885   -0.4007484876
 H    1.9629211351    1.5875159094    0.9267331329
 H    1.9678882122    1.4331753179   -0.8246369634