21

 C   -0.0630254596    1.5558806623    0.0398034583
 C   -0.0750164760    0.0997761592    0.0533143795
 C   -0.0876371714   -1.1061819463    0.0670602023
 C   -0.0469761638   -2.5405969781    0.0438298389
 C   -0.4130300505   -3.4337791142    1.2262874872
 C   -1.2099206338   -2.8418583428    2.3786025023
 C   -2.4473881993   -2.1671006932    1.7324776950
 C   -2.6360860618   -2.8488214893    0.3526869586
 C   -1.2806218258   -3.4381945081   -0.0060445459
 H    0.9614062232    1.9453153851    0.0310212469
 H   -0.5748182028    1.9553407516   -0.8433200645
 H   -0.5623344163    1.9677406781    0.9241985187
 H    0.7835139050   -2.9324288735   -0.5393754756
 H    0.2683708239   -4.2507209255    1.4390160213
 H   -1.5138057702   -3.6583219991    3.0441394703
 H   -0.6284788165   -2.1355510161    2.9803992205
 H   -3.3380366456   -2.2621300398    2.3598175791
 H   -2.2595958522   -1.1014652503    1.5962303496
 H   -3.3627166146   -3.6671447738    0.4178179304
 H   -3.0084677010   -2.1468816762   -0.4007910756
 H   -1.2484320109   -4.2584485500   -0.7153415672