19

 O    0.1045495611    1.2006070856   -0.5076771170
 C   -0.0698360907   -0.0359596470    0.1714669526
 C   -1.4981728520   -0.4994342616    0.1697689108
 C   -2.6574761431   -0.1160889213    1.0894531784
 C   -3.4162043614   -1.3085892110    0.4435879985
 C   -3.6374599693   -0.8557608714   -1.0322129915
 C   -2.1241955990   -0.9679084052   -1.1510003271
 O   -1.3411605698   -0.8602039926   -2.2878027731
 C   -2.0212063352   -1.9244346337    0.0177948276
 H   -0.1493477001    1.0388435004   -1.4236922379
 H    0.5673371848   -0.8201940546   -0.2648052841
 H    0.2743912081    0.1297806630    1.1981366619
 H   -2.4068860566   -0.3084364240    2.1372120439
 H   -3.1053774318    0.8794720562    0.9940909736
 H   -4.2019048999   -1.8391607714    0.9755815929
 H   -4.1452695493   -1.6295099856   -1.6178776381
 H   -4.1164257464    0.1155234014   -1.2011158641
 H   -1.5595424042   -1.5802291863   -2.8893637206
 H   -1.5453841150   -2.8844411708    0.1575729932