21

 C    0.6762466223    1.6530950381   -0.0069395208
 C    0.2562739197    0.1793740383   -0.0092421276
 C    1.0213356007   -0.6417900331   -1.0847659923
 O    1.5715123980   -1.7913234262   -0.4415080115
 C    1.8034678551   -1.4435576977    0.9174234087
 C    3.0765699036   -0.7293372203    1.0937450371
 C    4.1259663373   -0.1574702123    1.2303232052
 C    0.5506848004   -0.6149403037    1.3013447792
 C    0.6469934911    0.1816974385    2.5993498879
 H    1.7457628751    1.7642346873    0.1954562300
 H    0.4738524363    2.1049565615   -0.9841765211
 H    0.1251743653    2.2307666577    0.7411832016
 H   -0.8193836848    0.1333651370   -0.2068756968
 H    0.3820349770   -1.0035255959   -1.8947503085
 H    1.8257376706   -0.0358669241   -1.5264599943
 H    1.8488853213   -2.3828622415    1.4790304431
 H    5.0576232869    0.3385690936    1.3498392447
 H   -0.2463088712   -1.3585207819    1.4122011222
 H    1.4658476849    0.9044320679    2.5746243589
 H   -0.2838308527    0.7237549978    2.7939827233
 H    0.8212831631   -0.4870073408    3.4489945211