21

 C   -0.0556876310    1.5323968810   -0.2267995598
 C    0.1312743567    0.0346123112   -0.0996257625
 O    1.2999489712   -0.4682296939   -0.8160890979
 C    1.7228279927   -1.1748723870    0.3509468639
 C    2.0635638188   -0.2212343582    1.4515629184
 C    0.6124685983   -0.6154406784    1.2088357393
 C   -0.2673635820   -1.2454890928    2.2503895276
 C   -0.8785898710   -0.2283241167    3.2124492961
 O   -1.6711839939   -0.9427329371    4.1474945414
 H    0.7891228732    2.0816364307    0.1970310293
 H   -0.1495263180    1.8108723234   -1.2813707911
 H   -0.9706512513    1.8454151337    0.2880264791
 H   -0.7592227807   -0.4920576560   -0.4712323084
 H    2.1194934319   -2.1763547831    0.2268333617
 H    2.4962257442   -0.6679132447    2.3424224533
 H    2.4424287076    0.7660561909    1.2039656780
 H   -1.0803943196   -1.8074610921    1.7738616234
 H    0.3081116748   -1.9689841523    2.8396790754
 H   -0.0738615895    0.3343041510    3.7115756648
 H   -1.4850177407    0.5009394755    2.6505336845
 H   -2.0568153317   -0.3114233449    4.7616496435