23

 C   -0.6359934096    1.3225767092   -0.1292120816
 C    0.0838678967   -0.0138941734    0.0324622513
 C    0.7198310424   -0.5631015253   -1.2719540730
 C    1.8579689029   -1.4876843648   -0.7967433392
 C    3.3428226894   -1.0216110441   -0.9249239285
 C    3.5411031728   -1.2464373316    0.6009700050
 C    1.9984286251   -1.3183029654    0.7526343179
 O    1.4472640489   -2.2956763161    1.6094275491
 C    1.2628684011    0.0000202312    1.0267812799
 H    0.0548833082    2.1003121866   -0.4768546024
 H   -1.4493958497    1.2519643101   -0.8596124631
 H   -1.0698525367    1.6614673110    0.8176587248
 H   -0.6338820281   -0.7606235204    0.3959209904
 H   -0.0171461819   -1.0742625248   -1.8988034380
 H    1.1214819365    0.2651914295   -1.8696883582
 H    1.7306329713   -2.5296962068   -1.1051946599
 H    3.9838319852   -1.6038653425   -1.5900286610
 H    3.4199472617    0.0306854238   -1.2119347255
 H    3.9990274045   -2.2191014400    0.8107542461
 H    4.0756166954   -0.4840914030    1.1741738295
 H    1.8001176782   -3.1526966170    1.3488292046
 H    1.9178564051    0.8544111807    0.8143969959
 H    0.9520936305    0.0670303231    2.0726479058