15

 O   -0.0121897656   -0.0238927202   -0.0254851671
 C    0.0087759214    1.1717925343    0.0079016755
 O   -1.1299393927    1.9153463081    0.0900468085
 C   -0.8651915994    3.3460389871    0.0555525398
 C   -0.0047879010    3.6346900873    1.2996702231
 O    1.1909777820    2.8687492088    1.2038184823
 C    1.2398399811    2.0829383996   -0.0111794937
 C    1.0977752721    2.9951203743   -1.2085075770
 C   -0.0402018581    3.6876044930   -1.1614702983
 H   -1.8380771984    3.8325937507    0.0973098277
 H    0.2372532693    4.7020927277    1.3649376448
 H   -0.5501457435    3.3313799789    2.2016940669
 H    2.1549851686    1.4980702264    0.0278631962
 H    1.8583436368    3.0667035758   -1.9756841861
 H   -0.3522451527    4.4484534283   -1.8658703026