19

 C   -0.2440716265    1.4359560778   -0.1325637302
 C    0.1822608890   -0.0183219491    0.0974770262
 C    0.8134445857   -0.6277585112   -1.1365481261
 C    0.9966874042   -2.0991486254   -1.4094927561
 C   -0.2135772445   -2.9247962368   -0.9599181840
 N   -1.1580032617   -1.9786496825   -1.6466115370
 C    0.0024759688   -1.2696929131   -2.2419800142
 C    0.0384783822   -0.8758169079   -3.6097576616
 N    0.0515200718   -0.5664209896   -4.7259820184
 H    0.6073407169    2.0601624226   -0.4253199664
 H   -0.9943449621    1.5014215402   -0.9267173249
 H   -0.6768353080    1.8661118681    0.7753815632
 H    0.9047809070   -0.0717086226    0.9215154621
 H   -0.6878428020   -0.6106004271    0.3922732825
 H    1.6452678513   -0.0534473576   -1.5414974338
 H    1.9513364132   -2.5111722660   -1.7097817083
 H   -0.2112055602   -3.9207560484   -1.4115438740
 H   -0.3884505236   -3.0180818696    0.1166419415
 H   -1.6956900714   -2.4563890618   -2.3618978405