19

 C   -0.3607167486    1.8205901397    1.3369794376
 N   -0.1623919170    0.4175107486    1.0213683799
 C    0.2868670398   -0.0164163005   -0.3204353535
 C    1.3205349542   -0.9481995996    0.3281137950
 C    2.2788091691   -0.1663512089    1.1794293793
 N    2.8200129603    1.0871954333    0.7440501227
 C    3.2833162267    2.0276225025    1.6159337495
 O    3.1810382880    1.9675667696    2.8207807828
 C    0.8653640812   -0.3723751360    1.6729937034
 H    0.4693666424    2.4771709081    1.0379850859
 H   -1.2740303453    2.1762417526    0.8465823636
 H   -0.4996229246    1.9234260909    2.4172946057
 H   -0.4989005348   -0.5405107994   -0.8749342994
 H    0.6951819918    0.7806806095   -0.9581334728
 H    1.5013063491   -1.9753859698    0.0412739171
 H    2.9877881472   -0.7947531934    1.7175112398
 H    3.0637059438    1.1893352380   -0.2300999092
 H    3.7618273816    2.8769524495    1.0861705042
 H    0.6743773550   -0.8552493145    2.6259741486