16

 C   -0.0066654199    1.5462721622   -0.0071459606
 C    0.0614162880    0.0365448161    0.0164679276
 O   -1.0827544942   -0.6045143462   -0.4700143568
 C    1.3243030147   -0.7453804127   -0.1691861687
 O    2.4374453000   -0.0069997881    0.3956181512
 C    1.8885918185   -0.1119873949    1.6745165378
 O    2.3942351187    0.1931679732    2.7050956428
 C    0.6240634012   -0.7908331443    1.1967068176
 N   -0.1435999002   -1.7718332917    1.8520629606
 H    0.9183985328    2.0006566948    0.3498386439
 H   -0.1704599590    1.8933327878   -1.0351749400
 H   -0.8404149762    1.8985100035    0.6070113357
 H   -1.2660637661   -0.2467304257   -1.3461600838
 H    1.5313023825   -1.5192590396   -0.8940895955
 H    0.3949322930   -2.2530170602    2.5623750582
 H   -0.9785367440   -1.3862772241    2.2767467500