17

 C   -0.1009385739    1.5069801662    0.1514488531
 C   -0.0209427429    0.0280568643   -0.0243337333
 C    0.0184605276   -0.7856759958   -1.1520734873
 C   -0.0100210457   -0.3821501645   -2.5919421799
 N    0.0917672122   -2.0979089728   -0.7882483553
 C    0.0986761702   -2.1160765317    0.5340797384
 N    0.0310575979   -0.8372508237    1.0336312117
 C    0.1655489525   -3.2669100529    1.4305633456
 O    0.2272953680   -4.4249027838    1.0940837209
 H    0.7656031338    1.9016297847    0.6955100645
 H   -0.1323802889    2.0023615134   -0.8205564376
 H   -1.0003860334    1.8051597698    0.7034706355
 H    0.8886931323   -0.7314543421   -3.1104157877
 H   -0.8698476989   -0.8276392533   -3.1025806705
 H   -0.0698832027    0.7027851357   -2.7090972907
 H    0.0214166806   -0.5809661429    2.0082615637
 H    0.1545334214   -2.9768110505    2.5099424689