11

 O   -0.0124316002   -0.0500034998    0.0039706638
 C   -0.0312943195    1.1667774523    0.0076735624
 C    1.1755131606    1.9656575884    0.0011461062
 C    2.1911603162    2.6101046421   -0.0044049274
 C   -1.3068181978    1.9008473329    0.0190952905
 C   -2.5788075025    1.3929387006    0.0269901790
 O   -3.4513177245    2.3690973955    0.0357532404
 N   -2.6407975530    3.6186787233    0.0337622610
 N   -1.4489538997    3.2734873845    0.0241787826
 H    3.0895202696    3.1790542559   -0.0091561592
 H   -2.9385107392    0.3761396744    0.0266672807