19

 C   -0.2768087503    1.4135714780    0.1424617124
 C    0.0364273745   -0.0667205092   -0.0579098338
 C    1.3178561845   -0.3752434460   -0.9012417736
 C    2.0907837902   -0.7504400701    0.4011556218
 C    0.7488992977   -0.7229467713    1.1327385984
 O    0.5651250178   -0.3603425218    2.4852859362
 C    0.2037493782   -1.7037940381    2.0931460261
 C   -1.1919451304   -2.0443802826    2.1096580285
 C   -2.3546735201   -2.3510964940    2.1061160556
 H    0.6135293286    1.9727365584    0.4504150633
 H   -0.6498852889    1.8583871280   -0.7857290806
 H   -1.0354356278    1.5466160331    0.9190173367
 H   -0.8640264517   -0.5987232722   -0.3794471157
 H    1.1891463852   -1.2225534386   -1.5778029017
 H    1.7210222315    0.4670866231   -1.4674048638
 H    2.6430006656   -1.6930636820    0.4072325693
 H    2.7543296084    0.0458452743    0.7498613140
 H    0.8773094181   -2.4685262929    2.4794426292
 H   -3.3828451410   -2.6171692661    2.1132826179