16

 O    0.3298930034    1.2649655583   -0.3428596411
 C    0.0860145610   -0.0799526171    0.0081745587
 C   -1.3979844078   -0.3377243681    0.2591239445
 N   -2.1310904355   -0.0024636004   -0.9673056013
 C   -2.4697493498   -1.0820236799   -1.8757504793
 C   -3.5400056905   -0.3894568625   -1.0821812309
 C   -4.1940403826   -1.1102393407   -0.0159365067
 N   -4.7289975965   -1.6637699555    0.8473749236
 H   -0.3345418354    1.4908545400   -1.0056680554
 H    0.4502351896   -0.7745718315   -0.7683184475
 H    0.6523088139   -0.2857366989    0.9222355615
 H   -1.5645760580   -1.3764505894    0.5828490537
 H   -1.7542576789    0.3283817000    1.0513786439
 H   -2.3837672317   -0.8697251072   -2.9371583259
 H   -2.2232020384   -2.0998407241   -1.5796035976
 H   -4.1767747829    0.3435787769   -1.5696505900