18

 C    0.0418504550    1.5125639302    0.0126028253
 C   -0.0325803042    0.0237789682   -0.0602804173
 C   -0.0507256768   -0.7825160789   -1.1341659497
 C   -0.0400894835   -2.2265217644   -0.7420035218
 N    1.2050778044   -2.5781951550    0.0069161731
 C   -0.0668666101   -2.2759761904    0.7342719566
 C   -0.7426487745   -3.3066406712    1.5926352466
 C   -0.0750212903   -0.8153687839    1.1784829683
 O   -0.1415827814   -0.4185900535    2.3188322161
 H    0.9724040007    1.8287229026    0.4977504498
 H   -0.0042282321    1.9691590851   -0.9791590056
 H   -0.7746752233    1.9097850014    0.6247823256
 H   -0.0139729129   -0.4529891734   -2.1667529820
 H   -0.5143173932   -2.9824666027   -1.3579494838
 H    1.3126363980   -3.5946910696    0.0038685540
 H   -0.6990034948   -4.2976923357    1.1296441388
 H   -0.2620166467   -3.3570353934    2.5745113687
 H   -1.7947555344   -3.0519691655    1.7551901173