15

 C   -0.3929375576    1.4170283688    0.1443284982
 C    0.0895152469   -0.0131986928    0.0758112961
 O    1.3021350253   -0.1394171520   -0.7611832958
 C    2.0356843322   -0.6569920920    0.2766963721
 N    3.2386201084   -0.9973863177    0.3625817483
 C    0.8768328958   -0.6394081366    1.2565752131
 C    1.0945420701    0.0961834729    2.5605574293
 O    0.3362571252    0.9059076193    3.0269592281
 H    0.3935988630    2.0869965008    0.4981498596
 H   -0.7091589468    1.7427062470   -0.8511207192
 H   -1.2391719214    1.4967281072    0.8306730248
 H   -0.6836931280   -0.6753358591   -0.3236406118
 H    3.7357247514   -0.8544776152   -0.5179677082
 H    0.5557077606   -1.6566250633    1.5116047702
 H    2.0326990251   -0.1965450874    3.0782522153