18

 C    0.0033807507    1.5063457082   -0.0034795358
 C   -0.0092678188   -0.0055387856    0.0293202375
 O   -0.0319388246   -0.6364220434    1.0624737305
 C    0.0305339566   -0.7257568246   -1.3157097335
 C    1.4899085153   -0.8629133390   -1.8260943192
 C    1.4839428067   -2.2142681291   -2.5534297849
 O    2.3248400385   -2.6186995393   -3.3096633646
 C    0.1956101026   -2.9427307537   -2.1429669758
 N   -0.5016998885   -2.0865619268   -1.1889626693
 H    0.7534440246    1.8814112899   -0.7075283966
 H   -0.9711805161    1.8651089176   -0.3561820491
 H    0.1905084532    1.9023414871    0.9951247966
 H   -0.5555455516   -0.1536255257   -2.0479713449
 H    1.8398371973   -0.0635421209   -2.4820467608
 H    2.1910365768   -0.9449668533   -0.9853766970
 H   -0.4010771137   -3.1099382072   -3.0516089797
 H    0.4259753397   -3.9298925989   -1.7312684065
 H   -0.3435770887   -2.3822827155   -0.2302059169