17

 C    0.0512568733    1.5060869931   -0.0788659560
 C    0.0197275663   -0.0110016508    0.1031081100
 O    0.6712330259   -0.4114221989    1.3060256963
 C   -1.4045891692   -0.5621825278    0.0766114656
 C   -2.0926948555   -0.7851900359   -1.3024778101
 O   -1.1852073314   -1.9402314863   -1.5343217495
 C   -1.5568184308   -2.0988860051   -0.1003750931
 C   -3.0010568524   -1.8397986671   -0.6081995698
 O   -4.1054793063   -2.2680645607   -0.5866844517
 H    1.0812652534    1.8680462603   -0.0245161242
 H   -0.3687797673    1.8004697233   -1.0458371405
 H   -0.5309198212    2.0084759873    0.7044393015
 H    0.5889495754   -0.4903656701   -0.6968552311
 H    0.2776579944    0.0802030802    2.0358691075
 H   -2.0323246492   -0.1063448758    0.8532990989
 H   -2.2613581582   -0.0989344566   -2.1297460488
 H   -1.0982055673   -2.9121116891    0.4561561350