15

 N   -0.2638614191    1.3172158253    0.0094802953
 C   -0.0242120707   -0.0486096623    0.0189570800
 N   -1.0067539671   -0.9430311326   -0.0971080733
 N   -0.3760682310   -2.1193591393    0.0484785928
 C   -1.0851124882   -3.3673405324   -0.0664962405
 C   -1.5686691041   -3.6368740117   -1.4915618972
 O   -2.4041997884   -4.4583532353   -1.7498812526
 N    0.9340058990   -2.0494030146    0.2245930275
 C    1.1890951025   -0.7411289290    0.2195682515
 H    0.4758610614    1.8627680430   -0.4089939149
 H   -1.1632680534    1.5520684750   -0.3880755784
 H   -0.3908290497   -4.1600869718    0.2254262509
 H   -1.9436464928   -3.3845604496    0.6102546068
 H   -1.0708414446   -3.0205543016   -2.2715381936
 H    2.1890599561   -0.3638519132    0.3606095955