20

 C   -0.0174423897    1.5257941313   -0.1503122990
 C   -0.0434131898   -0.0050933889   -0.0228778572
 C    0.8395274820   -0.4589761756    1.1480209338
 C   -1.5017464314   -0.5295820910    0.0910204316
 C   -1.5876343292   -2.0626552549    0.2087583695
 O   -2.2166488568    0.0925798268    1.1575034908
 C   -2.2928753831   -0.1570813099   -1.1661445430
 O   -1.8895833233   -0.3134656257   -2.2887521492
 H    1.0131583890    1.8853019948   -0.2267042988
 H   -0.5527676733    1.8659368488   -1.0413527772
 H   -0.4812196170    1.9937508776    0.7227742364
 H    0.3532796460   -0.4352515249   -0.9501500464
 H    0.4497557440   -0.0956913422    2.1071525493
 H    0.9353845070   -1.5464413695    1.2083696794
 H    1.8477500333   -0.0479157198    1.0396580008
 H   -1.1431026269   -2.4052054865    1.1483981901
 H   -2.6331316233   -2.3858067082    0.1960894804
 H   -1.0637783098   -2.5446780165   -0.6208426300
 H   -1.9060836916   -0.2818236459    1.9874451027
 H   -3.3069626662    0.2435081302   -0.9456298938