17

 C    0.2559319848    1.1479817479    1.1457587473
 C   -0.2422119216    0.5327975343   -0.1579130397
 O    0.7152203108   -0.4243636865   -0.6803404657
 C   -1.5903858909   -0.1184949865   -0.0487180180
 C   -2.0205590941   -1.1456027671   -0.8755740916
 O   -1.3973116685   -1.8010775492   -1.8672774421
 N   -3.2826126812   -1.4528987462   -0.5135521133
 N   -3.7329668187   -0.6824094554    0.5160448507
 C   -2.7084719708    0.1151952320    0.7892151047
 H    1.2538043856    1.5718041495    1.0059827937
 H   -0.4157124475    1.9456813131    1.4772552294
 H    0.2968848185    0.3947563508    1.9408383223
 H   -0.2498711167    1.3110954252   -0.9320099583
 H    0.8732266563   -1.0700147959    0.0201217533
 H   -0.4752715646   -1.4841951678   -1.8340762229
 H   -3.8715597086   -2.1677916724   -0.9052637832
 H   -2.8045684527    0.8431969641    1.5824072934