17

 C   -0.3507164759    1.4991169403    0.2422245598
 C    0.0322812776    0.0540193693   -0.0094809045
 C    0.5743584542   -0.6469569636   -1.1943478973
 C    1.7556551556    0.0043349059   -1.9472152952
 N    1.8488458188    1.4563843015   -2.0723993733
 C    2.4487926413    1.6545442896   -0.8354788960
 O    2.7808419465    2.6477001176   -0.2493755395
 C    2.4742639890    0.1153105284   -0.5965988451
 N    1.3466965543   -0.6109798549    0.1400781081
 H    0.3179313014    2.2511171187   -0.1627305019
 H   -1.3513344188    1.6700283385   -0.1701715431
 H   -0.4098617063    1.6621810309    1.3233000549
 H   -0.6843410861   -0.5987249832    0.4925966810
 H    0.1394423250   -1.5810832964   -1.5398570653
 H    2.1507069155   -0.5695182273   -2.7847198940
 H    1.3581526781    2.1128488571   -2.6643287145
 H    3.4333737798   -0.3471837923   -0.3753592343