15

 O   -0.0866978670    1.2849659641   -0.2681039856
 C   -0.0067177098   -0.0493229193   -0.0616796443
 C   -0.2576951007   -1.0122066003   -1.1740660724
 C   -1.1330983329   -1.2038319888    0.0385800427
 N   -0.3933856203   -1.7571290895    1.1751335129
 C    0.5975589040   -0.7297213637    1.1305484211
 N    1.5584396218   -0.3776760819    1.8659612109
 C   -2.5771468444   -0.9754038889    0.0814886363
 O   -3.2238603644   -0.5398349703   -0.8449857822
 H   -0.0547636612    1.7299557834    0.5884334206
 H   -0.7734891586   -0.5586259831   -2.0157556069
 H    0.4721120471   -1.7768987634   -1.4288665387
 H   -0.0856258404   -2.7244138516    1.1273381139
 H    1.7027075046   -1.0291937389    2.6395389604
 H   -3.0347055877   -1.2100432078    1.0667678011