15

 N   -0.2815462770    1.2418436470    0.0279046890
 C   -0.1035869762   -0.0112357890    0.0057299150
 C   -1.2176144870   -1.0398658360    0.1126175841
 C   -0.5193468966   -2.4041599942    0.0999537782
 C   -0.9603445066   -3.3495554677   -1.0136419146
 O   -1.8645694284   -3.1199938896   -1.7712457345
 C    0.9806821951   -2.0988071453   -0.0599916328
 O    1.8837459080   -2.8936170883   -0.1375680624
 N    1.0954579718   -0.7236652993   -0.1154606430
 H    0.5940458656    1.7600775582   -0.0595500721
 H   -1.8008954650   -0.8598859439    1.0170120309
 H   -1.8960596026   -0.9487840719   -0.7398607834
 H   -0.6242069379   -2.9641289570    1.0376728059
 H   -0.3629790782   -4.2814136241   -1.0718782367
 H    1.9988800451   -0.2852075686   -0.2235172636