15

 O    0.5596194938    0.9490146497    0.6565018643
 C    0.1682102641   -0.2280733513    0.0123353963
 C   -1.3550859826   -0.4496286950   -0.0457838899
 C   -1.4961042678   -1.2744557335   -1.3342464141
 O   -0.3993182352   -0.8678385094   -2.1884605211
 C    0.5329289123   -0.2132340693   -1.4739475919
 O    1.4960171587    0.3278861891   -1.9394784158
 C   -1.9174456437   -1.1160464335    1.1892165968
 O   -2.3810230752   -2.2281835300    1.2049548723
 H    1.3180054816    1.2883168524    0.1584984954
 H    0.6543097743   -1.1134581333    0.4596508850
 H   -1.8140764316    0.5416729950   -0.1484911279
 H   -1.4188039528   -2.3452709611   -1.1304121500
 H   -2.4215405626   -1.0817364700   -1.8773949386
 H   -1.8572245933   -0.4997576998    2.1111399490