17

 C    0.0422394784    1.3072774191   -0.1701090940
 O   -0.0216254140   -0.0023881881    0.3521843127
 C   -1.2610390222   -0.6112582422    0.1672466163
 C   -1.6599917315   -1.1681478045   -1.2561525354
 C   -1.8246350586   -2.5484057190   -0.5934737137
 O   -0.5292830325   -2.8827457649   -0.0650509341
 C   -1.3567958199   -2.0320957514    0.7210845973
 C   -2.7442424903   -3.5822775253   -0.9200286273
 C   -3.5398171595   -4.4275753772   -1.2339441784
 H    1.0390543739    1.6947506287    0.0510812231
 H   -0.1104971721    1.3228611307   -1.2594238178
 H   -0.7084491334    1.9662531869    0.2938201120
 H   -2.0761266401    0.0142512361    0.5649162309
 H   -2.5842298813   -0.7410340422   -1.6481110444
 H   -0.8727746404   -1.1441450748   -2.0117530149
 H   -1.5922525474   -2.3558912134    1.7283906709
 H   -4.2367324192   -5.1829854886   -1.5016028431