17

 C   -0.1778961917    1.4995433623   -0.1217422413
 N    0.0854566311    0.0755709782    0.0005321141
 C    1.1713084288   -0.5248544163   -0.8256443904
 C    1.8117504223   -1.1261675079    0.4274928331
 C    2.1528788842   -0.0544284918    1.4078828327
 C    0.6934837922   -0.4195840053    1.2323733888
 C   -0.1169154634   -1.0104277632    2.3120724547
 O    0.3340447048   -1.4643940809    3.3384462874
 H    0.7105312801    2.1389419234    0.0206187144
 H   -0.5888778976    1.7076825683   -1.1147746574
 H   -0.9286458576    1.7919969491    0.6193112100
 H    0.7841057245   -1.2557467401   -1.5419659438
 H    1.7997225721    0.2012787000   -1.3589492114
 H    2.1211612680   -2.1552089290    0.5512808304
 H    2.5703858974   -0.3965777372    2.3485789025
 H    2.5059136068    0.9135232061    1.0630080647
 H   -1.2063878020   -1.0298056558    2.0866145815