20

 C    0.1818703630    1.4318787231    0.0520448479
 C    0.0087115747   -0.0630009349   -0.0283520241
 N   -0.0196190151   -0.8383491270    0.9852870087
 O    0.1245498769   -0.1414803181    2.1957945378
 C   -0.1323188154   -0.6879755976   -1.4031380782
 O   -1.1517210209   -0.0308611229   -2.1386928040
 C    1.2523389007   -0.8610957143   -2.1181460953
 C    1.2266254025   -2.3579146874   -1.7090701196
 C   -0.2937094181   -2.2244717278   -1.4282475113
 H    0.6226378815    1.8312383523   -0.8668105269
 H   -0.7856851590    1.9227024004    0.2061485372
 H    0.8199620105    1.6991227447    0.8957650025
 H    0.1135209513   -0.8564408127    2.8407626470
 H   -0.9055811304    0.8936075007   -2.2513698104
 H    1.1239643169   -0.7263867221   -3.1958606710
 H    2.0878507202   -0.2457018035   -1.7732280869
 H    1.5347341479   -3.0811790889   -2.4660484080
 H    1.7923345800   -2.5413821273   -0.7931850833
 H   -0.6926632747   -2.6916884039   -0.5292552179
 H   -0.8982095127   -2.5005235228   -2.2950691943