16

 C    0.1242392549    1.5752636554   -0.0383231624
 C    0.1031669283    0.0628784527    0.0609429021
 N    1.0937305950   -0.6535916227   -0.7846884316
 C    1.3273638319   -1.6594716772    0.2709114035
 C    2.7203341183   -2.0654809880    0.4435746289
 N    3.8263230905   -2.3656951583    0.5932881550
 C    0.7361816517   -0.6342913162    1.3088960280
 O    1.6684652957    0.1003633468    2.0410207421
 H    1.1195616947    1.9720155410    0.1757041967
 H   -0.1590380160    1.8957634426   -1.0461556941
 H   -0.5832467073    2.0175481211    0.6702043774
 H   -0.9233801557   -0.3103349815   -0.0787350586
 H    0.7682495137   -1.0151666250   -1.6746965528
 H    0.6990058124   -2.5589804990    0.2070434854
 H    0.0375790026   -1.0564272083    2.0316003983
 H    2.3754847694    0.3887460165    1.4514834021