20

 C    0.1817096378    1.6462235680   -0.0030286069
 C    0.0906699150    0.1286399542    0.0039777871
 C    1.1325054276   -0.6814072951   -0.8173541535
 C    1.2408484838   -1.6951128074    0.3633382073
 O    2.5288064735   -2.1508939748    0.7319308537
 C    0.5489258031   -0.6368097615    1.2768955410
 C    0.3434100084   -2.9163782048    0.1392244231
 N    0.9455992193   -4.1142901131    0.3315494425
 O   -0.8246738708   -2.7904649159   -0.1882607090
 H    1.1882094950    1.9856199326    0.2705158204
 H   -0.0479459922    2.0535629574   -0.9939993828
 H   -0.5230776259    2.0899569684    0.7090523262
 H   -0.9125355791   -0.2035698917   -0.2684913393
 H    0.8289281387   -1.0744804386   -1.7891473026
 H    2.0780336030   -0.1368884345   -0.9287066135
 H    3.0931005265   -1.3851433711    0.8722057264
 H    1.3066920161   -0.0779721716    1.8393889239
 H   -0.2176426710   -0.9945367693    1.9664144615
 H    1.9127010006   -4.1583528916    0.6016936546
 H    0.4050097307   -4.9520758097    0.1987937097