17

 C    0.0432280300    1.5663339291    0.0521679099
 C    0.0087891253    0.0357169826    0.0007676497
 N    0.6898929496   -0.4506579420   -1.1841049784
 C    1.7191019599   -1.1965603816   -1.0974010012
 N    2.4299659025   -1.5988375035   -2.1993934285
 C    1.9302043165   -1.3178209500   -3.5318395494
 C    2.2860581331   -1.6874969277    0.1570881359
 N    2.7189066207   -2.0806513614    1.1546701696
 H    1.0705752972    1.9284373992    0.1577284386
 H   -0.3737333572    1.9905557524   -0.8654936069
 H   -0.5388740667    1.9329247544    0.9032795011
 H    0.4211831298   -0.3778257117    0.9334703052
 H   -1.0362393596   -0.2940446267   -0.0626726356
 H    3.0468816032   -2.3847745064   -2.0792306515
 H    0.9578437664   -1.7910954269   -3.7191843532
 H    1.8023847063   -0.2399975739   -3.6579621567
 H    2.6573807229   -1.6808097058   -4.2604921287