14

 N   -0.0490222730    1.3435901492   -0.0785403757
 C    0.0366459029    0.0757631111   -0.0399023751
 N    1.0938105946   -0.7866679244   -0.2426966084
 C    0.8446878205   -2.1640272921    0.1690455805
 C   -0.6947970823   -2.2711793550    0.0679399282
 C   -1.2998737793   -3.2148052770    0.9910692552
 N   -1.7614565161   -3.9710981016    1.7320521927
 C   -1.1741744845   -0.8017841512    0.2441615532
 O   -2.2737575478   -0.4445779946    0.5369334618
 H    0.8545025337    1.7842743319   -0.2651378226
 H    2.0381344100   -0.4345783869   -0.2619753662
 H    1.3497470945   -2.8706369584   -0.4938329159
 H    1.1716558595   -2.3623092895    1.1978547066
 H   -0.9720185526   -2.5483574915   -0.9576527042