15

 C   -0.0677040395    1.5469744633    0.0645068562
 C    0.0120750324    0.0478471062   -0.0869372667
 C    0.6932939108   -0.6742779007   -1.2075938141
 N    1.2510791534   -0.7331953221    0.1601077180
 C    2.4457245987    0.0616396579    0.1406095414
 O    3.1100163474    0.3534574015    1.0940434367
 N    2.7004450248    0.4227055701   -1.1852075904
 C    1.6912060152    0.0541796485   -2.0695028966
 O    1.6716191554    0.2435171831   -3.2578085547
 H    0.7724810342    2.0713805472   -0.3942450509
 H   -0.9883235261    1.9078214941   -0.4037935343
 H   -0.0997163529    1.8141471747    1.1251388216
 H   -0.8531515704   -0.4758045909    0.3139032791
 H    0.2582548655   -1.5779591538   -1.6204967978
 H    3.5006788012    0.9780244009   -1.4508075575