19

 O    0.3650167967    1.5135024881   -0.5521686933
 C    0.0176689204    0.2493482452   -0.0176530582
 C    0.1343715118    0.0905435198    1.5441164635
 C   -1.3133797993   -0.4104722620    1.5539818671
 C   -1.7749128766   -1.7336484451    2.0906475066
 C   -2.2874151440   -0.4411407349    2.6896608513
 C   -1.5281574060    0.0923747896    0.1227756741
 C    0.6652385840   -0.8335621926   -0.7501660442
 C    1.2386231722   -1.7023335008   -1.3528399704
 H    1.3106576898    1.5089024021   -0.7369451481
 H    0.9105779772   -0.5816806482    1.9168000853
 H    0.2476052845    1.0800056461    1.9972751813
 H   -2.4570131953   -2.3220409801    1.4849096880
 H   -1.0735170848   -2.3234672186    2.6725118683
 H   -1.9330872160   -0.1590208718    3.6762798895
 H   -3.3160098477   -0.1571494637    2.4897712708
 H   -1.9898599252    1.0832242900    0.0818076255
 H   -2.0193044588   -0.5732346533   -0.5895706168
 H    1.7314915173   -2.4745452796   -1.8901896403