15

 C    0.0473948389    1.3894192195    0.0057059836
 O    0.0358570955   -0.0227421760   -0.0354623093
 C   -1.1997888379   -0.5896689150   -0.0233354248
 C   -2.4632968862   -0.0367553640    0.0244846793
 N   -3.3231521630   -1.0909489419    0.0309770717
 N   -2.6966130513   -2.2918298540   -0.0068196390
 C   -1.4038346783   -1.9940897907   -0.0441703332
 N   -0.4096658835   -2.9642107713   -0.1563267839
 H    1.0935599405    1.6997684929   -0.0056060580
 H   -0.4675416824    1.8166264525   -0.8662462959
 H   -0.4342295645    1.7655970133    0.9195281314
 H   -2.8043456258    0.9843266831    0.0526548956
 H   -4.3258121320   -1.0666897476    0.0447985154
 H   -0.7245314384   -3.8682264531    0.1708512954
 H    0.4495908883   -2.6907823877    0.3015784616