18

 O    0.0509937820    0.1253124832   -0.5224237635
 C   -0.0060164552    1.2500357477   -0.0903619212
 C   -1.2812934566    1.9578925748    0.4063078522
 C   -0.8017680511    3.2821209598    0.9625230999
 N    0.1453597890    3.1247524836    2.0848515121
 C    0.6650632544    3.4223926132    0.7304205848
 C    1.1573137919    2.2009261200    0.0227383359
 C    2.5464708251    1.6201756265    0.1660533861
 C    2.1480095396    2.2439959000   -1.1309324249
 H   -1.9592200334    2.0929951482   -0.4447312023
 H   -1.7935149139    1.3330595178    1.1430325560
 H   -1.4578561031    4.1457823374    0.9448312354
 H    0.1501420080    3.9749250280    2.6436833830
 H    1.1228899148    4.3873088696    0.5375893276
 H    3.2373330932    2.1503013723    0.8118698810
 H    2.5989863394    0.5376026599    0.2085937557
 H    1.9377534835    1.5878451167   -1.9683453937
 H    2.5566341523    3.2146360113   -1.3925596939