17

 O   -0.0494628115    1.4457864694   -0.0326369846
 C    0.0087908520    0.0535777218    0.0338803196
 C    1.1344481739   -0.4969426099   -0.8217234563
 C    2.4942595317   -0.0155851321   -0.3453586011
 O    3.4347828973   -0.7423432544   -0.1514918247
 C   -0.3599990388   -0.6228799357    1.3226479763
 C   -1.3057681539   -0.7229246943    0.1203867990
 C   -2.5136302794    0.0428948577    0.0999539454
 C   -3.4785998801    0.7631522241    0.0536515993
 H   -0.9763958798    1.7101615513   -0.1156459714
 H    1.1383580877   -1.5898287476   -0.8292969605
 H    0.9920836124   -0.1371362403   -1.8500323093
 H    2.5653669691    1.0812461386   -0.1872084403
 H    0.1601577049   -1.5287493506    1.6141165365
 H   -0.6752629041    0.0161369341    2.1387743187
 H   -1.3436376885   -1.6783145804   -0.3937203451
 H   -4.3578108630    1.3587989783    0.0324469183