18

 C    0.0111494065    1.4798110880   -0.3364704989
 C    0.0055837640    0.0323411711    0.1735425179
 C   -1.3844862060   -0.5453396540    0.2645710582
 C   -2.3977210934   -0.0181724963    1.2883617496
 C   -3.3140875473   -1.2019614844    1.5207753596
 C   -2.9365516996   -2.2770012510    0.8242487370
 C   -1.7438004288   -1.9505133278   -0.0115216479
 O   -1.9970469774   -0.9041332337   -0.9832733966
 H    1.0332255870    1.8585176897   -0.4290778875
 H   -0.4655390634    1.5403018034   -1.3193758962
 H   -0.5304624815    2.1467330947    0.3425422297
 H    0.5982089016   -0.5967878286   -0.4993103170
 H    0.4794018118   -0.0198998653    1.1620973110
 H   -1.9015613411    0.3011716722    2.2146715663
 H   -2.9419253815    0.8522243578    0.9032538522
 H   -4.1875914950   -1.1414038754    2.1604021626
 H   -3.4260785533   -3.2428734171    0.8206737636
 H   -1.0274884024   -2.7033034335   -0.3285114038