20

 C    0.1119291702    0.3515286607    1.0444950150
 C   -0.0794288713    0.3773183030   -0.4595200836
 O    0.5294810506    1.1337695985   -1.1793033778
 C   -1.1338777855   -0.5750709180   -1.0397121555
 N   -1.1337300508   -1.8847432669   -0.4295650090
 C   -0.0141913821   -2.7611233548   -0.7977019771
 C   -0.5975962967   -4.1401782050   -0.6528282424
 C   -1.9158976661   -4.0773948453   -0.4956436884
 C   -2.3854388772   -2.6486962707   -0.5166105484
 H    0.8180394480    1.1298806394    1.3358659313
 H   -0.8472625234    0.5044993491    1.5516995482
 H    0.4742015425   -0.6284532097    1.3677152645
 H   -2.1063761621   -0.1024757339   -0.8423389990
 H   -0.9956413010   -0.5890527315   -2.1353333586
 H    0.3343169100   -2.5873409297   -1.8350965936
 H    0.8580222611   -2.5933312866   -0.1487064905
 H    0.0049877844   -5.0383583715   -0.7018524442
 H   -2.5943616473   -4.9146633995   -0.3912697568
 H   -3.0566801841   -2.4014508581    0.3187302725
 H   -2.9508056893   -2.4408035492   -1.4458649864