20

 C    0.1255615147    1.6367119505    0.1801017309
 C    0.0515595575    0.1025580234    0.1828256523
 C    0.3609923700   -0.5274641780   -1.1665043622
 C    1.3380563934   -1.4334331623   -1.1024193506
 C    1.8701167190   -1.5403220553    0.2933776222
 C    2.3882254937   -2.8623622443    0.8188384355
 O    2.8535420556   -2.7642164358    2.1608930638
 N    2.4961180558   -0.2655972233    0.7473458213
 C    1.0826903023   -0.5700688674    1.0933438717
 H    1.1403475077    1.9607702674   -0.0633526358
 H   -0.5647490669    2.0642220453   -0.5545496989
 H   -0.1396287177    2.0413310363    1.1624017033
 H   -0.9576532131   -0.1953305491    0.5037666992
 H   -0.1474057454   -0.2178080292   -2.0739391611
 H    1.7351952946   -2.0017674783   -1.9363633081
 H    1.5778127054   -3.6017184750    0.8068637723
 H    3.1786079506   -3.2426399529    0.1553944824
 H    3.8098273155   -2.6767725445    2.1426412546
 H    3.0368043113   -0.4886429428    1.5841633029
 H    0.8508550461   -0.7570834645    2.1362585545