14

 N   -0.0603125496    1.3140903325   -0.1482753233
 C   -0.0183781490    0.0645558294    0.0372833290
 C   -1.2702513523   -0.7811551062    0.0895809343
 C   -1.0988383513   -1.9758959455    1.0289501962
 O    0.1162919776   -2.6467888835    0.7115135445
 C    1.1974643459   -1.8035331397    0.9122810302
 O    1.1655223139   -0.6245118231    0.0995373746
 H    0.8890885515    1.6918571061   -0.1912512254
 H   -2.1139413578   -0.1490711812    0.3714879219
 H   -1.4537541584   -1.1604306091   -0.9228920818
 H   -1.0805711762   -1.6494676775    2.0811651860
 H   -1.9039271943   -2.7033731475    0.9082758325
 H    1.2556632994   -1.4865737088    1.9677248871
 H    2.1024511103   -2.3404791759    0.6250420342