19

 O    0.0879941506    1.3110265066    0.3924331558
 C   -0.0909804196   -0.0867927632    0.4068982738
 C   -1.4149304689   -0.4723688082   -0.2579089807
 O   -1.4750682905    0.0959317646   -1.5703142134
 C   -1.6111955262   -1.9719198253   -0.3074321425
 O   -1.9784815997   -2.6256104411    0.9094631760
 C   -2.9032461396   -2.6650467752   -0.1956203566
 C   -4.2373769637   -2.0015315760    0.0370514250
 O   -5.0558440525   -2.7999501643    0.8751586287
 H   -0.1966279313    1.6013132217   -0.4838414334
 H    0.7357729657   -0.6092435680   -0.1113216302
 H   -0.0844759830   -0.4176594415    1.4502316261
 H   -2.2277159189    0.0037328199    0.2951799892
 H   -0.8259606253   -0.3577656390   -2.1221096704
 H   -0.8250771562   -2.4939808184   -0.8637907196
 H   -2.9790720888   -3.6519835860   -0.6552367970
 H   -4.1029078410   -0.9932585643    0.4496970641
 H   -4.7713740088   -1.9063380422   -0.9143902062
 H   -4.5834239922   -2.9093057800    1.7081263211