16

 O    0.3201339627    1.1962155675    0.4449872658
 C    0.2396184938   -0.0362857607   -0.2077913670
 C   -1.2662880694   -0.5612237307   -0.3293783061
 C   -1.4298085503    0.0474759136   -1.7402026834
 C   -2.0027994984   -1.2917379777   -2.1865855802
 C   -0.8135323905   -2.1677381960   -2.2167633953
 C    0.4174879463   -1.3905044286   -2.1535947095
 C    0.1084202008   -0.1254001448   -1.7422118108
 N   -1.6357458269   -1.9380226214   -0.8831115731
 H   -0.1195012314    1.8608616253   -0.0961887484
 H    0.9726831035   -0.6940049908    0.2616346757
 H   -1.9229574583   -0.3221500373    0.5089597823
 H   -1.8896418408    1.0078973971   -1.9569461749
 H   -2.9374785385   -1.4942438130   -2.6948222111
 H   -0.8832587240   -3.2016789433   -2.5300924210
 H    1.3643023112   -1.8675736291   -1.9200306429