13

 N   -0.0506065855    1.2760279240   -0.0746806743
 C   -0.0306644579    0.0143113270   -0.0544244477
 C   -1.2408274203   -0.8964301229   -0.0425003026
 C   -0.6623595445   -2.2423353261   -0.5004392341
 C    0.7818357993   -2.1438573119    0.0085033877
 O    1.1084015761   -0.7452039184   -0.0417969939
 H    0.9008944664    1.6479496508   -0.0621491591
 H   -1.6265718988   -0.9577754067    0.9819474544
 H   -2.0371737630   -0.4998109953   -0.6720409689
 H   -1.1891922152   -3.1106546938   -0.1000259013
 H   -0.6719783536   -2.3112103062   -1.5925781814
 H    0.8731356874   -2.4934298111    1.0451398948
 H    1.5088956995   -2.6803922394   -0.6053374435