18

 O   -0.3567501676    0.3372189566    0.3906825577
 C    0.1423439276    1.3848673882    0.0770930133
 C    1.5212491781    1.5216507953   -0.5508745801
 N    1.5809140594    2.5911280833   -1.5216463345
 C    2.3127885540    3.7317837501   -1.3050315687
 O    2.9332958341    3.9194979783   -0.2709408953
 C    2.2894073112    4.7188374464   -2.4246298564
 C    2.3445766951    6.1884074074   -2.0463728926
 C    3.5486857186    5.5383590378   -2.6430606813
 H   -0.3776185606    2.3584824788    0.2300659558
 H    2.2290135095    1.7922522978    0.2432574389
 H    1.8217740031    0.5574686005   -0.9733758556
 H    1.1116592874    2.4733023291   -2.4043928573
 H    1.7092688148    4.4528804280   -3.3024178446
 H    1.7652009807    6.8770516442   -2.6502980006
 H    2.3677968248    6.3994721003   -0.9839116520
 H    4.3743162622    5.3149836911   -1.9780600336
 H    3.8176422578    5.7693619565   -3.6672046533