16

 C   -0.0107983425    1.5578896506   -0.1446860524
 C    0.0266809723    0.0547841562    0.0393337418
 C    1.3103678926   -0.7240174427   -0.1105380505
 C    0.6451909487   -0.6268482788    1.2414424316
 C    1.2991493842    0.1321420147    2.3649956657
 O    2.2414599403   -0.7348076729    2.9872080676
 H    0.9167809805    2.0357304993    0.1826639437
 H   -0.1498806854    1.8109256138   -1.2017058678
 H   -0.8361937739    2.0127369908    0.4149348735
 H   -0.8621531924   -0.4439003547   -0.3397103664
 H    1.2980407048   -1.6741310986   -0.6329641645
 H    2.2242762466   -0.1539677397   -0.2503111544
 H    0.1362113400   -1.5229649111    1.5862970730
 H    1.7937630873    1.0366544055    1.9801299077
 H    0.5354098677    0.4621239259    3.0884198162
 H    2.6039977392   -0.2777780083    3.7519939454