17

 C    0.0781917220    1.5399138831   -0.2215433237
 C   -0.0008902292    0.0472615368    0.0380620458
 N    1.2759169552   -0.7022348480    0.0395903379
 C    0.5143048080   -0.6227292740    1.2824774072
 C    1.1325285482    0.1445875130    2.4425639087
 C    1.9529830607   -0.7233865758    3.2805699796
 C    2.6147909140   -1.4616796965    3.9588664329
 C   -1.1403821894   -0.6036325442   -0.5772045107
 N   -2.0432960180   -1.1198112563   -1.0841387233
 H    0.9855320944    1.9547709560    0.2185554179
 H    0.1062218433    1.7328261343   -1.2976285950
 H   -0.7920842614    2.0547642863    0.1957668705
 H    1.1724084997   -1.6106978315   -0.4048578552
 H   -0.0326274652   -1.5108944393    1.5911311326
 H    1.7426479139    0.9670012764    2.0572258662
 H    0.3316895520    0.5914116451    3.0458076594
 H    3.2082313117   -2.1029181755    4.5624289992