20

 O   -0.0434652293    1.4012176924   -0.0015534415
 C   -0.0384622634   -0.0083827654    0.0296879307
 C    0.4728586383   -0.6398738059    1.3811102503
 C   -0.8025451578   -1.4010439268    1.8056078357
 C   -1.2079111693   -2.0893396167    0.4647019118
 C   -1.4552390883   -0.6240613272   -0.0011876161
 C   -1.8853933108   -0.3708249018    1.4532236283
 C   -3.2114953543   -0.1245678506    2.0304698948
 N   -2.1621219797    0.9362781904    2.0470207200
 H   -0.7420654691    1.6961359011    0.6010647490
 H    0.5706679336   -0.3277196979   -0.8207487787
 H    1.3272401339   -1.3091176387    1.2446437199
 H    0.7646397624    0.1500479988    2.0789185098
 H   -0.7960711247   -1.9353297396    2.7564875247
 H   -0.4362930967   -2.6618310861   -0.0569458444
 H   -2.1294666146   -2.6696613847    0.5415138401
 H   -2.0873240494   -0.3705473973   -0.8511677785
 H   -4.0632141730    0.0900104406    1.3907673913
 H   -3.4642864110   -0.5964993250    2.9765400954
 H   -1.7530126567    0.9963247704    2.9773962771