18

 C    0.0837602304    1.5366252598    0.0104205258
 C   -0.0311310978    0.0406282270   -0.0519331771
 C   -0.0109223671   -0.6450617034   -1.1981279709
 C   -0.0584524407   -2.1286677391   -1.2368514245
 N    0.9523668423   -2.8327193661   -0.4259413621
 C   -0.4649282199   -2.8692561795    0.0051555657
 C   -0.8205851319   -2.0407329133    1.1947245383
 O   -1.6363273777   -2.4124701950    2.0089425219
 C   -0.1418610152   -0.6790793596    1.2799922459
 H    0.9608936031    1.8391247534    0.5970647936
 H    0.1735410389    1.9768627010   -0.9859900343
 H   -0.7892428114    1.9785868993    0.5070575219
 H    0.0770637102   -0.1243109569   -2.1473659717
 H   -0.3435345022   -2.5822481626   -2.1822662479
 H    1.1801030341   -3.7283907175   -0.8517564610
 H   -1.0246710067   -3.7947757588   -0.0864975111
 H    0.8703946171   -0.8402321012    1.6798720092
 H   -0.6844715754   -0.0825919776    2.0188589782