23

 C    0.0740147744    1.4648527312   -0.1278690029
 C    0.0207625953    0.0170575492    0.0188527813
 C   -0.0105578272   -1.1800957157    0.1438877109
 C   -0.0836846996   -2.6290568185    0.2854110080
 C   -1.4679524439   -3.1824771800   -0.0742178376
 O   -1.4164301174   -4.5817510271    0.0868143982
 C   -2.6656383682   -5.2577653416   -0.0160427301
 C   -3.1617805210   -5.3307972415   -1.4635204558
 C   -2.4542687311   -6.6419942456    0.5875657319
 H    0.8100803487    1.7634324671   -0.8826852907
 H   -0.8964260912    1.8700379506   -0.4357620911
 H    0.3503811869    1.9519781143    0.8139490827
 H    0.6597821224   -3.1163692406   -0.3572938454
 H    0.1536843931   -2.9295859228    1.3131318653
 H   -2.2317629898   -2.7401800790    0.5854855704
 H   -1.7196508538   -2.8958531635   -1.1059071299
 H   -3.4114867682   -4.7124293191    0.5878419683
 H   -4.1088799081   -5.8773813851   -1.5144723405
 H   -3.3306852948   -4.3367712259   -1.8870527872
 H   -2.4281915876   -5.8507864967   -2.0882602533
 H   -2.0978307846   -6.5585564507    1.6175290309
 H   -3.3874363797   -7.2129676554    0.5839826944
 H   -1.7070050145   -7.1965415736    0.0109259720