14

 N    0.0275401654   -1.1573343920   -0.0034722871
 C    0.0036035578   -0.0014148612   -0.0182664656
 C   -0.0208502064    1.4383079767   -0.0148161649
 C   -1.1110809330    2.2241431952    0.7532276889
 C   -0.9125744925    3.2557085383   -0.3400331148
 C    0.5304296369    3.2812871972   -0.7242935195
 C    1.2802308856    2.2665202176    0.1164268216
 N   -0.3832433697    2.2417883303   -1.3221679516
 H   -2.0829826677    1.7354544288    0.6622586423
 H   -0.9110861179    2.4831143367    1.7968587228
 H   -1.6086939969    4.0210959170   -0.6603951634
 H    0.9493733336    4.0664356431   -1.3415933515
 H    1.6171419084    2.5279014913    1.1236009296
 H    2.0938295564    1.8095171010   -0.4500407468