18

 O   -0.0279270829    1.4049805822    0.0584034054
 C    0.0718071070    0.0130643403    0.0225796053
 C   -0.5750547124   -0.7262998051    1.1490788805
 C    0.9364419289   -0.7844580067    0.9833927181
 C    1.5904991671   -1.9351328572    0.2145619742
 C    1.1233144182   -1.8211092701   -1.2447101395
 C   -0.3306860853   -2.0412779705   -1.5744529627
 C    0.1811198380   -0.6389572137   -1.3509593499
 H    0.7815435299    1.7688717929   -0.3176863175
 H   -0.9284256681   -0.1051916431    1.9653401233
 H   -1.1880038147   -1.6000806609    0.9599491806
 H    1.5199051163   -0.2763311504    1.7439168908
 H    2.6791488434   -1.8199642635    0.2553485983
 H    1.3637704298   -2.9177241903    0.6458106014
 H    1.8509280714   -2.0328249282   -2.0210653816
 H   -0.5662473150   -2.3202375647   -2.5965933395
 H   -0.9849511888   -2.4996218966   -0.8415720576
 H    0.1962317472    0.0461341256   -2.1914916496