19

 C    0.0795286115    1.4391790769    0.0384172458
 N    0.0704839243   -0.0153307775    0.0070367738
 C    0.1281178350   -0.6647731323    1.3022044121
 C    0.0071194831   -0.6528402475   -1.2015448498
 O   -0.0412004180   -0.0463568167   -2.2613479557
 C   -0.0015396777   -2.1852414169   -1.1935188763
 C   -0.0752615440   -2.7163886888   -2.6348641148
 C   -0.0850506778   -4.1766154457   -2.6726326187
 N   -0.0919997079   -5.3321977711   -2.6853306658
 H    0.9935292572    1.8071226648    0.5208721760
 H    0.0335977288    1.8065956999   -0.9848072156
 H   -0.7815856751    1.8166404522    0.6037822282
 H   -0.7291320418   -0.3686383783    1.9210014567
 H    0.1194222918   -1.7485121800    1.2088400603
 H    1.0417726537   -0.3758889777    1.8380727511
 H    0.8985280215   -2.5701433468   -0.7024620811
 H   -0.8536859392   -2.5599290034   -0.6165970191
 H   -0.9713695365   -2.3325163563   -3.1299797544
 H    0.7720670510   -2.3419059148   -3.2156200327