16

 C    0.0160788879    1.5558811027   -0.0613886016
 C   -0.0194160268    0.0298059026   -0.0212778289
 C   -1.4355255468   -0.5326391825    0.2216658382
 C   -2.0656015422   -0.0194382515    1.4370855498
 N   -2.5761076741    0.3986084969    2.3850971327
 C    0.7554649626   -0.7057868269   -1.1403648347
 O    1.7045268709   -1.2302748954   -0.1604833164
 C    1.0600085699   -0.6059627143    0.8787772507
 O    1.3394551413   -0.6258146007    2.0314572597
 H    1.0292729954    1.9182453037   -0.2559535133
 H   -0.6417463836    1.9371222976   -0.8497914581
 H   -0.3164809540    1.9708158166    0.8934795485
 H   -2.0750681526   -0.2718000415   -0.6304739858
 H   -1.4079481540   -1.6266474005    0.2771305713
 H    0.2300857691   -1.5205765556   -1.6445701253
 H    1.2598905970   -0.0664670512   -1.8675380368