21

 C   -0.2818212420    1.4713728320    0.0052017745
 C    0.0041311275   -0.0322366585    0.0031405815
 C    0.7579918439   -0.4953541458   -1.2489728183
 C    0.9891770865   -1.9947501029   -1.2561354216
 O   -0.2457309987   -2.7514387380   -1.3063097540
 C    0.0804383372   -3.3257042551   -2.5817641185
 C    1.4881303675   -2.6689210211   -2.5794216714
 C    1.8533546145   -1.8370113068   -3.7055226980
 C    2.1478466277   -1.1513615851   -4.6487765383
 H    0.6457152543    2.0534153758   -0.0391768516
 H   -0.8923851660    1.7589700491   -0.8578911864
 H   -0.8208120023    1.7724799093    0.9089114717
 H    0.5859813876   -0.2974613928    0.8960757263
 H   -0.9354437387   -0.5920687508    0.0711643659
 H    0.1998709247   -0.2134589312   -2.1498197686
 H    1.7324220900    0.0071926226   -1.3161249565
 H    1.5797561434   -2.2916779229   -0.3786667513
 H    0.0712036237   -4.4212965036   -2.5592460574
 H   -0.5813872098   -2.9723198890   -3.3808375295
 H    2.2789781252   -3.3975844037   -2.3825221631
 H    2.4110969236   -0.5459484315   -5.4804935554