17

 O   -0.0122034553    0.0045323639   -0.0172441528
 C   -0.0216877121    1.2025273495    0.0212866147
 C   -1.1225175506    2.2632896062   -0.0203987861
 C   -1.2891837069    2.9110630620    1.3883128759
 C   -0.0368572323    3.8106420144    1.4404978475
 C    1.2293158257    2.9313352081    1.3779672639
 C    1.0615377936    2.2808736831   -0.0293787380
 C   -0.0407882324    3.2448148534   -0.6254844284
 O   -0.0471263492    4.4257199807    0.1459412845
 H   -2.0556273435    2.0426522546   -0.5368945484
 H   -2.1926186045    3.5253012597    1.4137446762
 H   -1.3401766482    2.1778951056    2.1969846119
 H   -0.0398581258    4.5782318040    2.2140092378
 H    2.1229265936    3.5600350705    1.3960220645
 H    1.2987425187    2.1991311707    2.1861397071
 H    1.9938102203    2.0752645278   -0.5535305972
 H   -0.0468790112    3.4571840757   -1.6909351428