21

 C    0.0378408884    1.5917348761   -0.0658348150
 C   -0.0573536300    0.0601116997   -0.0392260183
 C    0.5771501450   -0.5693976504   -1.2880650030
 C    0.5879708084   -0.5083526037    1.2280158883
 C    0.0101821533   -0.1778889991    2.6434672045
 O   -1.3486310816    0.1927683282    2.5169027518
 C    0.2005915227   -1.6650475747    3.0754062879
 C    0.4107392680   -1.9961720039    1.5871368592
 O    0.3604386396   -3.0082151107    0.9496868180
 H    1.0840592742    1.9217723301   -0.0648446052
 H   -0.4327370088    1.9907925502   -0.9706820469
 H   -0.4645456702    2.0322463128    0.7991898560
 H   -1.1184644515   -0.2124170649   -0.0153935454
 H    1.6371010713   -0.2974719758   -1.3678292603
 H    0.5096898790   -1.6595516613   -1.2583849344
 H    0.0764953019   -0.2140160268   -2.1947450398
 H    1.6661169065   -0.2905245404    1.2268756726
 H    0.5745196983    0.5615439307    3.2228245121
 H   -1.7338638091    0.2326351997    3.3978621410
 H    1.1080785665   -1.8415432535    3.6623455000
 H   -0.6477877421   -2.1472972625    3.5678023468