14

 N    0.1199742649    1.4378418098    0.1288340377
 C    0.0011514782    0.0517451128    0.0108262218
 C   -1.0686552224   -0.7895184517   -0.0301794522
 N   -0.6107028555   -2.1147380637   -0.0713334159
 C    0.7553394979   -2.0841328943   -0.0324302750
 N    1.7772830573   -2.9078327604   -0.0194345547
 N    2.8912579920   -2.0845493587    0.0314264660
 C    2.5116925186   -0.8281599568    0.0489414719
 N    1.1353676301   -0.7651549255    0.0080039720
 H    0.5847830692    1.8642760552   -0.6675202319
 H   -0.7800017125    1.8816615443    0.2589817961
 H   -2.1193810145   -0.5561464572   -0.0557746823
 H   -1.1667897115   -2.9373218026    0.0744658300
 H    3.1563102781    0.0329218587    0.0917085465