17

 O   -0.0795609238   -0.0764115591   -0.1828539733
 C   -0.0328987239    1.1152193690    0.0051404996
 C    1.2224721580    1.9340977328    0.0094034206
 C    1.2962869297    3.2384954341   -0.8469522664
 C    0.2430146863    4.2298459886   -0.2982144749
 C    0.3963340115    3.9865990368    1.2050084127
 C    1.2459295391    5.0266967839    0.5075342167
 C    2.2607822359    3.8804767792    0.2185882033
 C    1.5047915224    2.9075218270    1.1982519291
 H   -0.9642235559    1.6974064814    0.1943793499
 H    2.0846996616    1.2888187273   -0.1829023842
 H    1.4949984982    3.2112190197   -1.9170313185
 H   -0.6854314562    4.5574299603   -0.7458232250
 H   -0.4149537634    4.1284035916    1.9059958302
 H    1.3459317910    6.0912885830    0.6696113225
 H    3.3410425964    3.9391257586    0.1179643786
 H    1.9092308131    2.5536669557    2.1450875291