21

 C    0.0968767297    1.6463336836   -0.0588232979
 C    0.0420345100    0.1177085589    0.0438219082
 C    0.6726935735   -0.6085543146   -1.1607264808
 C    2.1412855986   -0.8009861632   -0.7467277838
 C    2.0425982340   -1.1107288229    0.7542977174
 N    0.8383919547   -0.3975637250    1.1711550229
 C    0.3884605275   -0.2709008782    2.4568423300
 N    1.2060545004   -0.8424571137    3.4301748359
 O   -0.6301113955    0.3393435133    2.7469973992
 H    1.1170084993    1.9993412629   -0.2451746499
 H   -0.5408376324    1.9927107692   -0.8791856335
 H   -0.2627288628    2.0881370060    0.8720974370
 H   -1.0008655352   -0.1782324626    0.1914628110
 H    0.1942846030   -1.5837010821   -1.3036481018
 H    0.5603765230   -0.0430713820   -2.0887024852
 H    2.6485067855   -1.5930490284   -1.3021736755
 H    2.7049391593    0.1247104376   -0.8986209036
 H    1.9433158216   -2.1964319437    0.9195304324
 H    2.9213187617   -0.7698069638    1.3127664013
 H    1.7298648806   -1.6705182899    3.1911444779
 H    0.7362858436   -0.8971928914    4.3213838490