18

 C   -0.0259243819    1.5189314502    0.0356493904
 C   -0.0232481454    0.0188035498   -0.0176884173
 C   -0.0798746693   -0.6568469371   -1.1788697704
 C   -0.0194528990   -2.1277189316   -1.2728623206
 O   -0.0999321286   -2.7044164313   -2.3406647401
 C    0.1945289261   -2.8796003107    0.0366477642
 C   -0.4353799027   -2.1496413831    1.2271327896
 C    0.0615559356   -0.7016903984    1.3075159318
 H    0.8568743992    1.8881795301    0.5733720444
 H   -0.0344484411    1.9643368057   -0.9616600285
 H   -0.8991103730    1.8863541615    0.5896533070
 H   -0.1534960674   -0.1351047525   -2.1292321624
 H   -0.1902260565   -3.8953293841   -0.0841227063
 H    1.2810463310   -2.9654056534    0.1858247748
 H   -1.5262311192   -2.1448071199    1.1110363197
 H   -0.2191413290   -2.6774689019    2.1615646964
 H    1.1084336835   -0.6788288141    1.6491305749
 H   -0.5027674622   -0.1424079292    2.0637323525