17

 C   -0.1716160689    1.3999069332   -0.0255860934
 O   -0.0800081323   -0.0240708059    0.0212928483
 C   -1.2192181213   -0.7079743849    0.0260455220
 N   -1.3122528821   -1.9955624123    0.0661212316
 C   -2.6912092184   -2.2272863339    0.0525092637
 C   -3.2540216643   -3.6058235023    0.0882020467
 C   -3.3593194141   -1.0514540033    0.0045048526
 N   -4.7044544299   -0.7176614740   -0.0265499945
 O   -2.3794584572   -0.0286108686   -0.0134496651
 H    0.8573828268    1.7592541913   -0.0215197218
 H   -0.6795278705    1.7330283533   -0.9359227457
 H   -0.7064496420    1.7899536249    0.8458934587
 H   -2.9302419384   -4.1345265973    0.9911931966
 H   -4.3453077099   -3.5709796472    0.0707807073
 H   -2.9039803724   -4.1908358963   -0.7691165185
 H   -4.9817665921   -0.2278305157   -0.8708673989
 H   -5.0069713529   -0.1760917411    0.7765099704