20

 C   -0.0221040123    1.5028012539   -0.2794327101
 C    1.5064211863    1.4999568524    0.1253442673
 C    1.1935168574    0.2635165149    1.0104341499
 C    1.6651523413   -1.1744703194    1.2615785919
 C    0.2419523993   -1.6929395123    1.6320091054
 C   -0.4724499884   -0.5908194765    2.3333890062
 C    0.4826323594    0.5911854372    2.3503062832
 N   -0.8419226591   -0.8993102210    0.9309618137
 C   -0.0019803329   -0.0091745048    0.1050177631
 H   -0.6266691909    2.1347083535    0.3717128440
 H   -0.2632235747    1.7357183970   -1.3181709064
 H    2.1419744452    1.2612252887   -0.7315120407
 H    1.9018543129    2.3884165326    0.6223209559
 H    2.0772372269   -1.6598047303    0.3724336167
 H    2.3577562150   -1.3150615556    2.0980226082
 H    0.0414897375   -2.7434723080    1.7997596814
 H   -1.2319729142   -0.7508220131    3.0890327896
 H    1.1773284615    0.5573493106    3.1966893246
 H   -0.0262208119    1.5571988879    2.3662628922
 H    0.2902047719   -0.5733379876   -0.7875508963