16

 C   -0.3551687657    1.4861487820   -0.2879485895
 C   -0.0225972974    0.0672404735    0.0498864565
 N    0.6232562534   -0.7044240330   -0.8234178064
 N    0.7509517455   -1.8937191161   -0.2029266606
 C    0.2134175523   -1.9044064364    1.0406939798
 C    0.2140378806   -3.1229546187    1.9258150919
 C    1.0657725574   -4.1926697230    1.4062993819
 N    1.7371644406   -5.0193967939    0.9585657099
 C   -0.3035727519   -0.6422570653    1.2437838219
 H    0.1028782650    2.1839041066    0.4214153378
 H    0.0096300962    1.7232658647   -1.2893114723
 H   -1.4362884840    1.6608055077   -0.2633629236
 H    1.2347645822   -2.6478537872   -0.6642621118
 H    0.5583450031   -2.8593899288    2.9322780739
 H   -0.8020435706   -3.5212080793    2.0411326906
 H   -0.8107755567   -0.2828998428    2.1253670901