21

 O   -0.0219763871    1.4335965027   -0.5936848008
 C    0.0060609039    0.1082269443   -0.0852047237
 C   -1.3792124840   -0.4941133045    0.0617150190
 C   -2.3414425457    0.2684340584    0.9588759131
 C   -1.9451882779    0.2355033094    2.4524746611
 C   -2.9227446057    0.8988145662    3.3060099461
 C   -3.7479535348    1.4492993567    3.9851012357
 C   -1.9481638643   -1.1706938998   -1.1689784096
 C   -1.4861892606   -1.9984915173    0.0049685761
 H   -0.4986442106    1.4088201182   -1.4305958460
 H    0.6239415055   -0.5507723374   -0.7163614411
 H    0.5084743749    0.1819728821    0.8855722166
 H   -2.3945734140    1.3112165237    0.6299079401
 H   -3.3480568815   -0.1504409853    0.8568597670
 H   -1.8246338626   -0.8072355056    2.7737759408
 H   -0.9670813234    0.7125336281    2.5886934724
 H   -4.4667881293    1.9353615226    4.5966050365
 H   -3.0144682291   -1.0909111552   -1.3513480068
 H   -1.3443895892   -1.1934788515   -2.0713717522
 H   -0.5759610024   -2.5788150199   -0.1063894945
 H   -2.2423995721   -2.4759623460    0.6194015904