21

 C    0.0417798572    1.5027903822    0.0059109178
 C   -0.0429914432    0.0087292600    0.0009316220
 C   -0.0192879573   -0.7972188089   -1.0772897067
 C    0.0096227711   -2.2106898350   -0.5971330775
 C   -0.5923713341   -3.6438630945   -0.7162166092
 C    0.1032497537   -3.5715851696    0.7012708377
 C    1.2985287901   -2.9047061514   -0.0124511664
 C   -0.5654153089   -2.1585350545    0.8310631590
 C   -0.0948393271   -0.7811586028    1.3289715891
 H    0.9315681253    1.8475985967    0.5491238492
 H    0.0861284099    1.9095352719   -1.0080538696
 H   -0.8223083946    1.9474980002    0.5163788752
 H    0.0767047687   -0.4546230277   -2.1014919875
 H   -1.6834643749   -3.7182458526   -0.7243111119
 H   -0.1356597407   -4.3275739546   -1.4373777851
 H    0.1383497991   -4.3756642082    1.4388580407
 H    1.8680965719   -3.5294498119   -0.7058019411
 H    1.9648165617   -2.2852254778    0.5909213856
 H   -1.6599505132   -2.2031893345    0.8568792095
 H    0.8965787077   -0.7768908045    1.7997807085
 H   -0.7817029523   -0.3282121825    2.0524099207