16

 C    0.0017837061    1.4258824861   -0.0730693292
 C   -0.0226658330   -0.0667570763    0.0447661615
 O    0.0230538967   -0.7366326725   -1.2113118478
 C   -0.5008248958   -1.9942249342   -1.0322143206
 O   -0.6341066603   -2.7797952010   -1.9146277324
 N   -0.7571601902   -2.2082435715    0.3806084104
 C    0.6509377385   -2.2687475267    0.9926058778
 C    0.5948200905   -0.7744131821    1.2543129460
 C   -0.9014729911   -0.8331965075    0.9560777872
 H    0.9481216673    1.7689620306   -0.5013856567
 H   -0.8129048812    1.7717450052   -0.7157061293
 H   -0.1135117331    1.8845139449    0.9130573185
 H    0.6072303769   -2.8672388966    1.9040483696
 H    1.4239886374   -2.6649477472    0.3264231405
 H    1.1233230203   -0.2203905038    2.0207460632
 H   -1.7934196990   -0.5206526674    1.4840980913