13

 O   -0.0407283680   -0.0608566744    0.2728993927
 C   -0.0365665998    1.1371629120    0.0974273018
 N   -1.1068423023    2.0311316977    0.0071562027
 C   -0.6103564149    3.2939205896   -0.1909295034
 N    0.6834827028    3.3125885895   -0.2350110475
 N    1.0433390917    1.9935357595   -0.0549282528
 C    2.4191849655    1.5721844424   -0.0739784912
 C    3.0284009069    1.6430476330   -1.4111292224
 N    3.5191660455    1.6974846532   -2.4546131151
 H   -2.0689693137    1.7476249526    0.0752406864
 H   -1.2301282922    4.1703129585   -0.2947455968
 H    3.0083442381    2.1811160311    0.6188380037
 H    2.4283151105    0.5345306353    0.2743079221