23

 C    0.0707639369    1.4441944097    0.7319897496
 C    0.0661002807    0.0411653858    0.1302665167
 O    0.9431437696   -0.8310214294    0.8595532879
 C   -1.3557548231   -0.5379034327    0.0249510803
 C   -1.4459225207   -2.0413462005   -0.3007709510
 C   -2.9141183177   -2.4737054866   -0.3386066680
 O   -2.9677175013   -3.8927730903   -0.3573431991
 C   -0.7390857732   -2.4581529457   -1.5989493920
 O    0.6671832124   -2.2694765673   -1.5935595076
 H    1.0908932752    1.8334471160    0.7850013605
 H   -0.5315807154    2.1306486412    0.1278717772
 H   -0.3488940169    1.4387517581    1.7460724225
 H    0.5111511853    0.0692055443   -0.8671046355
 H    0.5986927398   -0.9276167233    1.7547352159
 H   -1.8795560828   -0.3577465780    0.9761913482
 H   -1.9015154080    0.0403346292   -0.7333627777
 H   -0.9807208257   -2.6020559068    0.5216773209
 H   -3.4370858248   -2.0720517744    0.5443534259
 H   -3.4031574024   -2.0446430262   -1.2292267597
 H   -3.8815079746   -4.1598416534   -0.4909522060
 H   -0.9812230579   -3.5115077055   -1.7923543426
 H   -1.1454940134   -1.8720775513   -2.4375735972
 H    0.9609332980   -2.1970084832   -0.6760456792