19

 O   -0.0345011723    1.4550640039   -0.0095530518
 C    0.0487359967    0.0384122072    0.0008294925
 C   -1.3718506204   -0.5109413693    0.0302348930
 C   -1.4062529424   -2.0394743065    0.0269531242
 C   -2.8511699552   -2.6161321618    0.0704859453
 C   -2.8370558440   -4.0724057547   -0.1034171573
 C   -2.7952914824   -5.2621433969   -0.2616868141
 C   -3.5542902191   -2.2371631445    1.3013819054
 C   -4.1158523318   -1.9132213646    2.3124981155
 H    0.8594405112    1.8089986335   -0.0186600118
 H    0.5767694794   -0.3366742482   -0.8916853266
 H    0.6042978318   -0.3230339530    0.8818617679
 H   -1.8801222808   -0.1240341091    0.9195594724
 H   -1.9131427773   -0.1183253778   -0.8397775291
 H   -0.9259844902   -2.4314228173   -0.8764345006
 H   -0.8525020793   -2.4406715318    0.8827286086
 H   -3.4014755720   -2.1813319667   -0.7774725355
 H   -2.7719671559   -6.3151921372   -0.3964114563
 H   -4.6208831058   -1.6331855953    3.2037495983