19

 C    0.0749798115    1.4180700120   -0.2296152280
 C    0.1191367977   -0.0819622015    0.0508041060
 C    0.7042317536   -0.4305272723    1.4104937285
 O    1.0291204631    0.4159008629    2.2138513935
 C    0.8675420778   -1.9136689179    1.7213994716
 C    1.3285401668   -2.1530114931    3.1536764084
 O    1.4362945528   -3.5620763927    3.3912719652
 C    2.6446009776   -4.0659480591    3.7039893081
 O    2.8281458275   -5.2278934138    3.9063384238
 H    1.0793581976    1.8489964364   -0.2127179996
 H   -0.3685003853    1.6133965506   -1.2095901253
 H   -0.5144392737    1.9386268176    0.5288991815
 H   -0.8866542616   -0.5232513996    0.0042501224
 H    0.6959301864   -0.6173255928   -0.7158304127
 H   -0.0769850524   -2.4376884854    1.5323089112
 H    1.5889240544   -2.3432017309    1.0134737512
 H    2.2857570161   -1.6551292513    3.3408675428
 H    0.6039134162   -1.7530572071    3.8669435211
 H    3.4327371940   -3.2883434020    3.7518789805