22

 C    0.0553210450    1.5986332992    0.2047293187
 C    0.1124991595    0.0711090004    0.1157113347
 C    0.6411492460   -0.4913556369   -1.2109192273
 C    2.0549693301   -0.0294873746   -1.5534873757
 C    0.4741999515   -2.0402261943   -1.2964920704
 N   -0.4860088380   -2.2804644801   -2.3780104317
 C   -0.8067759876   -1.1378489561   -2.8337004270
 C   -1.7615461458   -0.8696798248   -3.9472821629
 O   -0.2455871912   -0.0292570332   -2.2799894359
 H    1.0524166841    2.0487137902    0.1823626560
 H   -0.5215950185    2.0118802976   -0.6271973322
 H   -0.4232950892    1.9104212437    1.1379265305
 H    0.7366447869   -0.3325860967    0.9235232442
 H   -0.8924776056   -0.3406767972    0.2687751021
 H    2.7554599387   -0.3419937030   -0.7718921905
 H    2.3783701073   -0.4738423268   -2.4992504831
 H    2.1095527957    1.0573891950   -1.6519596310
 H    1.4226073039   -2.5440408609   -1.5173898851
 H    0.0963651170   -2.4631402810   -0.3580480388
 H   -2.1569076941   -1.8115537636   -4.3259844805
 H   -2.5848452412   -0.2388437527   -3.5974313629
 H   -1.2596917546   -0.3290080843   -4.7559338610