22

 C   -0.3599323602    1.3120714865    0.4956724897
 O   -0.4299534068   -0.0755574909    0.7121290393
 C    0.8299393772   -0.6560652417    0.9671740278
 C    0.6397770181   -2.1516726470    1.1785845987
 C    1.9691084070   -2.8668843776    1.4713287213
 C    1.7932045437   -4.3476799516    1.6862594547
 N    2.2710844858   -5.2026219581    0.8803999048
 O    1.0689623689   -4.5721851969    2.8193178528
 C    0.7789418689   -5.9180165219    3.1613563544
 H    0.2696340444    1.5605303028   -0.3740218198
 H   -1.3762524518    1.6669647960    0.3072621415
 H    0.0449440046    1.8441792544    1.3717901648
 H    1.5171515586   -0.4698765176    0.1227388282
 H    1.2908081020   -0.1970827541    1.8604176334
 H   -0.0580357157   -2.3078708647    2.0066412884
 H    0.1775972109   -2.5790349079    0.2817480417
 H    2.6691201445   -2.7402396534    0.6426939031
 H    2.4245136173   -2.4368169953    2.3721413882
 H    2.0636247025   -6.1629319937    1.1512547049
 H    1.6957518646   -6.4924886411    3.3426441459
 H    0.1915593824   -5.8786232312    4.0795086491
 H    0.1935119532   -6.4138440352    2.3773573872