19

 O   -0.1743345854    1.4736271702   -0.2120354605
 C   -0.1869697100    0.0614846821   -0.2351706965
 C   -1.4381656254   -0.5419503943    0.3222149146
 C   -2.5795342758    0.1536331583    0.5558504745
 C   -3.2092854830    0.7756043951   -0.7145886093
 C   -3.9710768638   -0.5946447493   -0.7495338905
 C   -3.2735439586   -1.8879090447   -0.1575401829
 C   -1.7628279767   -2.0159304379    0.1028181181
 C   -3.7742917274   -0.8045037633    0.7251324577
 H   -0.6329714092    1.7402767153    0.5943389589
 H   -0.0599594392   -0.2372702243   -1.2874451496
 H    0.6858649197   -0.3590613955    0.2990514199
 H   -3.9352386869    1.5805355815   -0.5529292764
 H   -2.5223475955    1.0501910826   -1.5179949362
 H   -4.8994688262   -0.7477127373   -1.2956790184
 H   -3.8684335642   -2.7858405613   -0.3157100718
 H   -1.1740341349   -2.3865586086   -0.7461840171
 H   -1.5761466099   -2.7042800765    0.9394991806
 H   -4.4935673277   -0.8387609922    1.5329904747