20

 C   -0.0527685635    1.5975378739   -0.0961817146
 C   -0.1582559093    0.0733329200   -0.1837995153
 C    0.8388607798   -0.5343338014   -1.1786631694
 O    2.1817979467   -0.2005746362   -0.8671526464
 C    0.6715311577   -2.0514609570   -1.3267580041
 C   -0.3611542374   -2.5984195355   -2.2999544920
 C    1.0965914851   -2.7081338537   -2.6291338931
 C    0.9129932969   -2.7868952462   -0.1109252508
 N    1.1309850748   -3.3347547818    0.8854519973
 H    0.9622513550    1.8998482376    0.1733568063
 H   -0.2941422654    2.0665098083   -1.0566444909
 H   -0.7427485491    1.9957840424    0.6530733272
 H    0.0150767206   -0.3749677507    0.8038854308
 H   -1.1721704383   -0.2227672722   -0.4792694192
 H    0.6663545451   -0.0983023835   -2.1708209809
 H    2.3784985547   -0.5476817137    0.0116879416
 H   -0.8969536549   -3.4957799716   -2.0150895721
 H   -0.9594112986   -1.8634776619   -2.8277497168
 H    1.5158935343   -2.0463127046   -3.3784616233
 H    1.5639421258   -3.6836273926   -2.5715126943