18

 O    0.0097230388    1.4070682281   -0.0633085993
 C   -0.0068060493   -0.0107474773   -0.0657190354
 C   -1.4324297830   -0.4907606753   -0.0058982043
 C   -2.4800633963    0.3330505753    0.1062406421
 C   -3.8827311248   -0.1995093208    0.1570468438
 C   -3.9270227827   -1.5624675302   -0.5196813841
 O   -2.9000459284   -2.4350632881   -0.0308296101
 C   -1.6229853584   -1.9540975559   -0.0055007767
 N   -0.6248010548   -2.7387286793    0.0798107086
 H    0.9274958282    1.6892546231   -0.0332587410
 H    0.4705409934   -0.4222616311   -0.9679608248
 H    0.5445703739   -0.4291898556    0.7886206806
 H   -2.3108896771    1.4016200510    0.1728229995
 H   -4.2273331994   -0.2733458366    1.1983944890
 H   -4.5780289758    0.4789063113   -0.3508195104
 H   -4.8655128393   -2.0888003135   -0.3322266959
 H   -3.8062024732   -1.4433747657   -1.6050056797
 H   -0.9436352718   -3.7094826895    0.0806218079