18

 C    0.2469736667    1.4203948435    0.2513034037
 C   -0.0149758913   -0.0361957295   -0.0440130468
 C    0.6487828971   -0.7930731131   -1.2173635392
 C    1.5551260796   -0.0389726962   -2.1246575801
 O    2.5396945207    0.5723597076   -1.7821915116
 N    0.9710598837   -1.0462644236    0.1666199452
 C    2.1830805185   -0.9202756724    0.8597208318
 C    3.3335768400   -1.7144195517    0.2817903592
 O    2.2419118995   -0.2962144217    1.8939914515
 H    1.2296998902    1.7372190971   -0.0999000403
 H   -0.5215690355    2.0400979881   -0.2209139906
 H    0.2107672095    1.5806631632    1.3316802125
 H   -1.0318678103   -0.3682944791    0.1651660791
 H    0.0562096203   -1.5587622430   -1.7165540976
 H    1.2372496021   -0.0662898238   -3.1898262683
 H    3.8661206033   -1.0855509661   -0.4376902318
 H    4.0166740480   -1.9828673222    1.0884470705
 H    2.9882982479   -2.6131616471   -0.2352242970