18

 C   -0.0013975512    1.4894277295   -0.0195277857
 N    1.4149986635    1.8955214492    0.0114748292
 C    2.0832605631    0.8071200081    0.0341791923
 N    1.3510257423   -0.3695941922    0.0226778176
 C    1.8009132720   -1.7482013922    0.0616609501
 C    0.6732033114   -2.5892664559    0.6738744634
 C   -0.6761691736   -2.2549473370    0.0143186292
 N   -0.9974951937   -0.8258701016   -0.0107683801
 C   -0.0062572566   -0.0328463052   -0.0030957775
 H   -0.5375183968    1.9022518929    0.8416592013
 H   -0.4918209311    1.8815297225   -0.9172205691
 H    3.1680124427    0.7553139513    0.0624495332
 H    2.0372211584   -2.1031548024   -0.9509672147
 H    2.7178286180   -1.8173516349    0.6569093576
 H    0.9036041976   -3.6529744215    0.5636194736
 H    0.6111355940   -2.3749742885    1.7467952175
 H   -0.6950908692   -2.6391230549   -1.0163196613
 H   -1.4811957010   -2.7748618871    0.5443734534