25

 C   -0.2489877198    1.4324121245   -1.0144125038
 C   -0.0456626431    0.0646003049   -0.3463191698
 C    0.7375003414    0.1965497800    0.9676006023
 C   -1.3970341952   -0.5963873220   -0.1039160316
 O   -2.2013884859   -0.7026733891   -1.3032117297
 C   -2.6448443128   -2.0204990402   -0.9310718371
 C   -1.5640296699   -2.1282696326    0.1742298938
 C   -0.3881533580   -3.0040657577   -0.2613313138
 C   -2.0520593303   -2.5051621168    1.5691797397
 H    0.7141557506    1.8989832211   -1.2454631092
 H   -0.8173003677    1.3301742144   -1.9418516889
 H   -0.7996971689    2.1126429295   -0.3534533367
 H    0.5268276036   -0.5660617552   -1.0371038746
 H    0.1953960171    0.8246163118    1.6844099233
 H    0.9141788348   -0.7736519991    1.4426957436
 H    1.7123178618    0.6624291399    0.7919487110
 H   -1.9410851349   -0.0074560422    0.6556136834
 H   -3.6768789270   -2.0117164836   -0.5513171390
 H   -2.5768951784   -2.7288477019   -1.7653885738
 H   -0.0620478556   -2.7655764803   -1.2777540035
 H    0.4719574325   -2.8943405460    0.4071250389
 H   -0.6830366647   -4.0596595114   -0.2474600439
 H   -2.3716496997   -3.5531231150    1.6043933357
 H   -1.2579196029   -2.3794682832    2.3138719633
 H   -2.9006261167   -1.8854746994    1.8766262104