25

 C    0.0843258898    1.5725696435    0.1607117821
 C   -0.1153487167    0.0929186894    0.5049725873
 C   -1.4603337232   -0.5061084939    0.0875253832
 C   -2.6576579138    0.3531763432    0.1134712864
 O   -2.0098401983    0.0409915528   -1.1248659763
 C   -1.5838840711   -2.0468470019    0.1896638652
 C   -1.1763073023   -2.5256708561    1.5969852536
 C   -3.0251089708   -2.5152585268   -0.0910238517
 C   -0.6626748974   -2.6876336243   -0.8716437366
 H    1.1230567356    1.8628354292    0.3430750614
 H   -0.1480221352    1.7603348963   -0.8901579022
 H   -0.5454621197    2.2272971919    0.7706707187
 H    0.6837273597   -0.4856164752    0.0285536069
 H    0.0088552708   -0.0538757517    1.5838281425
 H   -3.6470659705   -0.0770485840    0.2397907723
 H   -2.5730511646    1.3909424738    0.4288734507
 H   -1.7702208685   -2.0300458989    2.3731247714
 H   -1.3450748229   -3.6038374169    1.6886204497
 H   -0.1195341235   -2.3408904035    1.8083665890
 H   -3.4003211434   -2.0898017683   -1.0255027492
 H   -3.0480001208   -3.6057947045   -0.1811660645
 H   -3.7085936200   -2.2424315145    0.7189443444
 H    0.3930985050   -2.4617780859   -0.6975780575
 H   -0.7691486454   -3.7771725184   -0.8555696680
 H   -0.9263575929   -2.3338720053   -1.8726526589