19

 C   -0.0438463246    1.5780872469    0.0154944359
 C    0.0314229092    0.0589457327   -0.1183744026
 N   -1.3064587546   -0.5312320782    0.0221389109
 C   -1.8605865241   -0.7204515239    1.4416074038
 C   -2.7981093804   -1.7876060500    0.8061915516
 C   -1.3840894963   -2.0476069120    0.2120371922
 C   -0.8430672996   -1.8457074201    1.6171408720
 N    0.0732809662   -2.3127706376    2.3451819381
 O    0.1676635879   -1.5954287988    3.5658664430
 H    0.9352361346    2.0285375966   -0.1729408769
 H   -0.7625257755    1.9940486957   -0.6962761954
 H   -0.3552872676    1.8716226193    1.0235107141
 H    0.3818478768   -0.2080895172   -1.1228278959
 H    0.7626183027   -0.3496331017    0.5969342563
 H   -2.1086491781    0.1133301715    2.0935373772
 H   -3.2089333502   -2.5492470207    1.4693541634
 H   -3.5157347017   -1.3822344627    0.0916700068
 H   -1.0773901367   -2.7476451538   -0.5631453231
 H    0.8804966320   -2.0643565460    4.0123090187