23

 C    0.0940499391    1.4848803306    0.3438729335
 C   -0.0193924897   -0.0144633865    0.0578832846
 C   -1.4672342568   -0.4929444404   -0.0608089505
 C   -1.5679944253   -1.9792018887   -0.4100365542
 O   -2.0858042886   -0.2049418795    1.1912427175
 C   -3.4767875652   -0.1689078107    1.2005519353
 C   -3.9768225396    0.6635446569    2.3828439540
 C   -5.4710483963    0.5688621352    2.6424018085
 O   -3.2398117250    1.3420370400    3.0522200261
 H    1.1383782473    1.7826345651    0.4772942643
 H   -0.3166941939    2.0763696393   -0.4827933192
 H   -0.4604533015    1.7406476429    1.2498660326
 H    0.5058507786   -0.2703749435   -0.8702233300
 H    0.4614299106   -0.5867464585    0.8610117583
 H   -1.9746813087    0.0968435540   -0.8452326558
 H   -2.6097827434   -2.3042201115   -0.4928044310
 H   -1.0800726962   -2.1823934979   -1.3685654164
 H   -1.0808837154   -2.5836902542    0.3617675020
 H   -3.8841899531    0.2978132479    0.2839065057
 H   -3.9325026065   -1.1732056980    1.2579497626
 H   -5.6963013890   -0.3881210063    3.1281506067
 H   -5.7817676551    1.3799231315    3.3018803192
 H   -6.0460255762    0.5993667825    1.7107333461