21

 C   -0.0579070994    1.5567468120   -0.1352015993
 C    1.4892872015    1.5372958899    0.0188866217
 C    1.3719282663    0.0986956006    0.5809384545
 C   -0.0751816866    0.0138256461    0.0545979731
 C    2.4907923560   -0.9749359999    0.4105475890
 C    3.1805625238   -0.3065239089    1.6412818113
 C    1.7029320634   -0.1612009249    2.0743951618
 O    1.2724664012   -1.5178740229    2.2723281984
 C    1.8131762011   -2.1679066594    1.0952063137
 H   -0.5473586958    2.0797159955    0.6904786719
 H   -0.4556406862    1.9477628379   -1.0740352902
 H    2.0025485899    1.5618781545   -0.9480260136
 H    1.9371890199    2.2993879914    0.6628442646
 H   -0.8154891643   -0.4078055502    0.7385624076
 H   -0.1388301203   -0.5216356407   -0.8989347904
 H    2.9984408415   -1.1501078744   -0.5383425715
 H    3.8238919901   -0.9236578946    2.2732732332
 H    3.6632380934    0.6400471956    1.3971111583
 H    1.3547292704    0.4597555807    2.8994599120
 H    1.0011671176   -2.6079438583    0.5044942640
 H    2.5104510366   -2.9606914599    1.3907759398