15

 O    0.0683365174   -0.0245569296    0.0646226004
 C   -0.0095465426    1.1599559942   -0.0147926441
 O    1.1082183866    1.9465159027    0.1572478933
 C    0.9704317277    3.3051950761    0.1342660236
 N   -0.1325066430    3.9258140001    0.1526324395
 C    0.1605183730    5.3641601313    0.0798030163
 C    1.6912158283    5.5300906861    0.3100621820
 C    2.2436686664    4.1097079960    0.0682972474
 H   -0.9082235008    1.7525131299   -0.2274461352
 H   -0.1521157629    5.7347004116   -0.9044194222
 H   -0.4386442879    5.8990333451    0.8225640951
 H    2.1365467784    6.2785580281   -0.3478364481
 H    1.8862674016    5.8405084334    1.3400332975
 H    2.9762351158    3.7764794903    0.8080579940
 H    2.7078054319    3.9858012747   -0.9176320897