22

 C    0.1803130507    1.5423937527    0.2320596902
 C    0.3243271411    0.0178781435    0.1788827822
 C    0.6102011153   -0.5228115398   -1.2392729091
 C    1.9480433962   -0.0465507187   -1.7716189628
 C    2.8627502310   -1.0151684096   -1.7807964140
 C    2.2951184686   -2.3271774915   -1.2965947475
 C    0.7649643523   -2.0771539891   -1.3435522803
 C   -0.0467954744   -2.9228528958   -0.3636365602
 H    1.1068570799    2.0466916700   -0.0598400045
 H   -0.6118798813    1.8877499083   -0.4423564948
 H   -0.0742130131    1.8792282435    1.2418882929
 H    1.1267405439   -0.2969032051    0.8581762416
 H   -0.5987905954   -0.4390521878    0.5547816003
 H   -0.2160316175   -0.1885620676   -1.8825595362
 H    2.1310224718    0.9831079037   -2.0589670152
 H    3.9005260539   -0.8944282392   -2.0730246700
 H    2.5924100326   -3.1827878147   -1.9142801361
 H    2.6412859803   -2.5527807799   -0.2763954516
 H    0.4421789132   -2.3390080887   -2.3591613379
 H    0.2506652471   -2.7448666033    0.6749219443
 H   -1.1197279666   -2.7165837613   -0.4443595113
 H    0.0980112203   -3.9894840796   -0.5670764701