22

 C   -0.6101013627    0.4915074834   -2.5589230012
 C   -0.3940138812   -0.7000772051   -1.6180754139
 C   -1.6749779554   -1.1371396334   -0.9330785348
 C   -2.6224860064   -2.1743808005   -1.5042900541
 C   -2.4009045865   -2.8731420117   -2.8312073893
 C   -1.8250286971   -2.4805228013   -0.2499071841
 C   -0.7009730767   -3.4823934543   -0.2128193863
 O    0.2333611283   -3.0496224486    0.7732004960
 H    0.3307129572    0.8118352898   -3.0180030819
 H   -1.3092854619    0.2408790139   -3.3637867213
 H   -1.0251986404    1.3496672514   -2.0185047505
 H    0.0494334157   -1.5272753022   -2.1815926083
 H    0.3422067010   -0.4375707976   -0.8488005639
 H   -2.1644640929   -0.3153976954   -0.4134293049
 H   -3.6752290784   -1.9758100445   -1.3164023805
 H   -1.3450354359   -3.0358954022   -3.0590335748
 H   -2.8935653467   -3.8520420876   -2.8456900463
 H   -2.8225722403   -2.2820550754   -3.6518766320
 H   -2.3881441447   -2.4678688088    0.6798464428
 H   -1.1039833026   -4.4762827502    0.0412053822
 H   -0.2158023700   -3.5757774555   -1.1941398261
 H    0.9151528073   -3.7238945041    0.8516102833