17

 O   -0.0994902568    0.0533856809    0.0075727222
 C   -0.0918233109    1.2568938148    0.0130515866
 C   -1.3217824728    2.1760652714    0.0342181031
 C   -0.7121146972    3.5516262156    0.0317941113
 C    0.6229040166    3.5201140582    0.0132614295
 C    1.1712127509    2.1281641849   -0.0003334347
 C    2.2848594343    1.7313494410    1.0133469322
 O    3.2399962851    1.4881545265   -0.0312153390
 C    2.2568583946    1.7403450286   -1.0472862353
 H   -1.9606281869    1.9719759619   -0.8345911808
 H   -1.9361416290    1.9642849778    0.9187137910
 H   -1.3098274096    4.4555870505    0.0439618581
 H    1.2674011837    4.3923603038    0.0081731018
 H    2.6023181102    2.5314044228    1.6927591013
 H    2.0577809527    0.8232083606    1.5848048448
 H    2.0142143961    0.8371890691   -1.6202422666
 H    2.5558565889    2.5463170116   -1.7280787657