17

 O    0.1611624392    0.1612741426   -0.7342481074
 C    0.0101253053    1.1846338718   -0.1465841391
 C   -1.1406384935    2.1134116302    0.2281184366
 C   -0.0462167906    2.9639520938    0.9084057125
 C    0.2587702577    4.3752083280    0.3766872772
 C    0.7943305980    5.1793129487    1.5872757862
 C    0.4311448490    4.3107128048    2.7651456853
 C   -0.0303213115    3.1163463389    2.3972099864
 O    0.9656513321    1.9499689733    0.4599481054
 H   -1.6437445258    2.5743093362   -0.6240450184
 H   -1.8834589266    1.6674313289    0.8924122366
 H    0.9583119504    4.3294070109   -0.4605172489
 H   -0.6680863604    4.8258270338    0.0091743591
 H    1.8803740700    5.3303159751    1.5404832690
 H    0.3488333653    6.1780962496    1.6511079736
 H    0.5641462508    4.6363740928    3.7910936803
 H   -0.3225343994    2.3094329305    3.0591611854