20

 N   -0.2600169182    1.2782852326    0.3457198087
 C   -0.0066880559    0.0723861219    0.0675311046
 O    1.2411576122   -0.4383574304   -0.0561125202
 C    1.3843181259   -1.6692583346   -0.7890936875
 C    1.2923993534   -1.4748496820   -2.3064407923
 C    0.0593194863   -0.7342499927   -2.8678773121
 C   -1.3288977363   -1.2751823020   -2.4613649493
 C   -1.8854974963   -0.6539164583   -1.1796155233
 O   -0.9818864571   -0.8547626769   -0.0820389718
 H    0.6073923351    1.8099047158    0.3978451896
 H    2.3806744099   -2.0308426946   -0.5234377948
 H    0.6479598473   -2.3911204225   -0.4331441851
 H    2.1862311068   -0.9384174847   -2.6462603081
 H    1.3467278726   -2.4775258514   -2.7522312405
 H    0.1204859624    0.3289643474   -2.6067445047
 H    0.1456781853   -0.7712830901   -3.9591360808
 H   -2.0516722905   -1.0661869776   -3.2596727958
 H   -1.2944525332   -2.3667979340   -2.3555729389
 H   -2.0601101803    0.4208795309   -1.2956617292
 H   -2.8240458893   -1.1309047771   -0.8861158286