18

 N   -0.0440356692   -1.1321325264    0.1727332493
 C   -0.0034961964    0.0214240697    0.2276434109
 C    0.0739473636    1.4791179641    0.2844233225
 C    1.3838009561    2.0208531980   -0.3478038107
 C    1.4550493506    3.4739482867   -0.2846864922
 C    1.4846289900    4.6774471985   -0.2165575721
 C    1.5293919651    6.1089508226   -0.1481504195
 C    1.5755159423    6.8114292535    1.2007464583
 C    2.7919547651    6.8139419012    0.3250844165
 H   -0.7905647599    1.9038080278   -0.2353503423
 H    0.0066671749    1.8002807251    1.3285893216
 H    2.2398312788    1.5737681151    0.1708572521
 H    1.4439983780    1.6791108224   -1.3876630771
 H    0.9696786602    6.6210681782   -0.9254545438
 H    1.0043869272    7.7273643367    1.3011886189
 H    1.5836944755    6.1823281377    2.0826728659
 H    3.6276499421    6.1864642886    0.6103789878
 H    3.0653146960    7.7313672006   -0.1835631362