18

 C   -0.0792561516    1.5564973865    0.0090733906
 C    0.0706911705    0.0351002899   -0.0127088583
 N    0.7690435678   -0.4781284456    1.1727480071
 C    2.0992857221   -0.7621746632    1.1215752008
 C    2.7830402884   -1.2275028974    2.2034093573
 C    2.0662261756   -1.4165810611    3.4141918642
 C    0.7350602612   -1.1370613408    3.4855026359
 C   -0.0080008915   -0.6298455846    2.3527784572
 O   -1.1973316052   -0.3379851252    2.3414401307
 H    0.8967091631    2.0511173907    0.0414018188
 H   -0.6037487597    1.8919657848   -0.8908029047
 H   -0.6608116161    1.8599022837    0.8817754743
 H   -0.9149132913   -0.4335480482   -0.0268153040
 H    0.6296479549   -0.2941394419   -0.8930961277
 H    2.5738524843   -0.5964433459    0.1609943700
 H    3.8389427724   -1.4468266857    2.1251264365
 H    2.5883909398   -1.7899336695    4.2901559528
 H    0.1638797652   -1.2722391964    4.3956283684