14

 O   -0.0455260791    1.3265478812   -0.3517933962
 C    0.0007217897   -0.0438607578   -0.1749758150
 C    0.1010856561   -0.5819433175    1.2846726319
 O   -1.2746737544   -0.0768555990    1.5113389168
 C   -1.3242208132   -0.7824124473    0.1909405904
 C   -0.5297119807   -1.9411606707    0.8311920052
 C    0.2493720896   -2.9432345126    0.0242480181
 O    0.3877040649   -2.9197687546   -1.1739744026
 H   -0.6276302801    1.6577108534    0.3478255562
 H    0.6317263005   -0.4876744292   -0.9422156841
 H    0.8377370133   -0.4004736367    2.0677332374
 H   -2.2835104173   -0.8119331611   -0.3244318676
 H   -1.0531045457   -2.4166252272    1.6643338785
 H    0.7117963163   -3.7518646911    0.6344519309