21

 C   -0.1390280863    1.3287867142    0.1867480989
 O   -0.0445086954   -0.0734444938    0.0924625015
 C   -1.3012962212   -0.7263187992    0.0771362038
 C   -1.0387047539   -2.2182144972   -0.1398966029
 O   -0.3175466255   -2.3787169187   -1.3526397669
 C   -0.3058467443   -2.8351120608    1.0945818783
 C   -1.3959147217   -3.5709241971    1.8297493352
 C   -2.5147202101   -3.6574854428    1.1118429548
 C   -2.3785802531   -2.9927193514   -0.2340834926
 H    0.8784244241    1.7272617468    0.1813554210
 H   -0.6953114247    1.7569251821   -0.6613727671
 H   -0.6380591857    1.6393410640    1.1173349556
 H   -1.8429399510   -0.5591810698    1.0218052807
 H   -1.9175599454   -0.3389099428   -0.7498489762
 H    0.3719516862   -1.7027990276   -1.3408704530
 H    0.4730265609   -3.5222681627    0.7401218346
 H    0.1967180084   -2.0719337761    1.6982076354
 H   -1.2517830734   -3.9978214181    2.8165328696
 H   -3.4214818580   -4.1658631228    1.4206599048
 H   -3.2221647912   -2.3350623161   -0.4794958321
 H   -2.3094090985   -3.7247613603   -1.0485221333