19

 C   -0.1223232997    1.5939997828   -0.1785785557
 C   -0.0791964554    0.0831851101   -0.0991483441
 C   -1.2975217043   -0.5659079197    0.5356458199
 O   -1.4068533797   -0.3359768234    1.9307220171
 C    0.6339005886   -0.7148664619   -1.1773965283
 N    1.3234242646   -0.1534667948   -2.3015021510
 C    1.2481431493   -0.6165624698    0.2147346262
 C    2.4406548473    0.1604856898    0.3837210897
 N    3.3987087006    0.8029245872    0.4863473265
 H    0.7466508488    2.0050393708   -0.6956095631
 H   -1.0200214730    1.9194573320   -0.7172427433
 H   -0.1438515157    2.0438789275    0.8199645373
 H   -2.2017647153   -0.2317032955    0.0020409034
 H   -1.2399919081   -1.6539148929    0.4239164419
 H   -1.5974884163    0.5965079980    2.0707113755
 H    0.1968469001   -1.6890935583   -1.3903327022
 H    0.7039529658    0.3911957462   -2.8911041918
 H    2.1007825197    0.4355518960   -2.0248000039
 H    1.2008948527   -1.4951636642    0.8491244160