10

 O   -0.0437671944   -0.0623016769   -0.0005046880
 C   -0.0125450770    1.1320608424    0.0075816522
 N    1.1748786988    1.8907200390    0.0002017791
 N    2.4360787399    1.3367221227   -0.0174544713
 N    3.2747438384    2.2818761566   -0.0195361115
 N    2.6077603246    3.4668586732   -0.0035653848
 C    1.2363056027    3.2980592765    0.0096655048
 O    0.3407241941    4.1034770214    0.0254066164
 H   -0.8827915411    1.8073345553    0.0220833689
 H    3.1152433140    4.3363356499   -0.0023821458