19

 C    0.2019264730    1.4671853186    0.4053408130
 C   -0.0647899599    0.0859985260   -0.2168701913
 C   -1.4919259908   -0.3578670462   -0.0988820184
 C   -2.4045558449   -0.4541949148   -1.1046313589
 O   -2.3032171838   -0.1356225449   -2.4021678170
 C   -2.8456522195   -1.0853600493   -3.3238113900
 O   -3.6153061480   -0.8789805178   -0.6508168287
 C   -3.4750298904   -1.0646611179    0.6991420754
 C   -2.2144223281   -0.7546902948    1.0850965234
 H    1.2565079168    1.7442592305    0.3063166156
 H   -0.4017564009    2.2375982537   -0.0840000047
 H   -0.0496063415    1.4761203066    1.4709273831
 H    0.2080099890    0.1057220807   -1.2773291835
 H    0.5914822636   -0.6537059144    0.2598659017
 H   -2.3658284382   -2.0637238450   -3.2016309896
 H   -3.9261037314   -1.1919101659   -3.1900481491
 H   -2.6356675048   -0.6940124555   -4.3201577008
 H   -4.3504597497   -1.4256847841    1.2115177530
 H   -1.8236585105   -0.8101523253    2.0900173668