20

 C    0.1450105022    1.5404946658    0.1529462002
 C    0.0030533722    0.0207155585   -0.0260958279
 C    0.6102564152   -0.7149902573    1.1898067746
 C   -1.4883111182   -0.3593588755   -0.1666598406
 C    0.7369437803   -0.3978996873   -1.2712689750
 N    1.4041154647    0.3260123673   -2.1148757919
 C    1.8683168976   -0.5732652221   -3.0684111313
 C    1.4488126144   -1.8156821985   -2.7438742426
 O    0.7200292401   -1.7232242585   -1.5913730156
 H    1.1942854197    1.8311830965    0.2460718600
 H   -0.2716281494    2.0797602186   -0.7013084305
 H   -0.3859839948    1.8549929180    1.0570612975
 H    0.0748345098   -0.4335801575    2.1022509709
 H    0.5393708161   -1.7996414678    1.0720071625
 H    1.6649469597   -0.4536020698    1.3203698871
 H   -1.9473185114    0.1579572455   -1.0148592376
 H   -1.6101128559   -1.4354807541   -0.3167029343
 H   -2.0333696898   -0.0759966592    0.7395068739
 H    2.4648553613   -0.2545967161   -3.9082810680
 H    1.5571604964   -2.7981653065   -3.1695574014