18

 C   -0.1379568765    1.4985554195   -0.0427749483
 C    0.0271827965    0.0174020060   -0.0109726918
 C    0.0584395458   -1.0887250297   -1.0015737480
 N    1.3004220944   -1.6570878307   -0.4594344980
 C    0.9614016324   -0.9535532784    0.8130959062
 C   -0.3751802717   -1.5573667057    1.3082679404
 O   -0.7698408666   -1.9427217965    2.3767497743
 C   -1.0637797589   -1.1242918307    0.0558237325
 C   -2.5303304331   -1.0575795974   -0.2323068645
 H    0.7786003970    1.9895781744   -0.3867175759
 H   -0.9474914886    1.7848316009   -0.7217415772
 H   -0.3801058350    1.8920813332    0.9501707747
 H   -0.1777213844   -1.0796250904   -2.0603702733
 H    1.2816595917   -2.6754977506   -0.3613539345
 H    1.7682911107   -0.6925051607    1.4942423502
 H   -3.0869903551   -0.7267624858    0.6503182649
 H   -2.7463944335   -0.3642191148   -1.0521415564
 H   -2.9197625953   -2.0394822126   -0.5220811153