17

 C    0.1559483492    0.9721627831    0.4687969067
 N   -0.2147635556   -0.1107678877   -0.4185206129
 C   -1.0693889865   -0.9300372964   -0.0097979456
 O   -1.4282713358   -1.9849784159   -0.7985478994
 C   -2.5139538538   -2.7341232508   -0.3589427642
 C   -2.5221985339   -4.1609206769   -0.7699288633
 C   -2.3073648866   -3.8183918479    0.7026978433
 C   -1.0156943318   -3.9992517694    1.2971963180
 N    0.0184136998   -4.1365993475    1.7972383971
 H    1.2289514175    0.9152776319    0.6817127721
 H   -0.0200427844    1.9298901572   -0.0331623880
 H   -0.3877102687    0.9740407715    1.4270156114
 H   -1.5814558555   -0.9002426371    0.9623712286
 H   -3.4558808676   -2.1922103376   -0.3105092299
 H   -3.4609828546   -4.6279021088   -1.0410614667
 H   -1.6515476850   -4.5028577668   -1.3161133262
 H   -3.1379169066   -3.9950094709    1.3781171189