16

 N   -0.1284271004    1.2394341556   -0.4183677692
 C   -0.0126390770   -0.0152146671    0.0833976144
 O    1.0172337276   -0.5163580447    0.4949818958
 C   -1.3090961524   -0.7694560222    0.0904104002
 O   -2.5355563066   -0.1457277343   -0.4050771424
 C   -2.9350228925   -1.4905236823    0.0140396387
 C   -1.6346908254   -2.1854906951   -0.4937348214
 C   -1.3833577398   -2.8752096890    0.8641055306
 C   -2.0104234398   -1.5242333271    1.2694086813
 H    0.6869641004    1.8274898619   -0.4654200105
 H   -1.0200422230    1.5798294641   -0.7380196499
 H   -3.9789091701   -1.7794375994   -0.1000700510
 H   -1.4241650046   -2.5202662981   -1.5089026966
 H   -1.9777081194   -3.7687415959    1.0725279498
 H   -0.3386639793   -3.0189779366    1.1407344255
 H   -2.2260936079   -1.1094050400    2.2534557347