23

 C   -0.4306129430    1.5207669334   -0.0118405592
 C    0.0203800874    0.0654327642   -0.0795866215
 C   -1.1116528603   -0.8989746247    0.2436534986
 C    0.8956600756   -0.2884845275   -1.3092600877
 C    2.0633127295   -0.3527724721   -0.3012253548
 O    1.1558847338   -0.1565431779    0.8110894080
 C    2.8536945804   -1.6226545532   -0.1997077126
 C    4.1634003456   -1.7449127327   -0.9431603489
 C    4.1563105495   -1.6394710919    0.5593028220
 H    0.3998021968    2.1970745767   -0.2352654411
 H   -1.2354959457    1.7149641172   -0.7294685332
 H   -0.8006056098    1.7569388434    0.9910919162
 H   -1.9327431515   -0.7884108932   -0.4733485572
 H   -0.7596181395   -1.9337590388    0.2120431426
 H   -1.5048918503   -0.7034636256    1.2467885634
 H    0.6556813980   -1.2506001683   -1.7678077112
 H    0.9662921408    0.4737200647   -2.0873839129
 H    2.7564798776    0.4984617844   -0.3862330961
 H    2.2443045613   -2.5203158441   -0.1358546531
 H    4.4061603281   -2.6994660944   -1.3960670257
 H    4.5068387083   -0.8861409408   -1.5112077159
 H    4.4905291628   -0.7086601264    1.0054091568
 H    4.3967500644   -2.5220749223    1.1410150235