16

 C   -0.1728546300    1.4812812822    0.0470201534
 C    0.0472560779   -0.0417370559   -0.0379877841
 C    0.8637906927   -0.4291625069   -1.2744151143
 O    2.2294723524   -0.0925994502   -1.0556434169
 C    2.7507256924   -0.8723636945   -0.0392194376
 O    2.0653024798   -0.7301496301    1.2144860953
 C    0.7258536080   -0.5040031539    1.2521606817
 O    0.1432381824   -0.5959152276    2.2968968151
 H    0.7842453075    2.0098068142    0.0237484714
 H   -0.7732598864    1.8220076459   -0.8021225705
 H   -0.6950917412    1.7408272470    0.9701350797
 H   -0.9268857032   -0.5399410523   -0.0622217975
 H    0.7769830967   -1.5062746322   -1.4880344403
 H    0.5373919479    0.1238653354   -2.1586546168
 H    2.7249212910   -1.9416245706   -0.3051175306
 H    3.7775462321   -0.5506127205    0.1416789618