17

 O   -0.0787004207    1.4734786963   -0.1858147664
 C    0.0338616414    0.1339307084    0.2657407063
 C   -1.3031579520   -0.5752922508    0.0983413287
 N   -1.8310422036   -0.5771431661   -1.3155971124
 C   -2.1609507708   -2.0041255612   -1.1742214219
 C   -0.8851535932   -2.8015619343   -1.0838001799
 C    0.3181981918   -2.4414733207   -1.7864661415
 N    1.2879946700   -2.1933741304   -2.3661198500
 C   -1.4433958804   -2.1037004420    0.1572561948
 H   -0.2130092934    1.4198083836   -1.1395080967
 H    0.8300667426   -0.4019209606   -0.2632569175
 H    0.3005912683    0.1771829962    1.3275424713
 H   -2.0373547908   -0.1247419472    0.7755397197
 H   -2.6653093198   -0.0075558181   -1.3968281975
 H   -3.0871336436   -2.4347110869   -1.5350503475
 H   -1.0472025390   -3.8753219281   -1.0422274748
 H   -1.6567541268   -2.6852544182    1.0442204252