18

 C    0.0206949042    1.6086334772   -0.0443339064
 C    0.0788452401    0.0919717474    0.0256062828
 N    0.7271246458   -0.6133250728   -1.1138876596
 C   -0.1557653980   -1.2502855609   -2.0800387060
 C    0.5854873331   -1.9624683106   -3.1167069901
 C    1.1938916168   -2.5677969537   -3.9571324418
 C    1.5257434674   -1.4950964876   -0.2290858258
 C    1.1238183592   -0.5790796154    0.9343351389
 O    1.4883312611   -0.4166879526    2.0592379238
 H    1.0067078345    2.0195702638   -0.2754563229
 H   -0.6802802454    1.9404851080   -0.8167640613
 H   -0.3131519127    2.0137513143    0.9158208944
 H   -0.9183780603   -0.3240218297    0.2621613604
 H   -0.8581535033   -1.9579192302   -1.5932476331
 H   -0.7734237998   -0.4707490381   -2.5436375728
 H    1.7314049442   -3.0950854647   -4.7060300723
 H    1.1135418750   -2.5099943170   -0.1020512824
 H    2.5882736979   -1.5728648374   -0.4762952559