18

 C   -0.0679764911    1.6890904587    0.2252110062
 C   -0.0583994606    0.1823624975    0.0726146282
 C   -1.3778595395   -0.4269523366   -0.4083118491
 C   -1.7461504078    0.0048811733   -1.7532463133
 C   -2.0338249115    0.3693241311   -2.8616433302
 C    1.2092707780   -0.5006434102   -0.3409595220
 C    0.7081057103   -0.6635931626    1.0907878253
 C    1.4156922572   -0.0434787503    2.1743047672
 N    1.9810701945    0.4597949285    3.0498009545
 H    0.8922579418    2.0619292717    0.5888873298
 H   -0.2814168296    2.1610387481   -0.7382735310
 H   -0.8393652555    2.0049171226    0.9360769794
 H   -1.3080658274   -1.5217959556   -0.3874468186
 H   -2.1771030186   -0.1571281619    0.2947373723
 H   -2.2971735261    0.6852542360   -3.8407663114
 H    1.1528474081   -1.3775628747   -0.9763009966
 H    2.0940667527    0.1081096561   -0.4861828889
 H    0.2761093952   -1.6254251020    1.3483843882