16

 N   -0.0262778634    1.3320153357   -0.1767703716
 C    0.0117095602   -0.0425213605   -0.0648407874
 N   -1.0776314622   -0.7827836837    0.0940395952
 N   -0.5466285949   -2.0454388464    0.0810052310
 C    0.7864606398   -2.0011087684   -0.0757497182
 N    1.1818017438   -0.7387605808   -0.1678185532
 C    1.6691319454   -3.1770765080   -0.1206819800
 C    2.8094988617   -3.1785023401   -1.0843482261
 N    3.0572776058   -3.0209475244    0.3498017228
 H    0.8312358619    1.7777634440    0.1136944113
 H   -0.8479101395    1.7500014116    0.2345972335
 H   -1.1517829134   -2.8422814411    0.1835344722
 H    1.2020638962   -4.1213340322    0.1477371610
 H    3.1415106345   -4.1209167488   -1.5108208363
 H    2.9034113427   -2.3086229846   -1.7272791478
 H    3.2000167812   -2.0320290423    0.5520596836