21

 C   -0.2195050897    1.5002083004   -0.0507259451
 C   -0.0003630962    0.0067875470   -0.0014029295
 C    1.3550354973   -0.5852407900   -0.2527080679
 C    0.7639415126   -0.6417594313    1.1519572995
 C    1.3285795108    0.1456598738    2.2086051741
 C    1.7950995837    0.7975994383    3.1118888355
 C    2.3598818300    1.5667708547    4.1822834285
 C    1.7545814235    2.9090682482    4.5666109502
 C    1.5977364039    1.7368672738    5.4882617448
 H    0.6376954109    2.0358462742    0.3660544347
 H   -0.3660129389    1.8388920823   -1.0822477055
 H   -1.1038111780    1.7899678377    0.5272270266
 H   -0.8410759075   -0.5850498178   -0.3540653292
 H    1.4338922666   -1.5177448857   -0.8006251967
 H    2.1833671631    0.0987325192   -0.4013779976
 H    0.3937368247   -1.6162102518    1.4597914504
 H    3.4400505685    1.4989114100    4.2803222513
 H    2.4403601780    3.7011967389    4.8456043742
 H    0.8878133781    3.2352154884    4.0044998611
 H    0.6245296898    1.2654352868    5.5529706201
 H    2.1747988888    1.7164264029    6.4059634204