19

 C    0.2127914400    1.4986822486    0.0945793627
 C   -0.1028781549    0.0190892998   -0.1398023054
 N    0.6237122947   -0.5482807812   -1.2560478848
 C    1.7600397250   -1.2989073261   -1.2253193844
 C    2.1541170486   -1.4925525398   -2.5336616799
 N    3.2736514928   -2.1586538501   -3.0801092151
 C    1.1809735390   -0.7974372271   -3.2942517938
 N    1.1180960218   -0.7720776633   -4.6925101152
 N    0.2629277017   -0.2259823748   -2.5220346017
 H    1.2721729469    1.6401415528    0.3292422633
 H   -0.0219610791    2.0780023679   -0.8016293980
 H   -0.3811740261    1.8873656170    0.9280144154
 H    0.1434444673   -0.5756154808    0.7455116000
 H   -1.1710851359   -0.1113624794   -0.3395487286
 H    2.1873266411   -1.6396389175   -0.2947899429
 H    3.8067388948   -2.6487036743   -2.3722494324
 H    2.9885017727   -2.8349457816   -3.7822498530
 H    2.0221134600   -0.5648455084   -5.1026325199
 H    0.4330669796   -0.0982690016   -5.0129504765