23

 C   -0.9677263820    0.7309335125    0.1624914393
 C    0.3571832323    0.0107819523   -0.0211639888
 O    0.7338382178   -0.5649335519    1.2135191292
 C    1.9552871632   -1.2641271197    1.1564246100
 C    2.2407360614   -1.8168678086    2.5402860868
 C    1.4471689576   -3.0498244161    3.0139523060
 C    2.8360818520   -3.7121377766    3.1579303845
 C    3.1209383926   -4.9903563221    2.3970936875
 O    3.4822428890   -2.5541736736    2.5634431802
 H   -0.8758810779    1.5162596886    0.9181316418
 H   -1.2862980609    1.1892171493   -0.7785452727
 H   -1.7428278429    0.0314453823    0.4883901126
 H    0.2689890876   -0.7721925671   -0.7935550964
 H    1.1360791452    0.7125616089   -0.3646814276
 H    1.9093759391   -2.0901432675    0.4265879231
 H    2.7830798626   -0.6021202363    0.8496311636
 H    2.2489384214   -0.9904826445    3.2637953352
 H    0.8638377190   -2.9328987658    3.9276631057
 H    0.8180299570   -3.4944634253    2.2387310150
 H    3.1518706461   -3.8197837527    4.2054387501
 H    2.7936705783   -4.9045927871    1.3562662819
 H    4.1934945249   -5.2095033290    2.4032348419
 H    2.5971410864   -5.8343887099    2.8596536410