27

 C   -0.0049066341    1.6389600315    0.0809577481
 C    0.0067404716    0.1094139627    0.0103120247
 C   -1.3977045436   -0.5023578623    0.0210713060
 C   -1.3994709825   -2.0341824493   -0.0316967778
 C   -2.8106850467   -2.6330242068   -0.0998079936
 O   -3.4963431906   -2.2100310311   -1.2805947744
 C   -2.8536406431   -4.1700536295    0.0695021301
 C   -4.3042461613   -4.6481721268    0.2174315358
 C   -2.1495289796   -4.9192763235   -1.0724192300
 H    1.0096664372    2.0494616711    0.0644948915
 H   -0.5528521802    2.0691286525   -0.7647827459
 H   -0.4906649848    1.9886945014    0.9987942483
 H    0.5350362093   -0.2110309155   -0.8978769998
 H    0.5861779492   -0.2921641998    0.8526345663
 H   -1.9298809139   -0.1735062357    0.9248480768
 H   -1.9779117069   -0.1182690103   -0.8263095642
 H   -0.8203510821   -2.3691471197   -0.9047585125
 H   -0.8815792369   -2.4381756451    0.8485129634
 H   -3.4031011722   -2.1994740103    0.7171136735
 H   -2.9624277145   -2.4749949295   -2.0373091969
 H   -2.3182873360   -4.3949686205    1.0027140688
 H   -4.8867401579   -4.3724251852   -0.6666787032
 H   -4.3533196938   -5.7351542603    0.3381259410
 H   -4.7858681377   -4.1910355883    1.0884727807
 H   -2.6409475187   -4.7270282998   -2.0338529607
 H   -1.0950550512   -4.6425671835   -1.1665835202
 H   -2.1916522288   -5.9999563363   -0.9052876957