19

 O   -0.0801066649    1.3955661130   -0.0146532837
 C    0.0117112442    0.0065255399    0.0215108368
 C    0.3633786673   -0.8030154347    1.3071034048
 C   -0.4121952108   -1.9132796016    0.5694755730
 C   -1.3535263727   -0.8211609361   -0.0164735314
 C   -1.8191374048   -1.3616543624   -1.3373279324
 C   -0.8865238933   -2.2142892642   -1.7768768211
 C    0.2887825785   -2.1563330955   -0.8144952747
 C    0.8946423633   -0.7159226060   -1.0118417359
 H    0.8058770699    1.7591721424   -0.1160445209
 H    1.4185865561   -0.9571373838    1.5530051160
 H   -0.1822653405   -0.4407344175    2.1817663203
 H   -0.8161838691   -2.7903726734    1.0744157992
 H   -2.0945511436   -0.4006159621    0.6632405332
 H   -2.7322079450   -1.0728709618   -1.8425156702
 H   -0.8746503936   -2.7449861587   -2.7212770277
 H    1.0093757009   -2.9723998537   -0.8722397386
 H    0.7699375702   -0.3482505775   -2.0327148857
 H    1.9529334579   -0.6561119565   -0.7352269207