17

 C    0.0160349712    1.4612347702   -0.0172737567
 N    0.0087175331    0.0180384651    0.0890356113
 N    0.0372718624   -0.7439464729   -1.0468779386
 N    0.0210658350   -2.0032596265   -0.6952523623
 C   -0.0014107645   -2.0555757725    0.6573110303
 C   -0.0067949637   -0.7892378472    1.1671510303
 C   -0.1077985002   -0.7813049383    2.6591458174
 N    0.0063276041   -2.2321736155    2.9963137082
 C   -0.0896368588   -3.0702081426    1.7578932349
 H    0.8960644248    1.8829265070    0.4769992943
 H    0.0437331017    1.7060711505   -1.0790882871
 H   -0.8858529155    1.8878761188    0.4313223399
 H    0.6757305820   -0.2040475288    3.1637835814
 H   -1.0715254420   -0.3778212584    3.0019933096
 H    0.9121010797   -2.3886070555    3.4179213197
 H   -1.0424344350   -3.6153662862    1.7380372695
 H    0.7092466258   -3.8189569574    1.7411885079