21

 C   -0.1468546618    1.5126120578   -0.0001590727
 C    0.0786550449    0.0056030745    0.0026615515
 C    1.1679084276   -0.5810105855   -0.9646323523
 C    2.4341557524   -0.0256546442   -0.2838426069
 C    2.2165362512   -0.0549509754    1.0305432117
 C    0.8031512817   -0.6274482806    1.2425396676
 C    0.8319713123   -2.0988192499    0.7624687290
 C    0.6988251619   -3.2633284919    1.6835898375
 C    1.0467795917   -2.0600317881   -0.5547256364
 H    0.7779336684    2.0693693375    0.1667750999
 H   -0.5708131781    1.8330167445   -0.9585947763
 H   -0.8615059044    1.7935578997    0.7817622532
 H   -0.8777822911   -0.4989754960   -0.1683305292
 H    1.0628154897   -0.3678086056   -2.0290369785
 H    3.3318994838    0.2733637760   -0.8082062647
 H    2.8938042364    0.2173820894    1.8288941576
 H    0.3605970448   -0.4614835601    2.2264311581
 H   -0.2492699251   -3.2334858541    2.2362029315
 H    0.7456564855   -4.2128122712    1.1423675324
 H    1.4968566656   -3.2646458120    2.4385627155
 H    1.1721152028   -2.8966091650   -1.2300727488