23

 C    0.1699043860    1.4660854033    0.1566477259
 C   -0.1237856420   -0.0341733811    0.0199024263
 C   -1.6269307023   -0.3093729023   -0.1229708117
 C    0.6372574148   -0.6127109968   -1.1659733545
 O    2.0859032875   -0.4447444580   -1.0740755241
 C    2.2741916109   -1.8293982346   -1.3715649323
 C    1.6972795231   -2.6890081506   -0.2903359767
 C    0.7934113845   -2.1279183217   -1.3771966583
 C   -0.0551773251   -2.9736694168   -2.2810798603
 H    1.2450889726    1.6439512391    0.2400814326
 H   -0.1981458588    2.0184034516   -0.7164904791
 H   -0.3200972784    1.8811240404    1.0433635031
 H    0.2369700605   -0.5360493599    0.9263878523
 H   -2.0278174276    0.1489097648   -1.0350604228
 H   -1.8406718958   -1.3821770048   -0.1641648929
 H   -2.1792014955    0.1079890759    0.7248653910
 H    0.2886533141   -0.1367440734   -2.0959766540
 H    3.0829734690   -2.1008508812   -2.0408853465
 H    1.8892282613   -3.7539436423   -0.3872717560
 H    1.6715036694   -2.3214360901    0.7313961691
 H   -1.0144395531   -3.2290297493   -1.8153039659
 H   -0.2695701695   -2.4571539926   -3.2236738799
 H    0.4485245744   -3.9148869696   -2.5246152550