14

 N   -0.0727604608    1.2838752250    0.3283188504
 C   -0.0095044483    0.0862721290   -0.0646521318
 O    1.1754694441   -0.5602422446   -0.2538666566
 C    1.2484640741   -1.7869732703   -0.9912994435
 C    0.0338390094   -2.6584313559   -0.7280173252
 C   -1.1909455648   -1.8020909411   -0.9956093041
 O   -1.1593161862   -0.6057167061   -0.2146606192
 H    0.8698747055    1.6500422625    0.4447656511
 H    1.3282323889   -1.5533949011   -2.0624937446
 H    2.1814451348   -2.2599503418   -0.6763971265
 H    0.0427905187   -3.5344673828   -1.3840579135
 H    0.0310765970   -3.0053189812    0.3104944747
 H   -1.2521390172   -1.5381187427   -2.0612910904
 H   -2.1209349051   -2.3015021187   -0.7162203709