21

 C   -0.0831823236    1.6191035579    0.2948335213
 C   -0.0721227408    0.1039143739    0.2126159829
 C    1.1338576556   -0.6060786611   -0.4668104390
 O    1.9879602622   -0.1944059133    0.6725606582
 C    0.7312055035   -0.7048378073    1.2724283339
 C    0.8266012495   -1.9227348010    0.3110428411
 C   -0.3346386541   -2.8558089619    0.0032830927
 C   -0.0545065952   -3.7407285715   -1.2077961265
 O   -1.1675989204   -4.6038364508   -1.3792948964
 H    0.9095554694    1.9965370423    0.5467097984
 H   -0.3930088643    2.0576320335   -0.6601133551
 H   -0.7922236485    1.9617784454    1.0563636891
 H   -1.0571284643   -0.2973075225   -0.0382764543
 H    1.5439737813   -0.4680282014   -1.4690050318
 H    0.6557106635   -0.6894773258    2.3613098628
 H    1.7507291945   -2.4792645374    0.4938558646
 H   -0.5118855546   -3.5074044640    0.8678439447
 H   -1.2695137987   -2.3169220791   -0.1750809190
 H    0.1044739789   -3.1124295972   -2.0996707575
 H    0.8738784505   -4.3118231794   -1.0440163824
 H   -0.9957758542   -5.1708551193   -2.1366338079