16

 C    0.0783622173    1.5615754008   -0.0087571882
 C    1.3242085849    0.7110601614   -0.0831713916
 C   -0.0267999807    0.0646836016    0.0131466186
 C   -0.5897115495   -0.8597948576    1.1552929546
 N   -1.1819924634   -1.6310375545    0.0421211735
 N   -1.9171506232   -2.6654281771   -0.4247366109
 C   -1.8262570470   -2.4161767070   -1.7372026432
 N   -1.0965707691   -1.3136145740   -2.1244681520
 C   -0.7189639065   -0.8657403560   -0.9410378165
 H   -0.1214151517    2.0940176051    0.9150198393
 H   -0.2535252471    2.0723522314   -0.9055029188
 H    1.8456243895    0.6393083737   -1.0308848729
 H    1.9660265192    0.6689115453    0.7903644573
 H    0.1549759448   -1.4161713829    1.7293413488
 H   -1.3293244475   -0.4033470781    1.8173215783
 H   -2.3111578500   -3.0627730221   -2.4538262964