19

 C    0.0036936722    1.5148612416   -0.0078988985
 C   -0.0318502661    0.0217774053    0.0057827583
 C   -1.0842799956   -0.8117291258   -0.0617493293
 C   -0.7107499958   -2.2440084086   -0.0192430025
 C   -1.6036101770   -3.2533505918    0.6790689117
 C   -1.4945222823   -3.2693029641   -0.8180643596
 C    0.8097536741   -2.2682024902    0.0917981059
 C    1.2121130497   -0.7833324708    0.1048692160
 O    2.3403724198   -0.3507427979    0.1820812543
 H    0.6087116643    1.8786971923   -0.8456898683
 H   -0.9977413246    1.9455040092   -0.0864959519
 H    0.4798514477    1.8977328700    0.9014638089
 H   -2.1222831273   -0.4998298876   -0.1404972040
 H   -1.1132750280   -4.0427113608    1.2388310718
 H   -2.5249739648   -2.8945527441    1.1257843448
 H   -2.3408500672   -2.9214689624   -1.4011093069
 H   -0.9294478565   -4.0695869911   -1.2839916309
 H    1.1689310147   -2.7498666945    1.0067210716
 H    1.2970537428   -2.7691597689   -0.7506149313