16

 C   -0.0262058931    1.4891188988    0.0992602933
 C   -0.0083531861   -0.0038359822    0.0323676231
 C   -0.0230607259   -0.7790521500   -1.0672125047
 C    0.0032270209   -2.2495099773   -0.7584241290
 C    0.0380083199   -2.2903301518    0.7780197474
 O    0.0670665580   -3.2801348994    1.4612964298
 C    0.0298314279   -0.8457043141    1.2317285766
 N    0.0501088093   -0.3345004733    2.4118054788
 O    0.0851974874   -1.2718876459    3.4227406548
 H    0.8587094176    1.8644760408    0.6246525453
 H   -0.0560014820    1.9298208681   -0.9001596767
 H   -0.8942072067    1.8416171596    0.6669599810
 H   -0.0509495070   -0.3932325645   -2.0800796586
 H   -0.8760735806   -2.7931128339   -1.1263963671
 H    0.8791935541   -2.7700133708   -1.1656511961
 H    0.0961162862   -0.7212640340    4.2148505020