17

 C   -0.4247130094    1.2949755140   -0.0226618653
 C    0.0357997970   -0.1462408973   -0.0943683222
 O    1.0881881048   -0.2423383213   -1.0113101796
 C    1.1682235924   -1.4730900967   -1.6953332000
 C    1.1636740583   -2.6953030021   -0.8347050867
 C    1.0351755248   -2.7910292858    0.4912279583
 C    0.9069155846   -1.7374851375    1.5340045402
 O    1.1792002079   -1.9818228987    2.6817665089
 O    0.4678740436   -0.4907699734    1.2227544158
 H    0.4237679508    1.9328015970    0.2361731612
 H   -0.8213902579    1.6053416714   -0.9919659669
 H   -1.1987930806    1.4066620173    0.7391650086
 H   -0.7835446762   -0.8200291621   -0.3848808749
 H    0.3519540081   -1.5633538120   -2.4346973262
 H    2.1001323236   -1.4367119428   -2.2729224482
 H    1.2863273908   -3.6200205499   -1.3971778461
 H    1.0950776573   -3.7720490200    0.9507943030