17

 O   -0.1860526541    0.1583997480    0.0613439433
 C    0.1912702805    1.2998409174    0.1050338630
 C    1.5537420743    1.7776338770   -0.3574522539
 C    1.4390814976    2.9268713097   -1.3410054334
 C    1.1818771165    4.3424172511   -0.8492723451
 C    2.5124126398    3.9852193968   -1.4227308306
 O    3.5790035043    3.9430041899   -0.4960819104
 C    4.7574075510    3.4552757789   -0.9484274164
 O    5.7174246523    3.3542549046   -0.2485947616
 H   -0.4654264234    2.1088914986    0.5003169556
 H    2.1099071522    2.1143306780    0.5272301469
 H    2.0898699552    0.9265387131   -0.7883310920
 H    0.9831313010    2.6640796232   -2.2918488196
 H    0.5276586007    4.9930121716   -1.4174269327
 H    1.1564933900    4.4969043199    0.2240937259
 H    2.7957651257    4.3728426630   -2.3969505542
 H    4.7252064865    3.1800848191   -2.0197867747