16

 C   -0.0726409852    1.5177042759   -0.0747581232
 C   -0.0323283989    0.0081586055    0.1308613953
 N   -1.3682794501   -0.5627204427   -0.0194358557
 C   -1.5208524661   -1.9109250141   -0.0265688813
 N   -0.5964994995   -2.8083903441   -0.1399624466
 N   -1.3439909284   -3.9892952371   -0.1780314755
 C   -2.6788245324   -3.7960793563   -0.0401216890
 O   -3.6102456521   -4.5465833750    0.0057632689
 O   -2.7892283054   -2.3891193891    0.0448194427
 H    0.9303777272    1.9391937601    0.0306672031
 H   -0.4520932597    1.7681435666   -1.0693878293
 H   -0.7150861434    2.0027835231    0.6691155385
 H    0.6096312652   -0.4677422703   -0.6160085936
 H    0.3937259209   -0.2377984704    1.1144840692
 H   -2.1279208609   -0.0631194140    0.4198610022
 H   -0.8824664513   -4.8798842781   -0.2111909858