19

 C   -0.0922484467    1.5269694043    0.0170718337
 C   -0.0152207832    0.0281817895   -0.0428111270
 C   -0.0763973898   -0.6710603827   -1.1757337436
 C    0.0529210423   -2.1728778031   -1.1828509247
 C    1.4308522940   -2.6447115833   -0.7208773094
 O    1.7954637338   -2.4505938424    0.6569753464
 C    1.4325664195   -1.4569658050    1.5034458440
 O    2.1145559643   -1.2630600753    2.4738074346
 C    0.1234933426   -0.7028605363    1.2810227943
 H    0.8066654187    1.9484346945    0.4842562058
 H   -0.1990429874    1.9647256290   -0.9787535528
 H   -0.9422509919    1.8542344586    0.6294944372
 H   -0.1890049754   -0.1595006776   -2.1276757535
 H   -0.7236117278   -2.6443602233   -0.5640835689
 H   -0.0843387365   -2.5646887528   -2.1962131766
 H    1.5230176841   -3.7257910816   -0.8638355894
 H    2.2022814122   -2.1569990067   -1.3295780879
 H    0.0457958828   -0.0126374243    2.1214509742
 H   -0.6897726356   -1.4347465717    1.3851872235