13

 O   -0.0199348740    1.4064034851    0.0838108158
 C   -0.0677219063    0.0343578684    0.0469619852
 C   -1.3463694831   -0.8149097799    0.0876251424
 C   -2.3747235748   -0.1601001629   -0.7680306063
 N   -3.5814629710    0.1261749282   -0.6468533181
 O   -1.5009730078    0.0301027791   -1.8619877025
 C   -0.4676138835   -0.7274626516   -1.1779326567
 C    0.2620925251   -1.7079714699   -1.9058386725
 N    0.8824202138   -2.5032036529   -2.4724149084
 H   -0.5388814496    1.7501134349   -0.6554878196
 H    0.7416138023   -0.4075201199    0.6204055844
 H   -1.4990456478   -1.6274514944    0.7827831183
 H   -3.9634618933    0.5690467160   -1.4832520919