12

 N   -0.3194292119    1.3217548131    0.0860000992
 C   -0.0246181937    0.1176428672   -0.1511513494
 O    1.1850957350   -0.2656705479   -0.6699510599
 C    1.4751323804   -1.5963656087   -1.0146468905
 O    2.5044434006   -2.0776089477   -0.6661438772
 N    0.5703865652   -2.1670648983   -1.9060106742
 C   -0.6608728834   -2.2909340539   -1.6090747188
 N   -1.2903866872   -2.0076582229   -0.3947975550
 C   -1.0002422063   -0.9434381607    0.2454716735
 H    0.4180284012    1.9557139321   -0.2282923015
 H   -1.3295343045   -2.7269864059   -2.3504801585
 H   -1.5345923854   -0.7318009965    1.1709057423