19

 C   -0.0426960237    1.5508105073    0.0618812019
 C    0.0380637500    0.0399082697    0.1070256286
 C   -1.1696625074   -0.6519291806   -0.4257777643
 O   -2.1594890592   -0.0757950787   -0.8118898099
 C    1.3082393395   -0.7836467563   -0.1921559716
 C    2.5602132615   -0.0445863087    0.2939355709
 C    1.9767390583   -0.0522641658    1.7445731686
 C    0.7353606928   -0.7767814876    1.2019884701
 O    0.1183803736   -1.8265398679    1.8599006081
 H    0.8444130189    2.0298424939    0.4789794049
 H   -0.1652893381    1.8956789569   -0.9691349827
 H   -0.9155938969    1.9001564318    0.6207540841
 H   -1.1043343901   -1.7600408059   -0.4521564082
 H    1.2853485139   -1.5637179887   -0.9440303452
 H    3.4614304471   -0.6546118272    0.2077141105
 H    2.7544302032    0.9310998284   -0.1580832818
 H    2.5429721326   -0.7103065511    2.4071212283
 H    1.8229592228    0.9091342892    2.2424056568
 H   -0.5201795789   -1.4667863388    2.4864203710