16

 O    0.0764823769    1.3260909938    0.1689307027
 C   -0.0117237059   -0.0667425425    0.0343996041
 C   -1.4705651869   -0.5346108535   -0.1160388485
 C   -1.6257711023   -2.0793679259    0.0319639052
 O   -2.0002313373   -2.2326708334    1.3885118486
 C   -2.8114584278   -1.1222828398    1.6549060286
 O   -2.1964953524   -0.0159857116    1.0070299065
 C   -2.0687425292   -0.0424562352   -1.3682108688
 N   -2.5314778645    0.3050454909   -2.3678878804
 H   -0.4996015491    1.5719995337    0.9031241912
 H    0.5636165148   -0.3458427639   -0.8537568032
 H    0.4019947514   -0.6013851365    0.9039056650
 H   -2.3976219243   -2.4626227906   -0.6475996791
 H   -0.6894769156   -2.6149233575   -0.1369412654
 H   -3.8307508432   -1.2666390718    1.2595170543
 H   -2.8355122245   -0.9397367562    2.7314796693