19

 C    0.3556688365    1.4996258645    0.4250522179
 C    0.1389853858    0.0343543202    0.0281724440
 C    0.6231550189   -0.3643179392   -1.3791019054
 C    2.1962081720   -0.3486761577   -1.5323943499
 C    2.1381430543   -1.8868555308   -1.5862355930
 O    2.9796409569   -2.7345539661   -1.5376722489
 C    0.6098397446   -1.9015176283   -1.6384459427
 C   -0.0428997508    0.4390240052   -2.4742029059
 O   -0.6106021156   -0.0335167363   -3.4269442448
 H    1.4024937589    1.7993236189    0.3080296670
 H   -0.2558740871    2.1864867308   -0.1667559660
 H    0.0867152502    1.6486030210    1.4748539409
 H    0.6603281418   -0.6109389153    0.7467924361
 H   -0.9251824991   -0.2186684127    0.1151187349
 H    2.5645112449    0.0928354965   -2.4646681489
 H    2.7676178685    0.0711245951   -0.7000077910
 H    0.1111837676   -2.5311095839   -0.8968768013
 H    0.2211342604   -2.1458860431   -2.6323934651
 H    0.0505693115    1.5417709212   -2.3662490078