21

 C   -0.0098583564    1.5471555638    0.0218422197
 C    0.0137369501    0.0437253296   -0.0474353299
 C   -0.0385672564   -0.6186715393   -1.2058731177
 C   -0.0231191015   -2.1195321810   -1.3315490254
 C   -0.3477947793   -2.8058314472    0.0003931739
 O   -0.0254048913   -4.1899655592   -0.0120148839
 C    0.4502357677   -2.1584231026    1.1240322742
 C    0.0786507424   -0.6863303149    1.2868322070
 O    1.0529279056   -0.1160811145    2.1643533027
 H    0.9115364785    1.9345181094    0.4719094374
 H   -0.1142867957    1.9922028608   -0.9706907603
 H   -0.8446882647    1.9072680558    0.6399131024
 H   -0.0955108217   -0.0533278834   -2.1344465615
 H   -0.7337060296   -2.4379156333   -2.1074216190
 H    0.9654818392   -2.4667019468   -1.6657404913
 H   -1.4234119884   -2.6707301480    0.2090843269
 H   -0.5142455613   -4.6018060439   -0.7318149992
 H    0.2851813751   -2.6940260838    2.0628301733
 H    1.5197894508   -2.2228501799    0.8930604689
 H   -0.9165639043   -0.6166893226    1.7617604282
 H    0.7115310211    0.7218895509    2.4895399937