13

 N   -0.0143732320    1.4109046567    0.1468294919
 C    0.0194435630    0.0221323519    0.0452254190
 C   -1.1660106034   -0.7312443111    0.0245264571
 N   -1.2072469342   -2.0592087064   -0.0125743639
 C   -0.0471498775   -2.7218585097   -0.0330309344
 C    1.1860123402   -2.0763751008   -0.0194094553
 C    1.2234896332   -0.6892412777    0.0196723208
 H    0.7960513380    1.8874771141   -0.2210945826
 H   -0.8718328022    1.8388509899   -0.1715995591
 H   -2.1257569987   -0.2148739442    0.0407457957
 H   -0.1081532287   -3.8061445157   -0.0637177255
 H    2.1054879855   -2.6515768004   -0.0411389269
 H    2.1706945567   -0.1575286468    0.0337416132