19

 C    0.0993642049    1.3738871148    0.0460226218
 C   -0.3378852972   -0.0628201910   -0.0681502266
 O   -0.9172330385   -0.6556927949    0.8182694468
 C   -0.0321110024   -0.7832787465   -1.3755044728
 N    0.5165114148   -0.1187485524   -2.3247410932
 N   -0.4012533433   -2.0976253120   -1.3386551880
 C   -0.3889116017   -2.9454964993   -2.4824499238
 C    0.9292439378   -3.5228997623   -2.9546351261
 C   -0.0878897202   -4.4035897430   -2.2758915249
 H    1.1822016225    1.4464331779   -0.0906851149
 H   -0.3449043889    1.9648869374   -0.7593782361
 H   -0.1922562437    1.7655992874    1.0208580773
 H    0.6634134188   -0.7054672469   -3.1480924761
 H   -0.9336311558   -2.3601099469   -0.5203466481
 H   -1.1128111357   -2.6962880310   -3.2584606018
 H    1.0827516141   -3.6345559417   -4.0219830152
 H    1.8138501659   -3.2530170280   -2.3903236139
 H    0.1258995176   -4.7244383278   -1.2624989093
 H   -0.6362692390   -5.1229239937   -2.8726398351