16

 O   -0.0337153929    1.4553120788   -0.0674222057
 C    1.2567165174    0.8291810513    0.0356419842
 C    0.0288122485    0.0232561308    0.0473802351
 C   -0.0340405723   -0.6877200663   -1.2930897773
 C    1.1161584822   -1.6813296991   -1.5277720673
 C    2.3669682491   -0.8603706174   -1.5397286940
 C    1.9160522505    0.5922090665   -1.3117314904
 C    0.7776333861    0.1868809355   -2.2826700827
 N    1.5758201852   -1.0367997690   -2.8022894245
 H    1.8254315551    1.0610085076    0.9316673228
 H   -0.3980969120   -0.3983875856    0.9529229497
 H   -1.0092594740   -1.0301805992   -1.6375384309
 H    1.1194363140   -2.7580619931   -1.4045456130
 H    3.3551044467   -1.2906979610   -1.4259165128
 H    2.6135110698    1.3475966679   -1.6721711781
 H    0.3176959867    0.8774470423   -2.9824276750