21

 C    0.3902078344    1.3620385305   -0.0400130745
 C    0.0831896787   -0.1039936415   -0.0540722399
 C   -0.1231029910   -0.8606876598   -1.1333992428
 C   -0.4796826046   -2.2868970346   -0.8116979840
 C   -0.2931480074   -2.3686969488    0.7323857608
 C    0.9709651510   -3.0672613635    1.1680656770
 C    1.7658019760   -2.2979177063    1.9076587222
 C    1.1874385968   -0.9261200464    2.1445271960
 C   -0.0768403279   -0.8963706347    1.2309117036
 H    1.3387447576    1.5770233269    0.4672547203
 H    0.4529948390    1.7678562967   -1.0534286226
 H   -0.3833141168    1.9217076966    0.5025041363
 H   -0.0726882211   -0.4930961578   -2.1540429276
 H   -1.5122573196   -2.5146036474   -1.1097382697
 H    0.1549490770   -3.0098669550   -1.3406005789
 H   -1.1683425556   -2.8406604403    1.1941062366
 H    1.1803032458   -4.0950837648    0.8886337734
 H    2.7194333765   -2.6047151934    2.3245178227
 H    0.9265944586   -0.7848313989    3.2020815896
 H    1.8988899017   -0.1273104919    1.9020528829
 H   -0.9364173688   -0.5158187358    1.7965240886