23

 C    0.1956293056    1.4087381965   -0.4489281632
 C    0.4473151468   -0.0830126704   -0.2479399568
 C    1.1054892258   -0.9459253877   -1.3397043870
 C    2.5824053269   -0.7498299492   -1.5423618682
 C    3.3886057578    0.5312012331   -1.5926446351
 O    4.7389809360    0.3161353152   -1.2011453741
 C    2.1171890166   -1.4980531211   -0.3147943720
 C    1.4983445413   -0.6327352777    0.7969647770
 C    2.3728276582    0.2954268118    1.6378323460
 H    1.1048537605    1.9828295071   -0.6386179987
 H   -0.4749462992    1.5682945951   -1.3008826995
 H   -0.2886651566    1.8405411298    0.4343753249
 H   -0.5171953004   -0.5432556001   -0.0079854414
 H    0.5315391004   -1.5067595750   -2.0696085534
 H    2.9595795703   -1.4610057385   -2.2777592574
 H    3.4349404136    0.8926379318   -2.6260458554
 H    2.9317909066    1.3290361561   -0.9987419189
 H    4.7140756938   -0.1431844957   -0.3547960571
 H    2.4096215415   -2.5323172565   -0.1689213744
 H    0.9652175072   -1.2924739322    1.4893726316
 H    2.9760030019    0.9844324667    1.0423662670
 H    1.7610427305    0.8983246989    2.3182336703
 H    3.0606210449   -0.2931268682    2.2565155756