14

 C   -0.0625216479    1.5284280448   -0.0313721787
 C    0.0092122087    0.0096985785    0.0792832658
 N   -1.3255803826   -0.5695198175    0.0316501206
 C   -1.5115471656   -1.9178086963   -0.0139567146
 N   -0.5400888097   -2.7473967344   -0.1178292119
 C   -2.9097826381   -2.3234778739    0.0430115530
 N   -4.0069753456   -2.6850772592    0.0941966915
 H    0.9428439307    1.9553462926    0.0034763760
 H   -0.5317386944    1.8346096100   -0.9713471182
 H   -0.6352951612    1.9616957300    0.7964327735
 H    0.5910726485   -0.4179470204   -0.7430780245
 H    0.5193639220   -0.2909217867    1.0048401373
 H   -2.1073116234    0.0059352450    0.2981272891
 H   -0.8802493016   -3.7032773024   -0.1808087888