13

 O   -0.0199039802    1.3180040861    0.0093095997
 N    1.2809743756    1.8375858046   -0.0006670863
 C    2.1026028234    0.8262619669   -0.0137572361
 C    1.4056420609   -0.4261329472   -0.0134472972
 C    0.0678558153   -0.0291759224    0.0015500869
 C   -0.9666308466   -0.9640123854    0.0067804798
 N   -0.6815966323   -2.2600976805   -0.0026385554
 C    0.6090152585   -2.6536783228   -0.0171678372
 C    1.6964295516   -1.7932434812   -0.0232810356
 H    3.1662980328    1.0176567645   -0.0230759807
 H   -2.0109360400   -0.6666779754    0.0184186787
 H    0.7672607790   -3.7281108556   -0.0242069054
 H    2.7115647519   -2.1722950615   -0.0350545711