18

 C   -0.0236539027    1.4746145258   -0.0089930969
 C   -0.0404262173   -0.0300894268   -0.0019163044
 N    0.8832375893   -0.6898472840   -0.8930565986
 C    0.5017080473   -1.9838449505   -1.1814214364
 O    1.0998577812   -2.7775529606   -1.8718559507
 C   -0.7465968181   -2.2143116826   -0.3268462234
 C   -0.2250431297   -2.2631858126    1.1613212638
 C   -0.4912780246   -0.7641355676    1.2697627751
 C   -1.3182890587   -0.8043046052   -0.0181931256
 H    0.9231391923    1.8666813954    0.3799803385
 H   -0.1613040037    1.8597562917   -1.0244646418
 H   -0.8267362259    1.8686637608    0.6202589920
 H    1.8326599480   -0.3859038633   -1.0404319920
 H   -1.3838696113   -3.0252923790   -0.6666749248
 H   -0.9226123369   -2.8279958026    1.7833537305
 H    0.7918292262   -2.6337148963    1.3283322428
 H   -0.6828956545   -0.2152530600    2.1850512123
 H   -2.2949608708   -0.4064102428   -0.2635121704