23

 C   -0.4954396453    1.2362645595   -0.5152078139
 O   -0.4002179243   -0.1665472536   -0.3624776654
 C   -1.6049181873   -0.7944318251   -0.1256773811
 C   -2.8974610949   -0.7979935469   -1.0089668465
 C   -3.1731552108   -1.7479004263    0.1922269518
 C   -1.7327186243   -2.3359415096    0.0076024673
 C   -1.3756151672   -3.2722844602   -1.1382354138
 C   -2.5634457353   -0.6402199664    1.1145549597
 C   -2.1107244356   -0.9081473164    2.5422776872
 H    0.5159110182    1.6086358112   -0.6924914213
 H   -1.1311437075    1.5086794623   -1.3695058178
 H   -0.8994793686    1.7180626858    0.3863596525
 H   -3.4820431444    0.1256314808   -1.0311901823
 H   -2.8308060759   -1.2435022750   -2.0007125328
 H   -4.0894855432   -2.3065602702    0.3742976928
 H   -1.2977385348   -2.7304897898    0.9285631187
 H   -1.7904743472   -2.9727484294   -2.1034168924
 H   -0.2875813170   -3.3280535516   -1.2511986740
 H   -1.7346163041   -4.2852617931   -0.9249071309
 H   -3.1490331665    0.2860796727    1.0859557368
 H   -1.4910403949   -0.0803028490    2.9043264958
 H   -2.9772616188   -0.9815631223    3.2089376676
 H   -1.5285036105   -1.8248291874    2.6585377216