16

 O    0.0308944745    0.1866147650   -0.6726385273
 C   -0.0139931404    1.2622112563   -0.1285394060
 C   -1.2689929541    1.9484030897    0.4337121382
 C   -0.7824562900    3.2967046014    0.9256522788
 O    0.1667230481    3.1987311698    1.9917535428
 C    0.6632517161    3.4448229797    0.6667530706
 C    1.1665718796    2.1941889226    0.0218952884
 C    2.5245953726    1.6061886600    0.1987670163
 N    2.1615085705    2.2439119414   -1.0634488694
 H   -2.0151697059    2.0395589550   -0.3636945754
 H   -1.7120361648    1.3432348396    1.2305594033
 H   -1.4579017559    4.1462086417    0.9735187212
 H    1.1582589786    4.3960076807    0.4983727555
 H    3.2502367532    2.1453222175    0.8006427668
 H    2.5819002523    0.5218256013    0.2368951050
 H    1.9152709957    1.5217304481   -1.7410418488