11

 C    0.1147673617   -1.1854105276   -0.0051035097
 C    0.0327166479    0.0145308577    0.0025235350
 C   -0.0810759771    1.4130337188    0.0117423834
 C   -1.1743778446    2.2518299209    0.0320759385
 C   -0.5933019462    3.5532132327    0.0307429746
 N    0.7112568379    3.5038504270    0.0115477672
 O    1.0419003582    2.1546138050   -0.0005334236
 C   -2.5421257319    1.9001967990    0.0499551072
 N   -3.6668931788    1.6271157127    0.0647547025
 H    0.1841659724   -2.2463352404   -0.0117199526
 H   -1.0980838995    4.5080728740    0.0432219577