19

 O    0.0951497001    1.3761981667    0.1823168824
 C    0.0180292642   -0.0171175672   -0.0024138274
 C   -1.3804440217   -0.5977520649   -0.3386586716
 C   -1.6345409691   -0.0217357751   -1.7525077422
 C   -0.2118317574   -0.0305746961   -2.4035439146
 C    0.7052560959   -0.5879625388   -1.2729503512
 C    0.3439782661   -2.0646650292   -1.1469284277
 O    0.9929562479   -3.0157007842   -1.4955865124
 C   -1.0451324462   -2.0952356314   -0.4773137988
 H   -0.2355550556    1.8181497511   -0.6059732102
 H    0.4294999333   -0.4493191237    0.9151960595
 H   -2.1612640259   -0.3711291520    0.3885045918
 H   -2.3544360590   -0.6224210085   -2.3141904133
 H   -2.0458540329    0.9914359308   -1.6995647482
 H   -0.1601621666   -0.6421797321   -3.3070687444
 H    0.1147701879    0.9746575975   -2.6878838160
 H    1.7696348902   -0.4013626425   -1.4051994474
 H   -0.9554305066   -2.5932709386    0.4953154992
 H   -1.7607587647   -2.6696382319   -1.0729173875