17

 C    0.2503440790    1.5259824780    0.0388050082
 C    0.0967394970    0.0020069382    0.0235076615
 C    0.4770182099   -0.5966209991   -1.3127335446
 O    1.9020746328   -0.4083793882   -1.6277440206
 C    2.1364514226   -1.7599118111   -1.6816952091
 N    3.1731408801   -2.4238825331   -1.8886495329
 C    0.6774837072   -2.1414335396   -1.4253602234
 C    0.3907106420   -2.9578321305   -0.2598288463
 N    0.1451754757   -3.5922835239    0.6740864466
 H    1.2824724241    1.8132221984   -0.1802953966
 H   -0.3977193973    1.9994706452   -0.7065971576
 H   -0.0151338777    1.9304939157    1.0189482153
 H    0.7122422728   -0.4525260063    0.8075951258
 H   -0.9410986393   -0.2825960910    0.2366573628
 H   -0.1256318058   -0.1862070347   -2.1284145568
 H    3.9873174364   -1.8262285396   -2.0377589535
 H    0.2056325804   -2.5793135684   -2.3084464586