23

 C   -1.0086613092    1.1401729051    0.2441126575
 C    0.0113590075    0.0235821861    0.0117695496
 C    0.6552168218    0.0987648726   -1.3861522483
 C    1.6143600950   -1.0703045941   -1.6098154212
 C    3.0975776168   -1.0174127501   -1.3247083966
 C    3.3927503482   -0.0407436621   -0.1884166066
 C    2.3482620272   -0.7925221150    0.7141748193
 C    1.0859501081   -0.0089057401    1.1192353627
 C    2.1650518324   -1.8210403110   -0.4236537957
 H   -0.5343440062    2.1264163112    0.1735752454
 H   -1.8150341235    1.1058609369   -0.4968443860
 H   -1.4640080799    1.0636086246    1.2377142126
 H   -0.5217535378   -0.9370511879    0.0495721068
 H   -0.1325908073    0.0774463635   -2.1471050947
 H    1.1667551371    1.0628588560   -1.5087864390
 H    1.3766097676   -1.7107526866   -2.4545864890
 H    3.8196706023   -1.3780131764   -2.0479142899
 H    4.4074611077   -0.1489652766    0.2022004241
 H    3.2104865058    1.0225683266   -0.3824204966
 H    2.8357057319   -1.2146758781    1.5954130426
 H    1.3790724036    1.0176162881    1.3802367315
 H    0.6453707974   -0.4365690914    2.0278811472
 H    2.0703467136   -2.8938313115   -0.3063912257