15

 C   -0.2583133414    1.4138965691    0.1674360488
 N   -0.2522003749   -0.0366698663    0.1540647622
 C    0.5824362847   -0.6489205537    0.8877332631
 N    1.5202159039   -0.0467492320    1.7278030566
 N    2.4398528355   -0.6375613045    2.5495236522
 N    2.4958202762   -1.8866955805    2.5825759073
 N    1.6356332412   -2.6012533018    1.7965792396
 C    0.6474761620   -2.1385079825    0.9263318242
 N   -0.1270836384   -2.8650243913    0.2295448161
 H    0.7026050638    1.8407515379   -0.1620222622
 H   -1.0298796266    1.7758681668   -0.5149440323
 H   -0.4804017219    1.8235204284    1.1660167589
 H    1.5604626233    0.9578259542    1.7825179408
 H    1.7641507870   -3.5965070582    1.9014697631
 H    0.0535624154   -3.8602430054    0.3777668716