24

 C    1.4597364853   -3.0269951642    4.4179648456
 C    0.9609207708   -2.8443419936    3.0014490975
 C   -0.3822996900   -2.2071095182    2.7630844088
 C    0.8706212585   -1.5061145047    2.2844300911
 C    1.2824328053   -0.1454658494    2.8038304178
 C    0.1606886276    0.8773954745    2.8687557726
 C    2.4502944773    0.0227423199    3.7270477244
 N    2.5532014289    0.4462968982    2.3369292542
 C    3.4321133508   -0.3343614346    1.4792879784
 H    1.1985737968   -2.1756688833    5.0527286802
 H    1.0086272645   -3.9214963757    4.8622422956
 H    2.5473031671   -3.1538474593    4.4584557648
 H    1.2077048315   -3.6772184531    2.3467496856
 H   -1.0574027532   -2.6265184664    2.0250158245
 H   -0.8832229593   -1.7976551884    3.6350181161
 H    1.0152170029   -1.5858070743    1.2084086528
 H   -0.5928699301    0.5987516435    3.6124894129
 H    0.5621354253    1.8600490835    3.1275817961
 H   -0.3432576747    0.9607849611    1.8992742373
 H    2.4486217573    0.8174303686    4.4707686175
 H    3.0001563047   -0.8674178428    4.0207186423
 H    3.4710078873   -1.4084829765    1.7191692508
 H    3.1152165574   -0.2281710939    0.4361310258
 H    4.4467036080    0.0689788592    1.5617187872