14

 O    0.4679079676    1.6745133169    1.8851362025
 C    0.1386959706    1.8597041038    0.7371631007
 C    1.0524099303    1.6796133688   -0.3721752483
 C    1.8493827401    1.5162847079   -1.2587761055
 C   -1.2609623941    2.2954679584    0.3796247356
 N   -2.1856188774    2.4993139355    1.2239309302
 C   -3.3648356282    2.9037906346    0.4445135928
 C   -2.8929034525    2.8811273102   -1.0341479348
 O   -1.5067180747    2.4700951526   -0.9439671914
 H    2.5504107744    1.3731777009   -2.0451166637
 H   -4.1876578413    2.2082401248    0.6386061796
 H   -3.6956364090    3.8953967111    0.7697729124
 H   -3.4230770032    2.1542088602   -1.6547310742
 H   -2.9263598426    3.8584608142   -1.5223233860