16

 O    0.0142999098   -0.0127896437    0.1326514347
 C   -0.0358427539    1.1881997725   -0.0040227852
 C   -1.3912036418    1.8806363971   -0.1806684257
 O   -1.3561948354    3.2194609317   -0.6482066410
 C   -0.2538407352    3.9621978143   -0.1866141451
 C    0.2053040345    3.7773918350    1.2891247399
 N    1.5105884205    3.1674331271    0.8588702473
 C    1.1264489444    3.4157113592   -0.5739477412
 C    1.2055611539    2.0253218125   -0.0598757159
 H   -1.9639320862    1.2952944582   -0.9051047881
 H   -1.9256479459    1.8145727852    0.7806821438
 H   -0.4381850070    4.9966591563   -0.4770856204
 H    0.4121178705    4.7278876702    1.7844924966
 H   -0.4002783995    3.1559430446    1.9535789684
 H    1.8173912787    3.8125747206   -1.3095276917
 H    2.0989484526    1.4456634791   -0.2663857865