20

 C   -0.0380755702    1.3814618018   -0.0620014746
 N    0.0417437184   -0.0560561890    0.0300987398
 N   -0.0143614939   -0.7969727321   -1.1117449989
 C   -0.0278216154   -2.0546733585   -0.6887810118
 N   -0.1476545653   -3.1205673615   -1.5876963019
 C    0.0200559662   -2.1490948524    0.7259562920
 C    0.0179223961   -3.4067264869    1.5365988991
 C    0.0609611590   -0.8294616930    1.1489322413
 C    0.1093730196   -0.2476268428    2.5240647228
 H    0.6018996124    1.8484359021    0.6915029712
 H    0.3074236342    1.6716765188   -1.0546107425
 H   -1.0641117065    1.7472404047    0.0739316427
 H   -0.0061539659   -2.8072326937   -2.5403483835
 H    0.4835573827   -3.8843016508   -1.3804570178
 H    0.9770299023   -3.9408156513    1.4899664381
 H   -0.1840635169   -3.2081450651    2.5932522782
 H   -0.7517455708   -4.1014490893    1.1804459401
 H    1.0228307666    0.3357444162    2.6927597316
 H   -0.7411707652    0.4154776411    2.7213066218
 H    0.0877144030   -1.0439517881    3.2709885021