19

 C   -0.0173879295    1.5217394662   -0.0217190564
 C   -0.0011459055    0.0658438774   -0.0287304988
 C    0.0220221900   -1.1377769345   -0.0376114317
 C    0.0137962020   -2.5955252467   -0.0419870848
 C   -1.4059726792   -3.1784799176    0.0960630037
 C   -1.4163567447   -4.7270391685    0.0607064319
 N   -0.6977123198   -5.4183454065    1.1337320630
 C   -2.8120496383   -5.1990858264    0.0462245924
 N   -3.9181468954   -5.5322071126    0.0405364574
 H    0.5868158605    1.9233605949    0.7991764994
 H    0.3820676758    1.9287148576   -0.9571388497
 H   -1.0359930871    1.9068649109    0.0980058703
 H    0.4686817749   -2.9671430510   -0.9712050197
 H    0.6453946004   -2.9666221399    0.7759047489
 H   -1.8574274401   -2.8374823696    1.0342482593
 H   -2.0346342717   -2.7963734481   -0.7146965897
 H   -0.9640684477   -5.0536987259   -0.8855271524
 H    0.2947557208   -5.2195450510    1.0706214871
 H   -1.0173690652   -5.0905131587    2.0407587299