12

 C    0.0547884279    1.4784915919   -0.0237119056
 O   -0.0137843569    0.0456376199   -0.0012566135
 C    0.5516877887   -0.5954547191   -1.0120566489
 C    0.6449466630   -1.9420648729   -1.2611436770
 O    0.1717228311   -2.9651534971   -0.5187923443
 N    1.3193693958   -2.0794550519   -2.4250846749
 N    1.6492957112   -0.9559445791   -2.9152504724
 O    1.1546276731    0.0547161942   -2.0013695594
 H    1.0949311246    1.8163707127   -0.0110328617
 H   -0.4461237649    1.8760175851   -0.9110000912
 H   -0.4593806605    1.8074034422    0.8785224147
 H    0.4058060671   -3.7826852359   -0.9737532758