19

 C    0.0258203959    1.4731312797    0.0243632381
 C   -0.1359181119   -0.0368912595    0.0509763205
 O   -0.4213985661   -0.6391209212    1.0621958303
 C    0.0536221878   -0.7476787896   -1.2605412803
 C   -1.1757480404   -0.7826664449   -2.2345363540
 C   -1.0458077104   -2.3357162668   -2.3308727172
 C    0.2029283071   -2.2824132891   -1.4266277415
 O    1.4271875118   -2.1110139588   -2.1772132751
 C    1.4111071208   -0.6804824924   -1.9935750938
 H    1.0596733831    1.7361842646   -0.2287984919
 H   -0.6120746501    1.9161502921   -0.7487117334
 H   -0.2255663876    1.8915671815    0.9995870159
 H   -2.1066234359   -0.4512564382   -1.7688714763
 H   -1.0334066346   -0.2242541571   -3.1634032172
 H   -1.8879030648   -2.8630576595   -1.8758674248
 H   -0.8559359144   -2.7484972907   -3.3233659294
 H    0.3071167982   -2.9908671527   -0.6030790251
 H    1.4303884007   -0.1305056980   -2.9433574963
 H    2.2531837309   -0.3485941295   -1.3705722284