22

 C   -0.6039941131    1.4021368577    0.0737981869
 C    0.1335144702    0.0802727436   -0.0390685911
 O    1.2104492489    0.2332113143   -0.9916913920
 C    2.2322892375   -0.6241007179   -0.6919443104
 N    3.2927312240   -0.7439119260   -1.3671888585
 C    1.8831024718   -1.3834853186    0.5670413343
 C    0.8062604823   -0.5013775721    1.2358692339
 C    1.4793392400    0.5920667288    2.0827613418
 C   -0.1837701049   -1.3011718700    2.0867140126
 H    0.0638797895    2.2045244452    0.3956639503
 H   -1.0277017506    1.6796213744   -0.8951016855
 H   -1.4259350611    1.3198250414    0.7918478453
 H   -0.5539866322   -0.6799367288   -0.4400207171
 H    3.2665000123   -0.1255397764   -2.1804433275
 H    1.4670829854   -2.3596497741    0.2883893035
 H    2.7670277172   -1.5639810092    1.1804110775
 H    2.1707308142    1.1965777209    1.4874135616
 H    0.7432139162    1.2639236569    2.5341572954
 H    2.0528529500    0.1358792373    2.8960801875
 H    0.3228863660   -1.7679803084    2.9377195339
 H   -0.9737016519   -0.6576077455    2.4894527723
 H   -0.6607621918   -2.0965386735    1.5041394653