21

 C    0.2991232391    1.4644773336    0.4445456556
 O    0.1919583884    0.0612234854    0.4895740580
 C   -1.0364748027   -0.4151104434   -0.0177821234
 C   -0.9968975399   -1.9266424544   -0.0409044271
 C    0.0510335507   -2.5132433466   -0.9768658995
 C   -0.2777028009   -2.2722268825   -2.4368763670
 O    0.4883703651   -1.8342538655   -3.2560515835
 C   -1.2954725493   -2.6416936346    1.2533529527
 C   -2.3096092646   -2.6583881469    0.1383785897
 H    1.2793585030    1.7303520992    0.8470642686
 H    0.2210087192    1.8474210112   -0.5850155261
 H   -0.4790036092    1.9535143700    1.0523070183
 H   -1.8751831879   -0.0659538908    0.6084581754
 H   -1.2057441976   -0.0163440884   -1.0341075050
 H    1.0408042752   -2.1014120598   -0.7648888712
 H    0.0944480347   -3.6023461287   -0.8353588458
 H   -1.3224464041   -2.5433140457   -2.7194951179
 H   -0.7523839210   -3.5554743660    1.4680469631
 H   -1.5028989464   -2.0333728415    2.1266125458
 H   -3.2147693972   -2.0719994594    0.2555370579
 H   -2.4539023848   -3.5844950853   -0.4078108586