21

 C   -0.1382644408    1.5642673799   -0.0574941624
 C    0.0552060905    0.0544591849   -0.0202129720
 C    1.1103710440   -0.5957211417   -0.9366785061
 C    2.5121336353   -0.2355634635   -0.5255689461
 C    1.7713991568   -1.2793929423    0.2649321447
 C    0.7761866460   -0.6048013697    1.1840782746
 C    1.0039447065   -0.0292445477    2.5628377922
 C    0.0744518122   -1.2050919968    2.3511015483
 O   -1.3111042840   -1.0125749566    2.4021849806
 H    0.8049467787    2.1011125417    0.0847998303
 H   -0.5610548034    1.8770820759   -1.0186179226
 H   -0.8298184039    1.8853527208    0.7288656769
 H   -0.9118575992   -0.4397760489   -0.1551552132
 H    0.9010661193   -1.0156241199   -1.9133141249
 H    3.2921791148   -0.6129889518   -1.1796561621
 H    2.7381094987    0.7288040543   -0.0777640701
 H    2.1237102073   -2.2999526135    0.3601774878
 H    1.9565177275   -0.2009298170    3.0550496151
 H    0.5393648937    0.9275136508    2.7820278013
 H    0.4134217475   -2.1826728024    2.6983715740
 H   -1.5606471676   -0.8871160166    3.3236554437