17

 C   -0.0538677120   -1.2512536194   -0.0762382184
 C   -0.0162770838   -0.0504130505   -0.0175297585
 C   -0.0023600888    1.3962801065    0.0227628700
 C    0.0504202408    2.1271485807    1.4171949721
 C    1.5437267491    1.6756005034    1.5246854489
 C    1.3792726354    2.1525975221    0.0445355096
 C    0.5843935926    3.3299869585    0.6266396244
 C    0.0494582895    4.5883834995    0.1321087811
 O    1.0937034555    4.5266868748    1.1418829913
 H   -0.0845310520   -2.3115074244   -0.1256570329
 H   -0.7337998856    1.8119103043   -0.6776284983
 H   -0.7179110544    2.1065450564    2.1888827859
 H    2.1873299744    2.2862063750    2.1590695764
 H    1.7116204105    0.6079746280    1.6674283244
 H    2.1257564515    2.1610037750   -0.7485287077
 H    0.3690554387    4.9829171496   -0.8310564933
 H   -0.9099222614    4.9584199406    0.4900877351