14

 C    0.0014811769    1.4118938661    0.0115332128
 N   -0.0446781374   -0.0344178381   -0.0045161496
 N   -0.0090557079   -0.7130386368   -1.1760278168
 C    0.0301672548   -1.9607709299   -0.7285854477
 N    0.0555583773   -3.2718224678   -1.1345976954
 C    0.0662257744   -4.0054450331    0.0482639073
 N    0.0438674961   -3.2929555619    1.1476300535
 C    0.0219586463   -1.9978812029    0.6713173278
 N   -0.0215417633   -0.7431217881    1.1304279754
 H    1.0349823957    1.7705627659   -0.0353233936
 H   -0.5498593605    1.7860580259   -0.8514053276
 H   -0.4596549599    1.7546237251    0.9373133560
 H    0.0732808290   -3.6434065233   -2.0682224977
 H    0.0928071486   -5.0856589311    0.0166184654