21

 C    0.9314263111   -0.2873496077   -1.3384355378
 C    0.0309171832   -0.1156571768   -0.1143999473
 C    0.6601791030   -0.6433168172    1.1941465484
 C   -0.2172671508   -0.3052475633    2.4371390102
 C   -0.3537026589    1.1271644518    2.6740700397
 C   -0.4456171498    2.3132166173    2.8633419817
 C   -0.5667593187    3.7440536092    3.1059986948
 C    0.8971681531   -2.0844470594    1.1377591382
 C    1.0620716727   -3.2752701776    1.1028820019
 H    1.1751245469   -1.3408536090   -1.5050555832
 H    0.4413465054    0.0939060142   -2.2394297879
 H    1.8736110797    0.2587566613   -1.2161255976
 H   -0.2033762435    0.9434029411    0.0359460088
 H   -0.9225547468   -0.6336835509   -0.2750440837
 H    1.6266981427   -0.1397114077    1.3328270046
 H   -1.2046468121   -0.7645081767    2.3015016482
 H    0.2245199509   -0.7873199724    3.3166791037
 H   -0.4946192203    3.9736657487    4.1749272075
 H    0.2250589841    4.3029717894    2.5949722033
 H   -1.5275837158    4.1306853877    2.7485051334
 H    1.2234149440   -4.3242216021    1.0685668931