19

 C    0.5445108426    1.3989482529    0.0991179787
 O    1.0258155733    0.1588584465   -0.4272925720
 C   -0.3048536082    0.1980230074    0.0901620403
 C   -0.5892181370   -0.6034076402    1.3193094394
 C    0.5496936234   -1.0363556662    2.2017256731
 C   -0.2194676832   -2.0823836831    1.4138122021
 C   -1.3504043618   -2.7256278905    2.1410388950
 C   -2.2902461418   -1.8397978434    2.4786554008
 C   -1.9724033267   -0.4501376491    1.9646945907
 H    1.0052268865    1.7140611593    1.0339492347
 H    0.3855861865    2.1857759402   -0.6367029866
 H   -1.0766251733    0.1382776865   -0.6808789393
 H    1.5431878431   -0.7946751572    1.8400050521
 H    0.4196322650   -1.0148311826    3.2790071997
 H    0.2922412172   -2.5954450570    0.6071093813
 H   -1.3644600732   -3.7815139279    2.3866384996
 H   -3.1772431169   -2.0525625028    3.0642849088
 H   -1.9773552751    0.3022955576    2.7637354674
 H   -2.7190219504   -0.1175818902    1.2284607141