17

 C    0.1234480078    1.5484156908   -0.0405425656
 C   -0.0279715691    0.0282356956    0.0351747708
 N    0.5765652275   -0.6131664132   -1.1547079049
 C    1.6620190645   -1.2157065525   -0.8234952988
 N    2.5057232758   -1.8945214893   -1.6454208170
 C    1.9664080168   -1.1219477361    0.6403779599
 O    3.0118330131   -1.3512746475    1.2020479909
 C    0.6881360730   -0.5927073099    1.2639463650
 O    0.9194916626    0.2697206366    2.3463033218
 H    1.1793147931    1.8356326305   -0.0218833410
 H   -0.3177798935    1.9162731143   -0.9703464899
 H   -0.3718451133    2.0260057714    0.8079950123
 H   -1.0951144988   -0.2179031437    0.0370718653
 H    2.4337451551   -1.7263451105   -2.6363165538
 H    3.4276388295   -2.0754232209   -1.2795632151
 H    0.1127824865   -1.4816400189    1.5827181766
 H    1.7691953295    0.0099023035    2.7285738035