18

 N    0.0408061692    1.3657242633    0.0328222382
 C    0.0445362604    0.1062728734   -0.0167675484
 O   -1.0922070292   -0.5810474396    0.2226267052
 C   -1.0527238320   -1.9876592742    0.1589703161
 C   -1.7121102491   -2.8044624834    1.2931773826
 C   -3.1121054960   -2.1789160565    1.4365318433
 C   -3.4679251851   -2.1200877517   -0.0840559837
 C   -2.1602849355   -2.7303574591   -0.6221040281
 O   -1.9231761306   -3.8477545134    0.2906910683
 H    0.9713015464    1.7241111449   -0.1710374557
 H    0.9036450143   -0.5403340891   -0.2427984146
 H   -0.0576249566   -2.3647284941   -0.0884680499
 H   -1.1758431871   -3.1383359303    2.1807437726
 H   -3.7761955688   -2.8316122600    2.0056878687
 H   -3.0818559830   -1.1945174630    1.9079227679
 H   -4.3265241680   -2.7406332530   -0.3461583059
 H   -3.6328087021   -1.1034303024   -0.4465269274
 H   -2.0786050373   -2.9890691318   -1.6771986292