22

 C   -0.0703949317    1.5313870708    0.0389792830
 C   -0.0184251727    0.0119343080   -0.0598865222
 C    0.8041671006   -0.4721805837   -1.2524519300
 C    0.7785969239   -1.9894048533   -1.4390803646
 C    1.3998573769   -2.7628448413   -0.2694405219
 N    0.6409156744   -2.7984230342    0.9738288093
 C    0.3069352499   -1.7472398604    1.5899974165
 C   -0.3323697094   -1.8050484757    2.9491368069
 O    0.5113489288   -0.4412328295    1.2024784470
 H    0.9390744257    1.9413347132    0.1434704012
 H   -0.5262088921    1.9583495405   -0.8591025041
 H   -0.6560433011    1.8391114415    0.9087400866
 H   -1.0408365858   -0.3842647611   -0.1533584170
 H    0.4153786744    0.0184736723   -2.1532924183
 H    1.8388060285   -0.1273624750   -1.1237455389
 H   -0.2534805222   -2.3328034478   -1.5879469381
 H    1.3291180040   -2.2495966079   -2.3511132016
 H    1.5514827882   -3.8025435144   -0.5773271062
 H    2.3995410385   -2.3490013760   -0.0644854394
 H   -0.4054250302   -2.8371602231    3.2899320424
 H    0.2619566836   -1.2210847392    3.6600729194
 H   -1.3294261821   -1.3510875238    2.9232132700