17

 C    0.0040591853    1.5830854741   -0.0539974788
 C   -0.0109691433    0.0880222361    0.0682360146
 C   -1.2605022552   -0.7991852205    0.0564828878
 O   -0.6804274230   -1.6985238890    1.0448663177
 C    0.4720237413   -0.8898339341    1.1071377823
 C    1.1800126705   -0.8379477419   -0.2526549456
 N    1.0355167811   -1.9204351574   -1.1838950150
 C    2.4672202736   -0.1776899049   -0.1939164424
 N    3.5117125437    0.3228048699   -0.1740700020
 H    0.9963885526    1.9892911094    0.1577654200
 H   -0.2744388465    1.8955515942   -1.0671108779
 H   -0.7061774011    2.0370949576    0.6447295926
 H   -2.1373345893   -0.2939034005    0.4742977072
 H   -1.5062134667   -1.3154153596   -0.8740004336
 H    1.0017245797   -0.7966021271    2.0488163185
 H    1.3135530438   -1.6352104788   -2.1171384208
 H    1.6090182835   -2.7136579174   -0.9160630946