18

 C    0.2632037847    1.5177942492    0.0886794676
 C   -0.1058110823    0.0427271217   -0.1069917850
 C    0.6018573833   -0.5811792216   -1.2846557747
 N    0.2728856714   -0.0632457911   -2.6017663526
 C    0.3542019955   -1.0507564346   -3.4025759557
 O    0.6504916870   -2.2733902647   -2.9084502561
 C    0.8854106883   -2.0716930991   -1.5246987822
 C    2.0154529656   -1.1282287794   -1.1886762294
 O    2.9859101924   -0.8440844077   -2.1407523735
 H    1.3346606335    1.6330267054    0.2851414581
 H    0.0206985083    2.0953485811   -0.8072810710
 H   -0.2813736988    1.9488415338    0.9338791927
 H    0.1392187960   -0.5301795623    0.7954620932
 H   -1.1881398436   -0.0548825367   -0.2552716728
 H    0.1940606848   -1.0188355489   -4.4732834751
 H    0.6006612033   -2.9193466083   -0.9146342578
 H    2.3966541611   -1.2277769262   -0.1730342466
 H    2.8040210194    0.0331865996   -2.4975832290