20

 C   -0.3180681733    1.3014109199   -0.6685228886
 C   -0.0692995821   -0.2000002352   -0.8283426083
 C    1.4160035779   -0.5508255109   -0.9462872039
 O    2.1596667276   -0.1545097821    0.2015542760
 C    1.6579082964   -2.0393176649   -1.1993855776
 O    1.0840898461   -2.3778307678   -2.4692841995
 C    0.9345203030   -3.7061859539   -2.7084019311
 N    0.3532248850   -3.8918968467   -3.9318225291
 O    1.2393711057   -4.5845261545   -1.9373638028
 H    0.2287639039    1.6955593198    0.1923615538
 H    0.0189711460    1.8512538550   -1.5541837478
 H   -1.3818347006    1.5145122241   -0.5282766682
 H   -0.4863487362   -0.7455554434    0.0319333927
 H   -0.5872319446   -0.5848407352   -1.7133615744
 H    1.8560983038    0.0167587320   -1.7756193726
 H    1.7575771761   -0.5737849999    0.9711713981
 H    2.7328760463   -2.2448134735   -1.2105791384
 H    1.2031026970   -2.6564370896   -0.4166040483
 H    0.3497482395   -3.1281604386   -4.5863303030
 H    0.3892705825   -4.8268331244   -4.2998236267