18

 C   -0.1232228354    1.5406023147   -0.0085439808
 C    0.0415488109    0.0412873719    0.0811470607
 C    1.3510202573   -0.7120127943   -0.2079256106
 C    2.6273893482    0.0490119487   -0.1140406543
 C    2.8433803864    0.5056962771    1.1234359889
 C    1.7434602072    0.0909921135    2.0763120240
 C    0.7611208643   -0.6846811721    1.1884061329
 O    0.1968495877   -1.8513320334    1.7141632691
 H    0.7988140167    2.0672101037    0.2494118593
 H   -0.4024496858    1.8402042307   -1.0246513425
 H   -0.9124350688    1.8910507921    0.6669334638
 H   -0.8209243681   -0.5240167462   -0.2667849952
 H    1.2834071220   -1.5994726581   -0.8273483361
 H    3.2793621924    0.2128037718   -0.9647205882
 H    3.6887727088    1.1089372945    1.4346689628
 H    2.1155031403   -0.5694761971    2.8704419198
 H    1.2784113558    0.9527454326    2.5735448320
 H   -0.5834660498   -1.6026601501    2.2212705443