21

 C    0.0041844481    1.6095647375    0.0375266679
 C    0.0397831465    0.0807740309    0.0640807942
 C   -1.3636022964   -0.5383814119   -0.0021436684
 O   -2.0542097914   -0.2293297925   -1.2098131919
 C   -1.9438262542   -1.3402817619   -2.1032020647
 C   -1.9859965249   -2.5900953055   -1.2175662672
 C   -1.3572056765   -3.8669971549   -1.7641485660
 C   -1.3108394161   -2.0687133335    0.0534508778
 O   -0.7999501395   -2.7276173076    0.9217220536
 H    1.0153720299    2.0270534847    0.0443833499
 H   -0.5092001757    1.9657372012   -0.8597987495
 H   -0.5289368619    2.0059387444    0.9087994971
 H    0.6379401711   -0.2960585099   -0.7752192847
 H    0.5173486353   -0.2885383770    0.9786867511
 H   -1.9663641183   -0.1596852594    0.8340634142
 H   -2.7690608541   -1.2699458736   -2.8154299693
 H   -0.9984534001   -1.3019589082   -2.6686296884
 H   -3.0333771427   -2.7773974269   -0.9379464968
 H   -0.3380469472   -3.6814461839   -2.1191484061
 H   -1.3019182577   -4.6216654574   -0.9752883397
 H   -1.9378956743   -4.2740207647   -2.5968146129