13

 C    0.0485524675    1.5073857806    0.1259997010
 C   -0.0016290743   -0.0010994576   -0.0066848525
 O    0.6818136214   -0.5567416608    1.1395353438
 C    0.7422651768   -1.8872659445    1.2019107788
 N    0.2455451440   -2.6668488896    0.3327076983
 C    1.4505879615   -2.3243590054    2.3946292875
 N    2.0022820706   -2.7402461260    3.3210418891
 H    1.0817335872    1.8644770534    0.1448007654
 H   -0.4602460297    1.9663681451   -0.7265558878
 H   -0.4481228581    1.8364263853    1.0427182337
 H   -1.0262981276   -0.3856018349   -0.0210097751
 H    0.4950770836   -0.3575842205   -0.9145446672
 H    0.4037318671   -3.6426765852    0.5724353650