21

 C    0.6705274217    1.1970422402    1.3268493605
 C    0.0581010191    0.2340975903    0.3257519839
 C    0.5676097002    0.2574397287   -1.0945972638
 C    0.9160763860   -0.8988390750   -0.1884838220
 C   -1.3835150740   -0.0957216429    0.6347980589
 O   -2.2440204170    1.0727367022    0.8444735315
 C   -3.2549544598    0.4843030287    0.0261637924
 C   -2.8000485958    0.3909173419   -1.3887356108
 C   -2.3691637255   -0.6700486809   -0.3858042600
 H    1.7242150150    1.3831526609    1.0975553610
 H    0.1400436208    2.1536447301    1.3159240032
 H    0.6150562872    0.7958984831    2.3459870085
 H   -0.1256536010    0.0614918306   -1.9027952112
 H    1.3464804468    0.9732925627   -1.3360043001
 H    1.9293624713   -0.9807265070    0.1907264996
 H    0.4402955183   -1.8532535531   -0.3917396641
 H   -1.4155894154   -0.6943800035    1.5571798134
 H   -4.2816715125    0.5322552045    0.3696122390
 H   -3.5426088737    0.0408316881   -2.0995611645
 H   -2.1041172536    1.1302503529   -1.7703590051
 H   -2.6035751280   -1.7183642325   -0.5090018006