19

 C   -0.4533038297    0.9564207008   -0.2021794482
 O    0.5702180140    0.0148215692    0.0708497640
 C    1.0036253579   -0.6577672694   -1.0596749179
 C    1.6542581157   -1.9721270473   -0.9360617225
 C    1.0353759878   -2.8137407719    0.1867811608
 C   -0.3760024273   -2.6699060852   -0.4611510325
 C    0.2252859780   -1.8504528815   -1.6052277371
 C   -0.1129827935   -1.9763488388   -3.0223264189
 O   -1.0222079890   -2.6475610240   -3.4560277264
 H   -0.1030719417    1.7407210390   -0.8891458476
 H   -1.3366065066    0.4746530208   -0.6430474575
 H   -0.7279810953    1.4144762853    0.7499653615
 H    1.4097165093   -0.0109831080   -1.8417609147
 H    2.5911148520   -2.1843963322   -1.4383990066
 H    1.3958294342   -3.8434137156    0.1760904914
 H    1.1557866233   -2.4000301766    1.1900630554
 H   -0.7842562766   -3.6152642293   -0.8199377616
 H   -1.1329779937   -2.1580180939    0.1374515249
 H    0.5500846611   -1.3953378916   -3.7069606366