24

 C    0.3033995778    1.4547091978   -0.1266793742
 C   -0.0068530203   -0.0429534652    0.0314727133
 C    0.4137394894   -0.7841522093   -1.2494202730
 C    0.6428812832   -0.6420483373    1.3059928906
 C    0.2639338730    0.1293923522    2.5786438880
 C    0.2844700232   -2.1370648898    1.4596392260
 N    0.9141515584   -2.7873878206    2.6008374618
 C    2.0871952630   -3.4665703126    2.5009319554
 O    2.7269147714   -3.6091783549    1.4799407361
 H    1.3856750790    1.6276706317   -0.1688660025
 H   -0.1269472409    1.8371540568   -1.0578057054
 H   -0.1011253395    2.0560255237    0.6910276513
 H   -1.0979611882   -0.1470021582    0.1394185680
 H    1.5041440407   -0.7825513230   -1.3627127039
 H    0.0797112691   -1.8243774354   -1.2679745686
 H   -0.0111858749   -0.2925518896   -2.1305235297
 H    1.7340131585   -0.5902366123    1.1827513045
 H   -0.8250450529    0.1626979705    2.7124261461
 H    0.6978465623   -0.3442977051    3.4643683224
 H    0.6286415237    1.1584013763    2.5582001295
 H   -0.8028538205   -2.2505404068    1.5547111796
 H    0.6085697124   -2.6960631903    0.5817681737
 H    0.4817410319   -2.7239526428    3.5076054331
 H    2.4002404003   -3.8928889557    3.4754867580