22

 C    0.6064251871   -0.2841688039    0.7419787564
 O   -0.4079257674   -0.0836499983   -0.2258259869
 C   -1.6091407041   -0.7694605901    0.0312674555
 C   -2.4589914185   -0.2536524986    1.1869710415
 N   -3.0156526406    1.0970094975    1.1486071013
 C   -2.2029760201    2.2443885778    0.7621201139
 C   -3.3126946880    1.7630827649   -0.1117261081
 C   -2.2698422353   -1.3055206271   -1.2055987658
 C   -1.5987762286   -2.2581124385   -0.2409810202
 H    1.5104412453    0.1907579074    0.3532463762
 H    0.3582940988    0.1753982666    1.7084201334
 H    0.8038535222   -1.3526832246    0.9039094359
 H   -3.3057595066   -0.9426784787    1.2951633145
 H   -1.8871915023   -0.3298115901    2.1205009055
 H   -2.3348828228    3.1308724363    1.3781680698
 H   -1.1964335519    2.0725643734    0.3953983228
 H   -3.0220201165    1.2856476537   -1.0432749092
 H   -4.2612748675    2.2932727601   -0.1465150228
 H   -3.3530621166   -1.2951037028   -1.2560874628
 H   -1.7650350407   -1.1129759766   -2.1451860007
 H   -0.6551396572   -2.6899871513   -0.5543793880
 H   -2.2158717390   -2.9085264268    0.3695971278