22

 C    0.0046064443    1.5233464589   -0.2580439537
 C   -0.0183381647    0.0410327296    0.0555213762
 C    1.2377997120   -0.7887077921   -0.0324121311
 C    0.5890583432   -0.5590549993    1.3115793718
 C    1.2709811131    0.2848193604    2.3686070969
 O    0.3135230371    0.9192482201    3.2167559882
 C    2.1709567581   -0.5627259767    3.2526474524
 C    2.4928697691   -0.1486561338    4.6365697241
 N    1.5963087490   -1.2981803940    4.3881344764
 H    0.9331787322    1.9996895759    0.0688877276
 H   -0.0814464761    1.6881839818   -1.3375024281
 H   -0.8287710234    2.0548954511    0.2175257238
 H   -0.9247821615   -0.4573438986   -0.2792419543
 H    1.1921347537   -1.7794379376   -0.4701066312
 H    2.1649946039   -0.2589777832   -0.2325446253
 H    0.0518376314   -1.4051463978    1.7330725717
 H    1.8981910813    1.0472219638    1.8783326369
 H   -0.4112538943    1.2180003389    2.6601916986
 H    2.9118955932   -1.1251400053    2.6882917536
 H    3.4571241269   -0.4031574449    5.0675897052
 H    2.0480207036    0.7715577714    5.0011641755
 H    0.6400272378   -0.9678520985    4.5091352850