19

 O    0.0469331942    1.2321332058   -0.3198655957
 C   -0.1144991628   -0.1507844900   -0.0284128887
 C   -1.5946503552   -0.4688094003    0.2437555566
 C   -2.0967202678    0.2222630304    1.5230036004
 O   -2.2245717030    1.6216455684    1.3624422817
 N   -2.3748316626   -0.0037832131   -0.9177523864
 C   -2.9221006110   -1.0601531428   -1.7558379712
 C   -3.6229828319   -0.5016333724   -2.9168245965
 N   -4.1903581670   -0.0626651204   -3.8217783798
 H   -0.5674875967    1.3936516183   -1.0521731624
 H    0.2579334435   -0.7691749294   -0.8593810055
 H    0.4999556926   -0.3675266806    0.8512477375
 H   -1.7042898154   -1.5549243010    0.3851012715
 H   -3.0950272762   -0.1514178101    1.7787910396
 H   -1.4245853886   -0.0375255520    2.3563842076
 H   -1.3718226027    1.9325360509    1.0231072485
 H   -3.0935634695    0.6444929795   -0.6155529867
 H   -2.1019923765   -1.6869663843   -2.1265255955
 H   -3.6195148335   -1.7376643969   -1.2316627349