19

 C   -0.9431403233    1.1332562056   -0.0652100324
 C   -0.1011802818   -0.1306485209    0.0230593367
 C    1.0934001949   -0.3073489379   -0.9806100489
 O    1.5689516065    0.8634466649   -1.6113081921
 C    2.0263546350   -0.7250537912    0.1950091541
 C    0.8756101697   -0.3456833279    1.2105296601
 C    1.6965461956    0.8907566535    1.6860307570
 C    2.8461651541    0.4410338478    0.7635643477
 O    3.9854961136    0.7803683091    0.6439937779
 H   -0.3203881051    2.0294731220   -0.1276813026
 H   -1.5856688246    1.1161499473   -0.9535747600
 H   -1.5966731102    1.2307917102    0.8081753698
 H   -0.7521643293   -1.0085217662   -0.0552407238
 H    0.9351686454   -1.1091452535   -1.7129906402
 H    0.9556376403    1.1027315685   -2.3137417627
 H    2.5160126295   -1.6957052458    0.1153656436
 H    0.5554283738   -1.0220861988    2.0021926771
 H    1.2846166299    1.8790250200    1.4673263479
 H    1.9809832359    0.8671809433    2.7428133206