14

 C    0.0588357365    1.5672809000    0.0227587516
 C    0.0061892722    0.0401858701   -0.0045367138
 C   -1.4450232034   -0.5152778864    0.0286298668
 O   -2.1745305441   -0.0649150219    1.1558077709
 C   -2.1920911567   -0.0501253540   -1.1603963201
 N   -2.7312746789    0.3273356123   -2.1080828022
 C   -1.3946656905   -1.9993657557    0.0085144549
 N   -1.3128712840   -3.1501565413    0.0593402831
 H    1.0987804573    1.9016641099    0.0561432060
 H   -0.4062552706    1.9954879688   -0.8695899804
 H   -0.4594790986    1.9625380252    0.8993953098
 H    0.5038706465   -0.3582975335   -0.8944377072
 H    0.5226136430   -0.3868886799    0.8633499761
 H   -1.7451385088   -0.4155388537    1.9461327643