15

 O    0.0180832815    1.4483367040    0.1075574060
 C    0.0289762114    0.0637883544   -0.1170701446
 C   -1.4042133068   -0.5264364758   -0.0964604070
 C   -1.5062545132   -2.0544352672    0.1563248361
 O   -1.9992828568   -1.8087913265    1.5155494819
 C   -1.9562270813   -0.4577150796    1.3472841718
 O   -2.1938573134    0.4008632429    2.1358026886
 C   -2.2575063709    0.0167927988   -1.1314512310
 C   -2.9684315195    0.4455167021   -1.9996877980
 H   -0.4442735994    1.6143041814    0.9392660775
 H    0.4767137124   -0.0979266051   -1.1020085731
 H    0.6355352849   -0.4772460455    0.6278092162
 H   -2.2520174400   -2.5782708523   -0.4406704480
 H   -0.5614426803   -2.6006958821    0.1859622931
 H   -3.5950210388    0.8397248705   -2.7615442095