20

 C   -0.3958766316   -1.9558267381    3.0525277845
 N   -0.1155669956   -1.6721679299    1.6520209690
 C   -0.9188091828   -0.6311868668    1.0247577599
 C    0.5413600136   -0.4176454463    1.2748409585
 C    1.0205276461    0.6222276959    2.2232757824
 C    1.7444055458    0.5051580462    3.3347600139
 C    2.0487105621    1.8607494884    3.9035439081
 O    1.4625173354    2.7893438373    2.9952646009
 C    0.7958284696    2.0928827655    1.9505235023
 H   -0.6723080756   -1.0724714794    3.6461663037
 H   -1.2205926462   -2.6743307551    3.0963688744
 H    0.4809024399   -2.4211392743    3.5144954870
 H   -1.2875277801   -0.8390577506    0.0235764763
 H   -1.6106140817   -0.0782232277    1.6600219557
 H    1.2002692599   -0.5430348759    0.4141073089
 H    2.0856704590   -0.4146740327    3.7913884296
 H    1.6251109750    2.0002977353    4.9116647629
 H    3.1313363024    2.0494814868    3.9824060508
 H    1.2030854192    2.4009935209    0.9738382239
 H   -0.2759462142    2.3496265903    1.9448358174