19

 C    0.2257881789    1.4412813496   -0.1416626099
 C    0.0277304169   -0.0752724121   -0.0411980181
 C    0.9624938995   -0.9633974448   -0.9413440438
 N    1.5391665669   -1.6618949671    0.2392007349
 C    2.7654573332   -0.9973988084    0.7903797280
 C    1.9266557923   -0.2367105905    1.8540081676
 C    0.6812453690   -0.8388957553    1.1718684898
 C   -1.3871254999   -0.4007833958   -0.1896409959
 N   -2.5083553622   -0.6610300000   -0.3030743419
 H    1.2855417886    1.6991083090   -0.0775636486
 H   -0.1535552189    1.8087756874   -1.0995509312
 H   -0.3086196255    1.9639301633    0.6569607707
 H    0.4297077401   -1.6444013508   -1.6094132667
 H    1.6890432003   -0.3890507754   -1.5273167741
 H    3.4827122406   -1.7198223033    1.1891839888
 H    3.2852889447   -0.3645974975    0.0614278670
 H    2.0652413595   -0.6024791568    2.8731961151
 H    2.0105713712    0.8514692996    1.8672767327
 H   -0.0303309853   -1.3695249610    1.8085482955