20

 C   -0.0386894116    1.5957512198   -0.0180348128
 C    0.0560161818    0.0678705895    0.0157117286
 C    0.8473430963   -0.5181797345   -1.1963587195
 C    1.5402258734   -1.8037317756   -0.6604750846
 C    1.5949668607   -1.5336732153    0.8212632089
 C    0.8014725997   -0.5304303843    1.2011977861
 C    0.5627573954   -0.0520214346    2.5990682342
 C    0.0278055280   -0.7262768580   -2.3850072330
 N   -0.6317286024   -0.8896406132   -3.3206404100
 H    0.9559226752    2.0542454952    0.0214741579
 H   -0.5310925316    1.9305368123   -0.9364483696
 H   -0.6201278672    1.9771584936    0.8264628248
 H   -0.9677215164   -0.3355252461    0.0069002457
 H    1.6297927907    0.2049401775   -1.4561187467
 H    0.9451164905   -2.6991642883   -0.8831579942
 H    2.5209962617   -1.9567304317   -1.1217788911
 H    2.1864613483   -2.1422502560    1.4969816552
 H    1.1421211251   -0.6317221282    3.3222285763
 H    0.8317551473    1.0044322094    2.7165782182
 H   -0.4981086550   -0.1350376015    2.8690617254