16

 O   -0.0045662082    1.3621453575    0.1138367748
 C    0.0112023373   -0.0560963260    0.1487050040
 C   -1.4433692586   -0.5306018694   -0.0403528984
 C   -1.4851305949   -1.9778271810   -0.2212356209
 C   -1.4938770173   -3.1686619731   -0.3823822461
 C   -2.3065823339   -0.0356520665    1.1166981885
 C   -3.4266178228   -0.7946301317    1.6784064637
 O   -2.1690948073   -0.7201576988    2.3602551275
 H    0.8472756265    1.6830226146    0.4223312500
 H    0.6351402651   -0.4729567776   -0.6542443945
 H    0.3839519171   -0.4397189255    1.1082179622
 H   -1.8168310938   -0.0447509792   -0.9532544637
 H   -1.5064314479   -4.2212773774   -0.5224459840
 H   -2.3130888970    1.0496337572    1.2004478460
 H   -4.2482267346   -0.2623869346    2.1556903791
 H   -3.6687156596   -1.7717451685    1.2667581218