19

 C   -0.1585198693    1.6014197387   -0.0262205084
 C    0.0583039780    0.0918070632   -0.0280968556
 C    0.7408029334   -0.5816192988   -1.2243355877
 C    2.2466547970   -0.4796194227   -1.0854379548
 O    2.8038865786    0.5468349910   -0.2824296999
 C    2.3725562159    0.2991339014    1.0577968407
 C    1.1351371160   -0.5950704323    0.8966650562
 O    0.6982078235   -1.2485898356    2.0531865056
 C    1.5306667893   -1.5095453553   -0.2911377329
 H    0.7651917991    2.1383993548   -0.2547456787
 H   -0.9010955720    1.8790047760   -0.7825671007
 H   -0.5373995541    1.9535948498    0.9409309973
 H   -0.8836853784   -0.4306054214    0.1731586088
 H    0.2721654634   -0.8171053698   -2.1741611680
 H    2.8649258579   -0.7357689347   -1.9371963693
 H    3.1486330175   -0.2258849317    1.6345501829
 H    2.1605254786    1.2614035616    1.5373128783
 H    0.3539035914   -0.5875738847    2.6637375173
 H    1.6825159142   -2.5798914196   -0.2729380110