18

 O    0.1308124197   -0.0131829868   -0.0715342393
 C    0.0275016666    1.1624322289    0.1222765629
 C   -1.0618832768    2.2307789407    0.0424185349
 C   -0.8009456205    3.0173266601    1.3608551918
 C    0.7846968155    3.0942994520    1.3758376857
 C    0.9951578296    2.3973761661    0.0419031392
 C    1.9587417292    2.3195239905   -1.1455101390
 C    0.6616436602    2.3983593218   -2.0194852426
 N   -0.0848505250    2.9821601224   -0.8364529321
 H   -2.0920367176    2.0653648287   -0.2698576248
 H   -1.2468229341    4.0117865542    1.3046600540
 H   -1.2082744790    2.4921346804    2.2278833194
 H    1.1382216664    4.1275454796    1.3672698219
 H    1.2258458777    2.5715082727    2.2280705009
 H    2.5969191720    3.1991251161   -1.2533784311
 H    2.5552634293    1.4100104503   -1.2243253853
 H    0.6669185293    3.0895752567   -2.8628921306
 H    0.3144847278    1.4143277854   -2.3516129661