19

 C    0.0579974496    1.4750253461    0.0962031337
 C    1.3691441698    0.7604458883   -0.0584201883
 C    1.7506090056    0.0445305240    1.2436780716
 C    0.4008089296   -0.7256983047    1.2042282513
 O    0.6279771750   -2.1044232635    0.9927346579
 C   -0.4564084586   -2.7624335753    0.3531360976
 C   -0.9308783061   -2.0705017379   -0.9024404147
 C   -0.6687358531   -0.7810931967   -1.1301865916
 C    0.0285488106   -0.0145116277   -0.0994502281
 H   -0.2295651245    1.9087778959    1.0531825235
 H   -0.2620093825    2.0565192246   -0.7639205542
 H    2.0416227457    0.9797438552   -0.8790345835
 H    2.5744786670   -0.6611931779    1.1262736189
 H    1.9352679146    0.6823986664    2.1141467437
 H   -0.2903985951   -0.5723763937    2.0484675860
 H   -0.0886997863   -3.7666090940    0.1137203816
 H   -1.2987205628   -2.8943744068    1.0567435910
 H   -1.4858187922   -2.6726118121   -1.6157867848
 H   -0.9758644863   -0.2903307101   -2.0499039715