19

 O    0.1065032611    1.4156927942    0.0037944844
 C    0.0456044584   -0.0042040747   -0.0225638439
 C   -1.4164294254   -0.4148427153    0.0605127123
 N   -2.1603682265   -0.0389453428   -1.1255855370
 C   -2.5321750788    1.3769069272   -1.3294488541
 C   -3.8757936831    0.8865486588   -1.9453018059
 C   -3.5711267035   -0.4530433524   -1.2131976302
 C   -5.0949452402    1.5955437365   -1.6096185969
 N   -6.0657811649    2.1601580591   -1.3342154826
 H    1.0153428321    1.6848721493   -0.1563446555
 H    0.4773460308   -0.4063905039   -0.9505372709
 H    0.5905410325   -0.4413701010    0.8287847382
 H   -1.4635827890   -1.5063074198    0.1572016941
 H   -1.8558249907    0.0179392915    0.9799319288
 H   -2.6902201636    1.9264540100   -0.3907899266
 H   -1.8627182727    1.9509643985   -1.9717518818
 H   -3.8001783650    0.7727075125   -3.0286425656
 H   -3.7562551389   -1.3810765144   -1.7623580055
 H   -4.0809905827   -0.4982826234   -0.2379807513