19

 C   -0.0888600690    1.5538435255   -0.1053787378
 C   -0.0404177862    0.0511138162   -0.0243517457
 C    0.4293337337   -0.9475661384   -1.1110200615
 C   -0.0165833098   -1.8395243434    0.0902204879
 C    0.8825110480   -3.0223637441    0.4925120309
 C    1.9096886366   -1.8881177642    0.9204812011
 O    3.0848788955   -1.8780739120    1.1104082889
 C    0.7237367117   -0.8594469125    1.0148937384
 C   -1.2784704603   -0.9326009212    0.2095771886
 H    0.9097725775    1.9632837152   -0.2891745296
 H   -0.7438989436    1.8798717064   -0.9211738667
 H   -0.4668387056    1.9886919490    0.8258585138
 H   -0.1774576153   -1.0204426578   -2.0181387922
 H    1.4972170524   -0.9350873539   -1.3497408207
 H    0.5420336162   -3.5576308359    1.3856605420
 H    1.2044590831   -3.7414378756   -0.2645099435
 H    0.3660465631   -0.8088533348    2.0511664059
 H   -1.7584564933   -0.8855577792    1.1908054961
 H   -2.0155578048   -0.9715976192   -0.5982237060