23

 C   -0.3474136328    1.4055623535    0.0847026091
 C    0.0143244596   -0.0754229549    0.1971710595
 C    0.5896070591   -0.6884853455   -1.1173553640
 C    1.7740470899   -1.5921567030   -0.6924390644
 C    1.6321546638   -1.7668559399    0.8382365838
 C    0.6481803509   -2.8902511185    1.1981484260
 O    2.8673246052   -1.9965405991    1.4990682863
 C    1.0866587850   -0.3880150792    1.2680177776
 O    2.1710268539    0.5282174912    1.2137223844
 H    0.5274240962    2.0013168486   -0.1954881150
 H   -1.1102580713    1.5617743746   -0.6847195875
 H   -0.7481620905    1.7999443042    1.0265208017
 H   -0.8951715673   -0.6193420614    0.4777282147
 H   -0.1826446886   -1.2490574254   -1.6525646889
 H    0.9279696290    0.0996537892   -1.7963575430
 H    1.7905263377   -2.5524238845   -1.2184140521
 H    2.7269596704   -1.0904099705   -0.8753401216
 H    1.0630345699   -3.8556696350    0.8839488531
 H    0.4864729931   -2.9269040380    2.2795665924
 H   -0.3207035973   -2.7812151590    0.7029095065
 H    3.1803117554   -2.8669349616    1.2320419974
 H    0.6632237399   -0.4231611538    2.2826831731
 H    1.8515403189    1.3778203481    1.5305949110