20

 O   -0.0942328086    1.3388687773    0.6363911414
 C   -0.0530999680    0.0221978743    0.1085384916
 C   -1.4384173928   -0.5684342398    0.0052969722
 C   -2.0906737244   -1.2054684170    1.1773551690
 N   -1.6343820374   -2.0298070875    0.0448616103
 C   -2.7241092556   -2.3424449917   -0.9094524677
 C   -3.4535172468   -1.0254181653   -1.2556898511
 C   -2.3610585851    0.0399940768   -1.0402263963
 O   -2.8223019340    1.3109999533   -0.5801585610
 H   -0.8879611714    1.7623517217    0.2844980438
 H    0.4284965915    0.0063666154   -0.8850187936
 H    0.5642187374   -0.5837630925    0.7790467983
 H   -1.5114966469   -1.3323598679    2.0869546476
 H   -3.1561380278   -1.0671111150    1.3369723681
 H   -2.2578428889   -2.7731377547   -1.8020334054
 H   -3.3870702114   -3.1025655200   -0.4853256279
 H   -3.8545992656   -1.0256517346   -2.2725415455
 H   -4.2852139144   -0.8212742337   -0.5754018721
 H   -1.7795477799    0.1761557430   -1.9658271980
 H   -3.2484977998    1.7666272082   -1.3132387239