20

 C   -0.3229471828    1.4635779066    0.0819765369
 C    0.0079744707   -0.0089569984    0.0293916292
 C    1.3928872495   -0.4792560543   -0.3012705675
 C    0.8583456631   -0.6678182419    1.1151146352
 C    1.4005701981    0.0937620938    2.2007632334
 C    1.8506726962    0.7276523050    3.1253429926
 C    2.3934072123    1.4533369870    4.2381611761
 C    1.9302279685    2.8465950703    4.5192320001
 N    1.5422844240    1.7570426256    5.4187526776
 H    0.5093881946    2.0383504675    0.4972116739
 H   -0.5372629366    1.8496976988   -0.9204222990
 H   -1.2013970024    1.6502355915    0.7091161989
 H   -0.7991552088   -0.6407925265   -0.3318156190
 H    1.5218056073   -1.3688661657   -0.9076290269
 H    2.1626945678    0.2733516177   -0.4315547750
 H    0.5742049626   -1.6843798400    1.3732900309
 H    3.4138848474    1.1978025847    4.5131212188
 H    2.6315611821    3.5619297052    4.9396503482
 H    1.1872961272    3.2680829463    3.8487437175
 H    0.5895387592    1.4679237366    5.2092606081