27

 C   -1.6704453106   -0.4886518812    0.0218264044
 C   -0.1466408122   -0.3148364078    0.0251966474
 C    0.5984986710   -0.6863941614    1.3391034474
 C    0.5346899512   -2.2101011160    1.5633485512
 C    2.0752966134   -0.2171117174    1.2409398626
 C    2.8631503176   -0.6812314386    0.0089678768
 C   -0.0926415012    0.0284696741    2.5343818432
 C    0.5711221047   -0.1494562406    3.9028527528
 O   -0.1709613311    1.4168460960    2.2010779621
 H   -2.1543092819    0.2167108416    0.7026995638
 H   -2.0664515458   -0.2968612422   -0.9807410367
 H   -1.9769327343   -1.5020061569    0.3018049200
 H    0.2751068783   -0.9238375468   -0.7822183492
 H    0.0821494960    0.7273964174   -0.2182964390
 H    0.8889847403   -2.7491355921    0.6796772648
 H    1.1565874703   -2.5231039993    2.4077726978
 H   -0.4873346679   -2.5488788328    1.7623938159
 H    2.0822369550    0.8774914283    1.2792767428
 H    2.6108036231   -0.5613231706    2.1338656464
 H    2.8773848417   -1.7719419170   -0.0861668898
 H    2.4572789207   -0.2708554657   -0.9198147387
 H    3.9036245245   -0.3486375027    0.0833092031
 H   -1.1113486315   -0.3846326103    2.6071740221
 H   -0.0304963389    0.3513399764    4.6714993834
 H    0.6422323635   -1.2023491056    4.1890565275
 H    1.5716413117    0.2894438983    3.9251777929
 H   -0.5358104375    1.8828999628    2.9593346949