16

 C    0.0525521773   -3.7572609840   -0.0171531614
 C    0.0378505159   -2.5495274276   -0.0137791134
 C    0.0212838084   -1.1904852491   -0.0102946968
 C    0.0064077178    0.0212983944   -0.0071459724
 C   -0.0116305450    1.4564390873   -0.0032172127
 C   -0.6560914550    2.4363680042    1.0181489648
 N   -0.0364944916    3.4079814695    0.0023022303
 C    1.1738308963    2.4624140773    0.0378221523
 C   -0.5907160688    2.4430801622   -1.0569788752
 H    0.0654030834   -4.8189412466   -0.0198456411
 H   -1.7471108164    2.4781681937    1.0601613467
 H   -0.2097140513    2.4949584578    2.0136895077
 H    1.7541830597    2.5229072924    0.9615917623
 H    1.8118733059    2.5287872739   -0.8466585157
 H   -0.0826047661    2.5078844014   -2.0221234872
 H   -1.6769883504    2.4849653032   -1.1671641081