21

 C    0.2137384006    1.3762550691    0.2271285410
 C    0.2422395010   -0.1508190079    0.1084197181
 C    0.5797485250   -0.6127912007   -1.3125985621
 C    2.0698633325   -0.4080534823   -1.7377890915
 C    2.3212281936   -1.9373092982   -1.6678476729
 O    3.0648508926   -2.3942184326   -0.5578661318
 C    0.7639967115   -2.1432443801   -1.5724911896
 C    0.3066979048   -3.2227455369   -0.6321270270
 O   -0.4074116243   -3.0842147240    0.3299146783
 H    1.1749681447    1.8251694550   -0.0465523014
 H   -0.5491652850    1.8065522087   -0.4314479254
 H   -0.0172768159    1.6870715035    1.2504323510
 H    0.9704740003   -0.5593700559    0.8228988170
 H   -0.7206397069   -0.5716594499    0.4076341343
 H   -0.1365985102   -0.1567465351   -2.0031637128
 H    2.1913456991   -0.0015023113   -2.7449221492
 H    2.6919148336    0.1783899724   -1.0543207835
 H    2.7995118565   -2.3904374342   -2.5386603781
 H    2.7783753725   -1.9151449950    0.2274218900
 H    0.3840280919   -2.4207251442   -2.5649888615
 H    0.7023869619   -4.2287008105   -0.9036282329