23

 C   -0.3953355679    1.7463846592   -0.3100867141
 C   -0.1626300323    0.2394351835   -0.1449142948
 O    0.7965029125    0.0056534977    0.8794661824
 C   -1.4562412774   -0.6098350889    0.0684235836
 C   -1.0626547812   -2.0582518531    0.4172765418
 C   -2.3399442339   -0.0366585161    1.1868194904
 O   -1.5613538409    0.0998994237    2.3781778980
 C   -2.3119535119   -0.6113879695   -1.2203479820
 O   -1.6353915456   -1.1130945490   -2.3602239426
 H    0.5657366780    2.2297335104   -0.5040301234
 H   -1.0653700937    1.9821181333   -1.1427615269
 H   -0.8069627431    2.1858505092    0.6044987558
 H    0.2988090585   -0.1386490120   -1.0631978996
 H    0.3492203862    0.2049400043    1.7124074644
 H   -0.5661624810   -2.1059136450    1.3859979615
 H   -1.9497362292   -2.7028780255    0.4499978818
 H   -0.3625205065   -2.4663473518   -0.3189907076
 H   -2.7476249237    0.9386617783    0.8847474943
 H   -3.1919624119   -0.7106677469    1.3650566093
 H   -2.1013836575    0.5176666030    3.0548673806
 H   -3.2392294790   -1.1777216238   -1.0323035875
 H   -2.6079344157    0.4084357873   -1.4847066839
 H   -1.4574386826   -2.0472739485   -2.2140464914