13

 N    0.0806179952    1.4159404165    0.0730852583
 C    0.0179837557    0.0200769174    0.0334315806
 N   -1.1209127080   -0.5663801923    0.1480287168
 O   -1.1149013625   -1.9439484180    0.1848408960
 C    0.0544333906   -2.7044402046   -0.0426418200
 O   -0.0991101919   -3.8858741765   -0.1434193926
 N    1.2610070656   -2.0425496407   -0.0882236344
 C    1.2617617720   -0.7481373919   -0.0364360038
 N    2.4252829508   -0.0548809097   -0.0655392779
 H    0.5405031394    1.8134962127   -0.7396037301
 H   -0.8463364036    1.8153064728    0.1773008565
 H    3.2709611467   -0.5989597156    0.0229436510
 H    2.4278655999    0.8793944497    0.3128248398