19

 C   -0.0994244426    1.4631226926   -0.0009960109
 N   -0.0042048843    0.0101736486   -0.0127108417
 C    1.1107654354   -0.5084553711   -0.8862141175
 C    0.7503910813   -1.9236961870   -1.3317281703
 C    0.9604705556   -2.7120052389   -0.0541374472
 C    0.7082709648   -2.0612864265    1.2582436781
 C    0.7441084621   -0.5245531316    1.1553394532
 C    2.0456026287   -0.7290747891    0.3636881473
 N    2.1242928335   -2.2072748389    0.7109395251
 H    0.8561756436    1.9834483765    0.1994792699
 H   -0.4730905783    1.8107615301   -0.9697295557
 H   -0.8173630908    1.7735024861    0.7655358999
 H    1.4213884685    0.1707237763   -1.6823259930
 H   -0.2749072646   -1.9695632713   -1.7064115926
 H    1.4327564350   -2.2919781925   -2.1070402168
 H    0.8903936366   -3.7956656090   -0.0821657620
 H    0.3794782241   -2.6246850915    2.1256088934
 H    0.6628877653    0.0231877090    2.0950671454
 H    2.9751352662   -0.1783502618    0.4842723255