18

 C    0.4511123770    1.1792506725    0.6620881161
 C    0.0740999588   -0.1463203569    0.0831132829
 C    0.5365909200   -0.8465777573   -1.2221596884
 C   -0.2587189954   -1.8566323436   -0.3706092743
 O    0.4901276609   -1.3871355486    0.8232537381
 C   -1.3457587365   -0.7758833838   -0.1206634790
 C   -2.3486817628   -0.8893656286    1.0218992690
 N   -1.8461338031   -1.2365743632    2.2362033549
 O   -3.5286347165   -0.6586354628    0.8241106556
 H    1.5369645653    1.2539669862    0.7725093742
 H    0.1110355657    1.9842177078    0.0035014899
 H   -0.0146876053    1.3146640204    1.6425093285
 H    0.1018573114   -0.5101968436   -2.1657608919
 H    1.6080807468   -1.0408227152   -1.2829469440
 H   -0.3771153936   -2.9325699630   -0.4921199986
 H   -1.8902765017   -0.4378374991   -1.0033454761
 H   -0.8728075457   -1.4932020950    2.3110317170
 H   -2.4949636649   -1.3787293664    2.9926404060