18

 C   -0.3823340124    1.0739799942    0.2340301005
 O    0.1616986932   -0.2181518400    0.0429849968
 C    0.7814033980   -0.4241341102   -1.2140113664
 C    1.5940215841   -1.7336624557   -1.1489565603
 C    0.6983991621   -2.8282376209   -1.7741876455
 C   -0.2882863641   -2.0410508353   -2.5891509416
 C   -0.2343606131   -0.7283404463   -2.3229833850
 C   -1.0348935367    0.2688764585   -2.9407908327
 N   -1.6633666234    1.1068157111   -3.4376996436
 H    0.3733470552    1.8559014878    0.0634170522
 H   -1.2387398152    1.2712020862   -0.4230768904
 H   -0.7162492679    1.1252690892    1.2730036890
 H    1.4049160680    0.4478464937   -1.4596245885
 H    2.5062560578   -1.6217252080   -1.7412599886
 H    1.8817191185   -1.9405569062   -0.1171020136
 H    1.2635658210   -3.5391951205   -2.3863018419
 H    0.1721533160   -3.4243624710   -1.0168376808
 H   -0.9730674811   -2.4950284766   -3.2965889495