17

 N   -0.1006512292    1.4842048766    0.0144157954
 C   -0.0513383312    0.0680750972   -0.0572101382
 C    0.6975556740   -0.8203659683   -1.0721463309
 C   -0.4911818706   -1.8322906395   -1.0449754728
 C   -1.2228023771   -0.9360260960   -0.0422782405
 C   -0.3363856001   -0.7468916472    1.1798227937
 O    0.5972557581   -1.7063536934    1.5857459530
 C   -0.9550541107   -0.0420479579    2.2857603031
 N   -1.4380677130    0.4474856607    3.2153327203
 H    0.7388404119    1.8697885664    0.4356223417
 H   -0.2090230017    1.8968996996   -0.9059205141
 H    0.7879922602   -0.3190249312   -2.0392405222
 H    1.6767898046   -1.1919985399   -0.7635911117
 H   -1.0130455115   -1.8994183041   -2.0010922428
 H   -0.2542085100   -2.8394602941   -0.6954517103
 H   -2.2890365382   -0.7555123423    0.0210335740
 H    0.1285331145   -2.4037830865    2.0590868324