16

 O   -0.0065838708    1.4207123056   -0.0325682168
 C   -0.0295814930    0.0068342991   -0.0807100212
 C   -1.4368187914   -0.4799157910    0.0292512704
 C   -2.5448112294    0.2675679035    0.0794900857
 C   -3.7557709698   -0.6029826572    0.0759034256
 O   -3.8726728421   -1.4188142948   -1.1185515676
 C   -3.2798247373   -1.9958892468    0.0440387070
 C   -1.7550194701   -1.9676032877    0.0519988533
 H    0.9037142187    1.7096636005   -0.1400888684
 H    0.4083182147   -0.3731607874   -1.0211708060
 H    0.5715583457   -0.4345618466    0.7351222862
 H   -2.5668334240    1.3482315679    0.0769989114
 H   -4.7013066088   -0.2933219075    0.5102064086
 H   -3.8210857099   -2.8295831778    0.4835123471
 H   -1.3369335016   -2.4974134709   -0.8130433968
 H   -1.3534910408   -2.4558520587    0.9501969015