19

 O    0.1423772872    1.3471157719    0.2632039691
 C    0.0071668230    0.0023778517   -0.1749439537
 C   -1.4155264127   -0.4981337699   -0.0651980224
 C   -1.8683672294   -1.0868917849    1.2598219369
 C   -1.6535662355   -1.9844125511    0.0676232126
 O   -2.7804476258   -2.5657392996   -0.5298408159
 C   -3.3608442089   -1.7621534299   -1.5291356352
 O   -3.6344515554   -0.4657960165   -1.0775411924
 C   -2.4282142826    0.2683068581   -0.9028002141
 H   -0.1533563939    1.3823973704    1.1794693977
 H    0.3312498693    0.0049098411   -1.2222286120
 H    0.6837926762   -0.6706852445    0.3753616156
 H   -1.1573762609   -1.1335365494    2.0792475768
 H   -2.9020860545   -0.9333233600    1.5484632553
 H   -0.7973899512   -2.6548242432    0.0673356623
 H   -2.7006158164   -1.7171373826   -2.4149064609
 H   -4.3118692521   -2.2315385169   -1.7870681581
 H   -2.7036894104    1.2169590581   -0.4364567033
 H   -1.9836274260    0.4908678472   -1.8873195382