19

 O   -0.1347265313    1.3054089157   -0.2661291496
 C   -0.0744050760   -0.0772795385   -0.0471451912
 C   -0.4723576477   -0.6729951020    1.2848128266
 C   -1.3837743235   -0.7785399429    0.0948381854
 C   -2.7262589513   -0.0936327738   -0.1840558343
 C   -2.8389697152   -0.9774398036   -1.4510794024
 O   -2.2938785751   -0.3714007950   -2.6194959933
 C   -1.7874821854   -1.9523430909   -0.8226661497
 O   -0.8470661296   -2.4945551013   -1.7003490906
 H    0.6484250095    1.7103414453    0.1207777405
 H    0.6926732746   -0.6036572407   -0.6148700893
 H    0.0552380064   -1.5573533416    1.6296104154
 H   -0.7705273938    0.0192173122    2.0667044056
 H   -3.4926015864   -0.3372587281    0.5578039448
 H   -2.7131314849    0.9876542448   -0.3426605585
 H   -3.8147243092   -1.3825524951   -1.7271856823
 H   -1.7432284047    0.3722141675   -2.3461643923
 H   -2.2582904268   -2.7676324653   -0.2620218591
 H   -0.8621403595   -1.9058889968   -2.4709085658