16

 C   -0.3917800215    1.4717490952   -0.0281692622
 C    0.1733325743    0.0494210626    0.0850205731
 C    0.7909164355   -0.4546217933   -1.2039272917
 C    0.6255807928   -1.8911175336   -1.6054980810
 N   -0.0612076000   -0.8453948553   -2.3556360515
 C    2.0647661386    0.1907349652   -1.6462952366
 O    2.7265743483    0.9332556636   -0.9644407548
 H    0.4000897687    2.1842164132   -0.2711054075
 H   -1.1595147445    1.5369253812   -0.8068661605
 H   -0.8478982686    1.7813010334    0.9166324352
 H    0.9416767991    0.0244286921    0.8651688429
 H   -0.6170210312   -0.6457857459    0.3936561892
 H    1.4141922967   -2.4048400550   -2.1492636580
 H    0.0633105435   -2.5183434840   -0.9186088108
 H   -1.0378507145   -0.7901716622   -2.0751331176
 H    2.3641603528   -0.0865970772   -2.6813470682