18

 C    0.0551289553    1.4712201621    0.0253477580
 C   -0.0729124101   -0.0104488838    0.0528809877
 C   -1.1293131773   -0.8659423565   -0.0429784157
 C   -2.5865701575   -0.5763099089   -0.2216644378
 C   -0.5132346935   -2.1531210557    0.0658941028
 C   -1.1729539240   -3.4985075730   -0.0074509705
 O   -1.8554263220   -3.6921569866   -1.2425437591
 N    0.7875509164   -2.0677968452    0.2053938823
 O    1.0745225789   -0.7080343475    0.2038857326
 H    0.7512972535    1.7900484665   -0.7572168701
 H   -0.9155818085    1.9334841940   -0.1642920162
 H    0.4360026473    1.8519151106    0.9791566611
 H   -3.0147980426   -1.2357368415   -0.9814901538
 H   -3.1496437684   -0.7423149301    0.7048207589
 H   -2.7566087674    0.4598817485   -0.5264609562
 H   -0.4196335289   -4.2755849514    0.1757140529
 H   -1.9428324261   -3.5873319242    0.7660561675
 H   -1.1976300751   -3.6385392172   -1.9441624143