18

 O    0.0170664823    0.1097206002    0.8451495997
 C    0.0292778578    1.1443859294    0.2368394124
 O   -1.1107992585    1.7792534383   -0.1980039765
 C   -1.6288751287    2.7905517665    0.6767579515
 C   -0.8040821833    4.0789346815    0.6764736710
 C    0.6438457611    3.8759619054    1.1608681236
 C    1.5087382613    3.1498153079    0.1476336062
 C    2.3613947857    1.9790600371    0.5587967154
 N    1.1656124008    1.7888204475   -0.2287549679
 H   -2.6404149137    2.9865109738    0.3134033046
 H   -1.7080654489    2.3832380214    1.6946142744
 H   -0.8066804485    4.5102831790   -0.3317067650
 H   -1.3119916738    4.7956791842    1.3332225416
 H    1.1048661043    4.8455155692    1.3792322293
 H    0.6326491921    3.3160888887    2.1053695314
 H    1.8510548241    3.7609388250   -0.6865994177
 H    3.2990126224    1.7802465859    0.0475459500
 H    2.3268922335    1.6671576389    1.5999185860