21

 C   -0.1299818054    1.6532212618   -0.1587766781
 C   -0.3643600433    0.2039026757   -0.5803413131
 C   -0.9464136865   -0.6549586836    0.5318679792
 O   -1.0362487197   -0.2566627232    1.6692834438
 C   -1.4687525011   -2.0729905145    0.1485915702
 C   -0.5352550073   -2.7802819231   -0.8467191209
 C   -1.6856626132   -2.8991207011    1.4249766382
 C   -2.8341264135   -1.8151720779   -0.5006326244
 O   -3.0368057029   -1.7729313019   -1.6862950274
 H    0.3171636386    2.2223233665   -0.9782840222
 H   -1.0689441828    2.1370631547    0.1237848178
 H    0.5352611090    1.7045996331    0.7061414884
 H   -1.0254860040    0.1357611607   -1.4534470008
 H    0.5766169175   -0.2622469143   -0.9017036520
 H    0.4815285004   -2.8463328055   -0.4481708249
 H   -0.8923992415   -3.7983841673   -1.0274047735
 H   -0.5092741188   -2.2696952066   -1.8100064525
 H   -2.3462116470   -2.3801680869    2.1221724605
 H   -2.1190059452   -3.8741985232    1.1809854389
 H   -0.7344115150   -3.0639365747    1.9377357524
 H   -3.6547855283   -1.6444996789    0.2312911004