17

 O    0.4364632705    0.2189504133    1.2151941399
 C    0.2430889491    1.1875133603    0.5119383580
 N    1.1769497565    1.7507735271   -0.3044471556
 C    2.5266076339    1.2033648930   -0.4008824926
 C    2.9289091694    1.1380260029   -1.8156182311
 N    3.2522063839    1.1213296147   -2.9245917274
 C    3.5550228630    1.9600042013    0.4254162905
 C    3.6228929649    1.6898986513    1.9063481391
 C    4.7283471487    1.2092575015    1.0013685964
 H   -0.7261924751    1.7173811295    0.4588107140
 H    0.9365424360    2.5651889757   -0.8472777129
 H    2.4493152261    0.1812191270   -0.0132089324
 H    3.7338007776    2.9770590105    0.0896061385
 H    3.8221647112    2.5292844390    2.5625492779
 H    2.9336783571    0.9558489625    2.3084460905
 H    4.7970274995    0.1448233461    0.8028806327
 H    5.6858253577    1.7156970044    1.0326076547