18

 C   -0.2639764227    1.5130765980    0.1472090157
 C    0.0100079718    0.0200384450    0.0068285013
 C    0.7779381259   -0.4415838733   -1.3005665516
 N    1.9107839217   -0.7928396895   -0.4212955189
 C    1.2261526869   -0.5395683472    0.7464112073
 N    1.7223525515   -0.9300308791    1.8518220321
 C    2.9825155858   -1.5879399328    1.4120457162
 C    2.9982722841   -1.6093174997   -0.1497040198
 N    3.7454598126   -2.1722910128   -1.0064539605
 H    0.6403404155    2.0988317350   -0.0450372767
 H   -1.0358763381    1.8327260090   -0.5596653461
 H   -0.6100664631    1.7473250508    1.1578013055
 H   -0.8950817551   -0.5624808047    0.1966894697
 H    0.3399231883   -1.3014547824   -1.8145401668
 H    1.0068683093    0.3478358348   -2.0207212547
 H    3.8533925827   -1.0388403386    1.7894064792
 H    3.0370060403   -2.6048175311    1.8146531508
 H    4.4689655925   -2.7211153414   -0.5428972527