21

 C   -0.1830497262    1.5446440020    0.0030950004
 C    0.1053624583    0.0455230105   -0.0054583210
 C    0.9669584481   -0.4488123367   -1.1833253867
 C    1.6429672840   -1.7236717508   -0.6755403408
 O    2.3242600384   -2.4777013428   -1.3217471790
 C    1.3180456023   -1.8843318256    0.8195250342
 C    2.4394134086   -2.5405279080    1.6183123319
 C    0.8708166906   -0.4691326578    1.2347430859
 O    1.9845588493    0.3956079907    1.4323646422
 H    0.7463091690    2.1152827533    0.0683127553
 H   -0.7113609232    1.8440770997   -0.9076847943
 H   -0.8080177698    1.8214176486    0.8590263213
 H   -0.8481367904   -0.4990031807   -0.0241964855
 H    0.4153030575   -0.6351113224   -2.1084446011
 H    1.7592884036    0.2722752672   -1.4180998437
 H    0.4250867824   -2.5287023048    0.8545280091
 H    3.3255392042   -1.8983729208    1.6487384885
 H    2.1306605332   -2.7623294875    2.6448477906
 H    2.7380173488   -3.4740304199    1.1352018263
 H    0.2295230149   -0.4794174259    2.1277573373
 H    2.4758840263    0.0862972017    2.1989549592