13

 O    0.3053054620    1.0720780636   -0.6254882658
 C   -0.0000151931   -0.0062304997    0.2397170498
 C   -1.3994895097   -0.4973183595    0.0448392683
 C   -2.2663137601   -0.4240481143   -1.0018626749
 C   -3.4685764226   -1.0798752544   -0.5751963289
 C   -3.2377326603   -1.4997473104    0.6943354484
 O   -1.9827116114   -1.1477669838    1.0905818662
 H   -0.3553043645    1.7567970251   -0.4738231735
 H    0.7301665989   -0.7890778585   -0.0000324926
 H    0.1458508421    0.2482131128    1.3014246763
 H   -2.0657179688    0.0301613622   -1.9588890638
 H   -4.3771932052   -1.2155186327   -1.1405626857
 H   -3.8253994074   -2.0308953804    1.4245142563