21

 C   -0.1108930877    1.5455013057   -0.0492250071
 C    0.0117540232    0.0238059651    0.0404797054
 C    0.9052481382   -0.6124773171   -1.1047490478
 C    1.8968649256   -1.3157314593   -0.2017231673
 C    3.1411664584   -2.2076868712    0.0176047930
 C    2.6483285768   -1.8407819835    1.4548644897
 C    2.2519906439   -0.3985979474    1.0167571822
 C    0.7411861979   -0.4735705988    1.3273616073
 C    1.1517642517   -1.9296778866    1.0315660886
 H    0.8745049858    2.0245589634   -0.0195491036
 H   -0.6002123249    1.8527413658   -0.9796669287
 H   -0.6995331400    1.9454256342    0.7838562438
 H   -0.9940843683   -0.4125856946    0.0030289012
 H    0.3356323069   -1.2897677873   -1.7483659244
 H    1.3592021970    0.1566878286   -1.7382747088
 H    3.0578969342   -3.2585139258   -0.2793397901
 H    4.1083506960   -1.7977137219   -0.2919790406
 H    3.0887084939   -2.1467122438    2.4047505797
 H    2.9097845870    0.4717573583    0.9655942372
 H    0.3129706255   -0.1575521245    2.2822327251
 H    0.5297108687   -2.8270697192    0.9929327150