16

 C   -0.5174631385    1.3865292937    0.0104808746
 C    0.0706123331   -0.0165787296   -0.0340265024
 C    1.4110325274   -0.2308136817   -0.8141429564
 C    1.9700621589   -0.9902078439    0.4085361098
 O    2.9311918780   -1.6710001103    0.6140702017
 C    0.7632225454   -0.5625547946    1.2328937174
 C    0.7785282552   -0.0399813025    2.6108622881
 O    0.1652428919   -1.2854456388    2.2870397904
 H    0.2285548537    2.1174476369    0.3413561205
 H   -0.8730356404    1.6945789178   -0.9778863690
 H   -1.3683276987    1.4368428196    0.6980967561
 H   -0.6828272824   -0.7363880662   -0.3700424951
 H    1.3640166394   -0.8086695855   -1.7396794744
 H    1.9613000372    0.6964434954   -1.0063097258
 H    1.6949743727   -0.1068322440    3.1946906584
 H    0.0964334171    0.7659090537    2.8770155063