19

 O    0.1989694190    1.4046518109   -0.1790302081
 C    0.0951037988   -0.0077390001   -0.0288400226
 C    0.6460601525   -0.6658992143   -1.3036328561
 C   -0.2166472736   -1.9192408038   -1.4310817290
 O   -1.5132406532   -1.5276880808   -0.9853719358
 C   -1.3748481330   -0.5586332148    0.0499786391
 C   -1.5405124992   -1.1731090035    1.4635804933
 C   -0.1567244926   -1.0998931558    2.0592398690
 C    0.7172337819   -0.4896815077    1.2589218701
 H    0.0021344569    1.8032616111    0.6755936806
 H    0.4679767917    0.0153771642   -2.1408588425
 H    1.7165056092   -0.8778823127   -1.2458757432
 H   -0.3127805105   -2.2860838434   -2.4565177909
 H    0.1804421077   -2.7378389336   -0.8101222117
 H   -2.1013447374    0.2357024315   -0.1439438029
 H   -2.2721197718   -0.6307892818    2.0765876118
 H   -1.9106159556   -2.2005585946    1.3752009632
 H    0.0769930243   -1.5044067314    3.0391827365
 H    1.7667935051   -0.3187971393    1.4747769391