21

 C   -0.3214917872    1.4824345195    0.5312128795
 C   -0.2090451226   -0.0175842508    0.7852923386
 C    1.2196446293   -0.5092745548    0.9327570248
 O    2.1746715977    0.2302347985    0.8684015166
 C    1.4154574435   -1.9994091878    1.2190183738
 C    1.6355071848   -2.2431502096    2.7199513710
 O    0.4763189197   -1.9102816643    3.4955739017
 C    2.0530524570   -3.6800396770    3.0383556097
 O    2.2102640083   -3.8638470592    4.4265859701
 H    0.1990979649    1.7623074031   -0.3883055044
 H   -1.3688430165    1.7838665929    0.4419470977
 H    0.1344559749    2.0491577455    1.3467862330
 H   -0.7327972284   -0.3122144496    1.7056057922
 H   -0.6855246278   -0.5987619880   -0.0172043385
 H    0.5602379965   -2.5926188001    0.8714053029
 H    2.3065679443   -2.3276793115    0.6746140584
 H    2.4128803431   -1.5625107294    3.0824023843
 H   -0.2495542706   -2.4695149158    3.1909931243
 H    1.2995432202   -4.3742127110    2.6186035145
 H    3.0112083303   -3.9128828340    2.5615547112
 H    1.4879226586   -3.3722378666    4.8386636787