14

 N   -0.0540525025    1.3317848670    0.0876320415
 C   -0.0520717023    0.0628371364    0.0004254110
 N    1.0490500447   -0.8197061502   -0.1416291134
 C    0.7026094415   -2.2497935781   -0.0209041019
 C   -0.7771256282   -2.1171247284    0.0069529206
 C   -1.2079555760   -0.8420557304    0.0103393379
 N   -2.5950932630   -0.8201839604    0.0058942730
 C   -2.9030216513   -2.0758040605   -0.0026780847
 O   -1.8364496733   -2.9527014246   -0.0077435876
 H    0.8948907526    1.7087411430    0.0553031103
 H    1.9343027786   -0.5189367158    0.2353176018
 H    1.0752488966   -2.8294263908   -0.8756699466
 H    1.1116074004   -2.7027372875    0.8935483825
 H   -3.8811738777   -2.5298422796   -0.0027429043