15

 C   -0.0012515727    1.3593469380    0.2404409914
 N   -0.0368024233   -0.0224882482   -0.1989892617
 C   -1.1821713063   -0.7633916528   -0.0723189051
 N   -1.2376355022   -2.0866301216   -0.0845773101
 C   -2.5813523946   -2.3251533461    0.0102326452
 N   -3.0811407621   -3.6138160083   -0.0346973811
 N   -3.3586461858   -1.2598837513    0.0955894710
 N   -2.4198636127   -0.2423936777    0.0440075989
 H    1.0088646560    1.7484204852    0.1009976904
 H   -0.6698278120    1.9715465609   -0.3762332195
 H   -0.2856619213    1.4923028204    1.2952124797
 H    0.7897576320   -0.5720861951   -0.0214669069
 H   -2.4294317285   -4.2970223142    0.3225207437
 H   -3.9993859341   -3.6993183712    0.3766873970
 H   -2.7227813124    0.7144458324    0.0414874170