19

 C   -0.0449459391    1.4906613188   -0.0339923135
 C   -0.0174597548    0.0351212537   -0.0216977613
 C   -0.0045071239   -1.1693478590   -0.0025421228
 C    0.0187679959   -2.6227809656    0.0056833842
 C    0.8493768256   -3.1879500013   -1.1542641663
 C    0.3758050498   -3.3221637128    1.3884597634
 C   -0.9985927223   -3.9966357099    1.3523741462
 O   -1.9789379960   -2.9505412481    1.3306172536
 C   -1.3676872676   -3.3215425721    0.1007433215
 H    0.5795128082    1.9072808662    0.7643135387
 H    0.3241062343    1.8907077505   -0.9850344966
 H   -1.0627402245    1.8691401951    0.1123125282
 H    1.8919829071   -2.8683935985   -1.0715393147
 H    0.8212022282   -4.2830019968   -1.1521336892
 H    0.4617687138   -2.8353808350   -2.1148852089
 H    1.2174231641   -4.0116387036    1.2888669311
 H    0.5359722763   -2.6536534976    2.2356627117
 H   -1.3054582854   -4.9540432371    1.7563407739
 H   -2.0143895298   -3.6147316769   -0.7195323891