20

 C   -0.7141282842    1.2692325308    0.0345761615
 C   -0.0113354999   -0.1046805310    0.0329740618
 C    0.6328578146   -0.3515653441   -1.3322815966
 O    1.1125525868   -1.6906610976   -1.4979751578
 C    2.3967768467   -2.0388629790   -1.2243854388
 N    3.3380223599   -1.5024233104   -0.5816840041
 C    3.2453786810   -0.2566485045    0.1827347585
 C    2.2257082256   -0.2791902471    1.3091784858
 C    0.8966008936   -0.2292957853    1.2308831155
 H    0.0090785752    2.0788545887   -0.1095636614
 H   -1.4648043049    1.3326893385   -0.7601486197
 H   -1.2193384251    1.4439382647    0.9887153856
 H   -0.7917619386   -0.8715899559    0.1440548366
 H   -0.1355501479   -0.2420335414   -2.1037721306
 H    1.4198999904    0.3696793685   -1.5585400852
 H    2.5723318852   -3.0105368213   -1.6883989796
 H    4.2321743649   -0.1031448666    0.6291637824
 H    3.0892103350    0.6081774730   -0.4716293336
 H    2.6561836691   -0.3714379454    2.3035847674
 H    0.3488660527   -0.2652093646    2.1723180724