21

 C   -0.0746689100    1.4455084782    0.1133208642
 C   -0.0462697284   -0.0584615731   -0.0376574077
 C    0.8487702104   -0.6190567371   -1.1685223046
 C    1.1028382898   -2.0698977120   -0.6696400403
 C    0.4100342695   -2.0412006961    0.7103977539
 O    0.5515143929   -0.6735056414    1.1316917141
 C   -1.1205419158   -2.1395198839    0.5693789468
 O   -1.7411014561   -2.2622907837    1.8363166878
 C   -1.4240257470   -0.7717691107   -0.1134600583
 H    0.9378654168    1.8415493279    0.2349897635
 H   -0.5209621299    1.9090404585   -0.7720647304
 H   -0.6671884768    1.7365206394    0.9857538742
 H    0.3649533451   -0.5734661644   -2.1473826153
 H    1.7809812434   -0.0509382846   -1.2247018966
 H    0.6780722700   -2.8336600072   -1.3275071707
 H    2.1693771455   -2.2782021950   -0.5641194039
 H    0.8223777127   -2.7092008670    1.4667880315
 H   -1.4500673743   -3.0021244434   -0.0148721474
 H   -1.3639611572   -1.5617328101    2.3836060083
 H   -2.1866070066   -0.2448728685    0.4661528855
 H   -1.7884846640   -0.8726035259   -1.1390291546