19

 C   -0.3573696124    1.5576380957    0.1408022978
 C   -0.0905644928    0.0588488452    0.1109661532
 C    0.4034777116   -0.5612028741   -1.2061978935
 N    1.7297100523    0.0422000419   -1.4896568827
 C    1.6218994428   -1.1068846277   -0.5529010145
 C    1.2100010520   -0.5307040607    0.8062695668
 C    2.1870431677    0.3998673529    1.4977747563
 O    1.5728784471    0.8553420412    2.7005947315
 H    0.4467807848    2.1032585981   -0.3596909672
 H   -1.2956575866    1.7943198450   -0.3733823381
 H   -0.4290020864    1.9143782677    1.1718837879
 H   -0.9626368341   -0.4880644330    0.4811359195
 H   -0.1930342467   -0.9738165204   -2.0113850080
 H    2.0425114030   -0.3338261433   -2.3841331050
 H    2.1629782365   -2.0258915647   -0.7451538735
 H    0.9280755550   -1.3249844850    1.5035725373
 H    3.1185856010   -0.1498442004    1.7152254483
 H    2.4438767482    1.2343080817    0.8337140079
 H    2.1310478469    1.5403641701    3.0795334761