15

 O    0.1672029089    1.1215288929    0.8072004300
 C   -0.0401881267    0.1037081388   -0.1676073372
 C   -1.4012842291   -0.4021013331   -0.0775021545
 C   -2.5212843968   -0.8457975901   -0.0231465106
 C   -3.8396516392   -1.3548050498    0.0415844879
 C   -5.0005320603   -0.7096007628   -0.3294969466
 N   -6.0116719082   -1.6001887970   -0.0771376381
 C   -5.4382346989   -2.7339553374    0.4266880941
 N   -4.1376064502   -2.6262230644    0.5137710079
 H    1.0811467190    1.4127840469    0.7241798622
 H    0.1356421044    0.4901936031   -1.1854011178
 H    0.6589376224   -0.7358692175   -0.0218899135
 H   -5.1796159081    0.2725592976   -0.7322953414
 H   -6.9931508511   -1.4422333274   -0.2332251452
 H   -6.0227665462   -3.5971026299    0.7083573827