16

 N   -0.0560683829    1.3710385623    0.1093994510
 C   -0.0318256229    0.0084113595    0.0298654239
 N   -1.0866071720   -0.7264304629   -0.0125866912
 C   -0.7115038226   -2.1389464996   -0.0241662293
 C    0.8322227416   -2.2354351040   -0.0190909431
 O    1.2750073905   -2.8746496391   -1.2052740887
 C    1.2334082084   -0.7704392631    0.0324775092
 N    2.4676180621   -0.4521522089    0.0185423628
 O    2.6895791679    0.9319671822   -0.0088928895
 H    0.7835567940    1.8661461748   -0.1364486158
 H   -0.9397986922    1.8071844916   -0.1015352751
 H   -1.1574340125   -2.6455174979    0.8395649606
 H   -1.0989918252   -2.6302162889   -0.9235834519
 H    1.2074363732   -2.7649915394    0.8680014015
 H    2.2253933694   -2.7234615806   -1.2684786893
 H    3.6506472332    0.9911285939   -0.0092090851