17

 C   -0.2737053687    1.3549604308   -0.0226844090
 O   -0.1563542768   -0.0459494071   -0.0768736782
 C    0.8051052488   -0.4782766832   -1.0143100406
 C    0.8412551484   -1.9832614004   -0.9815258999
 O   -0.0181604292   -2.6938257871   -1.8783891232
 C    1.3958396455   -2.8181266018   -2.0587245643
 C    1.9891781729   -2.2941815804   -3.3435275390
 H    0.6761062112    1.8347046417    0.2647240171
 H   -0.5905125644    1.7773107670   -0.9895444059
 H   -1.0300684973    1.5906200579    0.7296657074
 H    0.5523838590   -0.1231172742   -2.0241880583
 H    1.8015713707   -0.0757870671   -0.7553178463
 H    0.8548780180   -2.3843489884    0.0333814903
 H    1.7860422619   -3.7926830943   -1.7560313379
 H    1.5782068743   -1.3206830032   -3.6173141635
 H    3.0768850075   -2.2020863996   -3.2508404575
 H    1.7826913183   -2.9906443507   -4.1628353714