23

 C   -0.2987342566    1.5551978055    1.1046258646
 C   -0.1168434951    0.1003078274    0.7050761968
 C    0.9303123769   -0.3363926616   -0.3856476491
 C    2.2361669783    0.1505831175    0.2514563242
 C    2.1201813525   -0.2158675594    1.5346087157
 C    3.0378786971   -0.0561151469    2.6966617782
 C    0.7405731077   -0.8982143813    1.5671845525
 C    0.8561538973   -1.7776333691    0.2591476287
 C   -0.2835668798   -2.7177532820   -0.1167844486
 H    0.6549277172    2.0409819135    1.3254759233
 H   -0.7866539449    2.1171342688    0.2999225442
 H   -0.9381469568    1.6359900503    1.9912952500
 H   -1.0993626724   -0.3289551428    0.4896044833
 H    0.7673685023   -0.1650099882   -1.4510549336
 H    3.0499289214    0.6599840603   -0.2465689765
 H    3.9628545899    0.4516005784    2.4071884068
 H    2.5699762900    0.5254209420    3.5019256117
 H    3.3069935762   -1.0266981324    3.1337477532
 H    0.3848635166   -1.3056883495    2.5161483488
 H    1.8040453053   -2.3201234960    0.1936872873
 H   -1.2724735741   -2.2545168246   -0.0754503922
 H   -0.1396217316   -3.0982782763   -1.1344974754
 H   -0.2967847075   -3.5840052635    0.5547194162