17

 C   -0.4089002361    1.5828508736   -0.0936854390
 O   -0.0248033219    0.2259629631   -0.2519272863
 C   -0.9858481792   -0.7154320753    0.1409139361
 C   -0.7001609890   -2.0187092077   -0.5523160852
 C   -1.1176135852   -3.1628067755   -0.0271240207
 C   -1.8338638411   -3.1792862549    1.2867177164
 O   -1.5146425763   -2.0710291441    2.1418273210
 C   -1.0281852193   -0.9009341621    1.6715563345
 O   -0.6726283796   -0.0563016953    2.4457639088
 H    0.3882115769    2.1833769371   -0.5375990871
 H   -1.3486500754    1.7901391847   -0.6297130550
 H   -0.5263322440    1.8477721658    0.9603685126
 H   -1.9973318659   -0.3676624655   -0.1505811301
 H   -0.1651258640   -1.9530409499   -1.4931536293
 H   -0.9674771876   -4.1163027069   -0.5227283394
 H   -2.9245153516   -3.2002088813    1.1447313923
 H   -1.5708359904   -4.0694572859    1.8667195406