15

 C   -0.0466636297    1.4259770890    0.0153701104
 N   -0.0008839244   -0.0198153147    0.0674133319
 N   -0.0155583876   -0.7426954560   -1.0486108742
 N    0.0304738960   -2.0118416821   -0.7165625769
 C    0.0798756831   -2.1108419558    0.6340527678
 N    0.1965658083   -3.3264131227    1.2748189580
 C    0.0580267915   -0.8286623689    1.1780227469
 C    0.0820605270   -0.3720321975    2.5021230843
 C    0.0947866052    0.0046734886    3.6481561600
 H    0.8473119321    1.8538680742    0.4769934233
 H   -0.0921609252    1.7073597044   -1.0361805666
 H   -0.9302741293    1.7998257676    0.5396803646
 H   -0.1077581273   -4.1009548366    0.7016766062
 H   -0.1946143221   -3.3542554043    2.2051789197
 H    0.1193636823    0.3351067847    4.6569550645