21

 C   -0.0653915679    1.5176408843    0.1814303222
 C    1.3361551344    2.0852219715    0.0013719418
 C    2.3194891484    0.9510413477    0.2337445891
 C    1.5140787803   -0.3185985177    0.4659006164
 C    0.0813482124   -0.0040656007   -0.0368121139
 O   -0.1288283108   -0.4332010371   -1.3805123969
 C    0.2892047834    0.4345290624   -2.4156334663
 C    1.7639272715    0.8398793877   -2.3750537797
 C    2.2213590789    1.5910587866   -1.1303141655
 H   -0.3838204008    1.6936210202    1.2160171406
 H   -0.8316257237    1.9577023642   -0.4630642286
 H    1.5316248540    3.0795558230    0.3887435082
 H    3.2265960014    1.0986718168    0.8099702707
 H    1.9088044698   -1.2027446965   -0.0446060802
 H    1.4856422536   -0.5440629453    1.5388472648
 H   -0.6630986556   -0.5635229338    0.5361960262
 H    0.0885428626   -0.1147644752   -3.3411820275
 H   -0.3319802311    1.3424069180   -2.4420598273
 H    2.3887802349   -0.0519796004   -2.5146227920
 H    1.9370088730    1.4765947169   -3.2521784263
 H    3.0453973415    2.2695056072   -1.3369238558