18

 C   -0.0501990774    1.6618245401    0.0696090879
 C   -0.0916044245    0.1371442064    0.0963312498
 C   -1.4834660021   -0.4280995672    0.3693801456
 O   -2.4551047957    0.1012405636   -0.5300694411
 C   -2.7306370111   -0.6088328193   -1.6511430331
 O   -3.4925334662   -0.2134238277   -2.4780938851
 O    0.3107505244   -0.4068660877   -1.1682547202
 C    1.6335034116   -0.5498816830   -1.3921259075
 N    2.0428626840   -0.9496678397   -2.5151954276
 H    0.9635831968    2.0146566614   -0.1384435419
 H   -0.7203007901    2.0436790157   -0.7030377757
 H   -0.3621463354    2.0689423455    1.0364960572
 H    0.5741392834   -0.2486501785    0.8828861120
 H   -1.4528008477   -1.5219855899    0.3026886532
 H   -1.8083885326   -0.1471873515    1.3746534323
 H   -2.1911062316   -1.5715937177   -1.6932557093
 H    2.2531049716   -0.3040185160   -0.5180228239
 H    3.0578266127   -1.0243549046   -2.5115112126