20

 C    0.1734859932    1.4658060675   -0.3106668747
 C   -0.0046035306    0.0222732809    0.0852403582
 O    1.1751300963   -0.7792603604    0.2214437585
 C    0.3699533992   -0.5564423497    1.3870062826
 C    1.0014076540    0.1971784680    2.5329201235
 C    1.9967932394   -0.6765111966    3.3076325827
 C    2.6447506261    0.0593173629    4.4722979891
 O    3.5225037851   -0.8436412479    5.1267144914
 H    0.9823601002    1.9461020273    0.2428902762
 H    0.4086955293    1.5354883941   -1.3779678848
 H   -0.7520034345    2.0257073061   -0.1363067050
 H   -0.8093177659   -0.4862916366   -0.4516965428
 H   -0.1852381106   -1.4450842116    1.7004957771
 H    1.5098641207    1.0911746590    2.1583506776
 H    0.2032110537    0.5405022421    3.2059037460
 H    1.4922488369   -1.5687842591    3.6982450493
 H    2.7807239873   -1.0291883227    2.6286935847
 H    3.1875312752    0.9432230972    4.0978153044
 H    1.8648833932    0.4268326798    5.1606231509
 H    3.9490310721   -0.3772283103    5.8512633350