19

 C   -0.1000584205    1.5453463808   -0.0408406865
 C    1.4432039872    1.4587979624   -0.0167331650
 C    1.2995095159    0.0931950227    0.8620726742
 C    1.8129649126   -1.1776749860    0.1060954964
 C    0.9884571172   -0.5452078887   -1.0302405931
 C    0.6505960967   -0.5223654975   -2.5255210912
 O    1.0192243657    0.8916691799   -2.5737353880
 C    1.7553595875    0.7355123480   -1.3243520470
 C   -0.0229018699    0.0173336636    0.0457140791
 H   -0.5055352651    1.9687579272    0.8822918781
 H   -0.5582837708    2.0149329513   -0.9132964608
 H    2.0667731949    2.2917636732    0.3060961564
 H    1.3265392230    0.1892303966    1.9467689514
 H    2.8809490786   -1.3372452190   -0.0678268705
 H    1.3716702299   -2.0672621235    0.5661815978
 H    1.3062242759   -1.1264977902   -3.1670581935
 H   -0.3949582389   -0.6806553816   -2.8089851566
 H    2.8267800787    0.6248594084   -1.5295482625
 H   -0.8523527086   -0.6328262974    0.3253756714