16

 C   -0.1726075850    1.1943831791    0.3972572367
 C   -0.0677017247   -0.2286130848    0.1159294758
 C    0.0164915185   -1.4063341419   -0.1175687648
 C    0.1441668909   -2.8360907212   -0.4091424140
 O    0.9108634969   -3.5312360025    0.5488618944
 C   -0.0064498847   -3.9768643289    1.5394320517
 C   -1.3138814019   -4.1049481503    0.7868411762
 N   -2.3524460481   -4.6940967514    1.1840617103
 O   -1.1494352898   -3.4676784431   -0.4115398047
 H    0.8183514560    1.6475649306    0.5067275528
 H   -0.6928140969    1.7174269014   -0.4121676265
 H   -0.7280413869    1.3740018307    1.3237397562
 H    0.5973647453   -3.0028474646   -1.3904788969
 H    0.3353258110   -4.9320442648    1.9398393057
 H   -0.1051109708   -3.2538471807    2.3608415395
 H   -3.1031650598   -4.6185042673    0.4964456776