19

 C    0.0384129064    1.4857612385   -0.0610216879
 C   -0.0224844509   -0.0156000360   -0.0314045167
 O    0.7778964324   -0.6152449022   -1.0499459131
 C    0.7025627538   -1.9736526017   -0.5882365521
 C    1.3761192448   -1.8505655631    0.7951761761
 C    0.3404955220   -0.8382935697    1.3032072137
 C   -1.0127911418   -1.5605640414    1.1544273123
 C   -0.8027269002   -2.1664955205   -0.2266745435
 C   -1.3688443095   -0.7731661366   -0.0811663463
 H    1.0618829422    1.8350492827    0.1052774464
 H   -0.2990775419    1.8637587957   -1.0315987977
 H   -0.6041989273    1.9101486208    0.7157501186
 H    1.1299747113   -2.6499098928   -1.3259619298
 H    1.3685412460   -2.7798925414    1.3725396781
 H    2.3945884927   -1.4627955423    0.7130797615
 H    0.5461793375   -0.2685429181    2.2070323078
 H   -1.6438822511   -1.9798744348    1.9270952850
 H   -1.4042830267   -2.9868953761   -0.5922419405
 H   -2.3212538899   -0.4385103709   -0.4734431217