9

 N   -0.0139542396   -1.1031777991   -0.0033357937
 C   -0.0130354139    0.0524298921    0.0031055226
 C   -0.0012622708    1.4789796290    0.0109340308
 N   -1.1265505464    2.1877735888    0.0297872451
 N   -0.6535188219    3.4458662498    0.0304584698
 C    0.6979144365    3.4496157072    0.0125447173
 N    1.1504616690    2.2143298741   -0.0002697256
 H   -1.2992066614    4.2198989150    0.0432990328
 H    1.2902729884    4.3518221030    0.0096618208