16

 C   -0.3558778466    1.4444273089   -0.0307306599
 C    0.0936301697    0.0070077922    0.0710749184
 N    0.3965040748   -0.5766533030    1.1796161618
 O    0.2495094231    0.2971358494    2.2557519082
 C    0.1965121940   -0.7789397868   -1.1113673196
 C    0.2719308307   -1.3820492462   -2.1539876992
 C    0.3193570776   -2.1696329894   -3.3743747488
 C   -0.6283479237   -3.3745263062   -3.3262263823
 O   -1.2613222128   -3.7551441715   -4.2717871981
 H    0.4149637823    2.1082338179    0.3730501077
 H   -0.5627028196    1.7161052521   -1.0655366524
 H   -1.2549156280    1.6000104642    0.5736647341
 H    0.5001078793   -0.2557395088    3.0039245892
 H    0.0765262123   -1.5786289674   -4.2632134627
 H    1.3329363612   -2.5737306080   -3.5234687587
 H   -0.6714242143   -3.8826539174   -2.3393855778