18

 C   -0.0178094043    1.4823088718   -0.1390444076
 C    1.3504883567    2.0685041194    0.1143917388
 C    2.4442704763    1.3553555715    0.3809546718
 C    2.4981471724   -0.1491346473    0.4736374094
 C    1.1545330611   -0.7646740267    0.2272265620
 C    0.0414775763   -0.0048378120   -0.0458972435
 N   -1.0191403175   -0.8602663333   -0.2202480801
 C   -0.5958337505   -2.1591417340   -0.0614084673
 C    0.7498161067   -2.1324484324    0.2172156141
 H   -0.7370846454    1.9048528670    0.5817006234
 H   -0.3809428634    1.8120797200   -1.1263499866
 H    1.4160811882    3.1526486050    0.0693488440
 H    3.3840170784    1.8765615399    0.5485647090
 H    3.2459009957   -0.5282412561   -0.2405344781
 H    2.8915717946   -0.4361061465    1.4614417602
 H   -1.9612031561   -0.5812787674   -0.4317168019
 H   -1.2841775386   -2.9831086082   -0.1598998021
 H    1.3751235894   -2.9949734110    0.3943045445