19

 C   -0.3709833151    1.5374691434    0.0134598785
 C   -0.0747640710    0.0433803628    0.0367937334
 C   -1.2926936953   -0.7920776049   -0.3172322563
 O    1.0475936770   -0.2730739160   -0.8603870576
 C    1.9423755432   -0.5308877741    0.2242675722
 C    2.9561148206    0.5136285434    0.4046136992
 N    3.7246322809    1.3540783795    0.6068551695
 C    0.7557458165   -0.4522714315    1.2611438115
 N    0.7882066741    0.3609335011    2.4405886793
 H    0.5314909602    2.1300995960    0.1852585927
 H   -0.7719249365    1.8183775619   -0.9648968729
 H   -1.1067813627    1.7940556785    0.7808535864
 H   -1.6799242546   -0.5110627588   -1.3016716944
 H   -1.0416797905   -1.8563054965   -0.3391417700
 H   -2.0869014243   -0.6348310447    0.4201417848
 H    2.4424718379   -1.5011214749    0.1270808008
 H    0.4596771330   -1.4648220220    1.5441015196
 H    1.2560708780   -0.1113641750    3.2056597469
 H    1.2713508187    1.2401760616    2.2862408163