20

 C    0.0235333753    1.6475417912   -0.1365130601
 C    0.0824049953    0.1459545561    0.0735245341
 N    1.1148268152   -0.6613466674   -0.7556911258
 C    2.1466685673   -0.2187803876    0.2986403068
 C    0.9202535742   -0.5650557874    1.1781947440
 C    0.8096514203   -1.7926974182    0.2401096297
 C    0.7782148286   -0.5203941920    2.6638404997
 C    0.2472975760    0.6500185132    3.3773954343
 O   -0.5621849354   -0.5072627863    3.1740173123
 H    0.9473959460    2.1730364012    0.1156602578
 H   -0.2057996263    1.8572468645   -1.1867286461
 H   -0.7825605900    2.0754901494    0.4683775303
 H   -0.9195484474   -0.2749729264   -0.0604328811
 H    3.0142378932   -0.8820754472    0.3540707037
 H    2.4642483989    0.8208498355    0.2142496806
 H   -0.1752204983   -2.2467858625    0.1029234082
 H    1.5981399934   -2.5483511433    0.2904399005
 H    1.4522845405   -1.1806092418    3.2140682022
 H    0.5533580917    0.8339801015    4.4064447776
 H   -0.0511210787    1.5340257972    2.8170279710