22

 C   -0.0558132143    0.9279376585   -0.9360636881
 C   -0.2233630766   -0.5602849219   -0.6240140961
 C   -1.3888493702   -0.8282317121    0.3500646197
 C   -1.5654684162   -2.2407717553    0.6707716387
 C   -1.6832324948   -3.4100542162    0.9423273417
 C   -1.8471588213   -4.8373597003    1.2391124277
 N   -2.2719801348   -5.7120757271    0.1363637577
 C   -3.2074687363   -5.1850394201   -0.8500399733
 C   -1.7811403235   -5.4272017892   -1.2067825756
 H    0.7740725333    1.0951938678   -1.6290555651
 H   -0.9607110522    1.3429077450   -1.3939954247
 H    0.1485152971    1.5040393054   -0.0266643487
 H   -0.3991083761   -1.1217463595   -1.5486079742
 H    0.6991197895   -0.9618886601   -0.1901758749
 H   -1.2211826474   -0.2651687009    1.2784118043
 H   -2.3180165775   -0.4275517109   -0.0775116970
 H   -0.9011681570   -5.2411554371    1.6208173922
 H   -2.5822238103   -4.9584866672    2.0445829551
 H   -3.9853370583   -5.8741313274   -1.1666762940
 H   -3.5137731855   -4.1452364582   -0.7604013286
 H   -1.1615724177   -4.5445969128   -1.3492497955
 H   -1.4928038997   -6.2973077604   -1.7898857914