15

 O    0.0177440806   -0.0504844423    0.1668471539
 C   -0.0032939761    1.1364272682    0.1260893739
 C   -1.0735391392    2.2500805418    0.0211524069
 C   -0.7281908862    3.0313866491    1.3078940621
 N    0.7743532709    2.9910266624    1.2634748329
 C    1.0195009063    2.2943958510   -0.0028539591
 C   -0.0630327973    2.9176099270   -0.9908893603
 C   -0.0792665641    2.3875308057   -2.3393821644
 N   -0.0736638930    1.9707720717   -3.4181887892
 H   -2.1162078218    2.0651124952   -0.2221232363
 H   -1.1179054576    4.0539996466    1.2896651772
 H   -1.1088079765    2.5312796754    2.2036420438
 H    1.1586524825    3.9290730182    1.2357455377
 H    2.0623286909    2.1631386353   -0.2776799211
 H   -0.0764116393    4.0104714145   -1.0023748679