20

 C    0.0176641253    1.4651359343    0.0668625993
 C    0.0015716203    0.0114026639    0.0085733705
 C   -0.0192673935   -1.1933659307   -0.0267355432
 C   -0.0091727789   -2.6179402545   -0.1118583616
 C    0.7060721443   -3.4283605923   -1.2236580723
 C   -0.4531262798   -4.4687571788   -1.1953694755
 C   -1.1367136404   -3.6520192675   -0.0849118316
 N   -0.2968268148   -3.4262862469    1.0636146414
 C    0.6318174061   -4.4165801898    1.5856565625
 H    0.9142645038    1.8723107620   -0.4139908228
 H   -0.8534713401    1.8968761759   -0.4390401657
 H    0.0084515254    1.8204364844    1.1033612189
 H    0.7433592692   -2.8736358842   -2.1622648868
 H    1.7135432413   -3.7811164334   -0.9852135141
 H   -1.0305702441   -4.4683755241   -2.1219482984
 H   -0.1970312753   -5.5029542143   -0.9468960953
 H   -2.2046490847   -3.4917281019    0.0222597990
 H    1.1547929967   -5.0191959725    0.8302126863
 H    1.3840476933   -3.9023382973    2.1912028592
 H    0.0788520157   -5.0982851221    2.2395276002