17

 C   -0.0977087019    1.5020690744   -0.0444152189
 C    1.2247204424    0.7555300242    0.0134234675
 C   -0.0686028669    0.0062657040   -0.0041077020
 C   -0.5269852536   -0.9893076476    1.0220224282
 C   -1.7273721663   -1.6957521528    0.4703706754
 C   -2.0327030475   -1.1380057568   -0.9095194687
 C   -0.4976251912   -1.0358323294   -1.0298694844
 N   -0.3489518884   -2.1461129123    0.0712207479
 H   -0.4217855666    2.0367283117    0.8426057041
 H   -0.3671839905    1.9864499449   -0.9779166310
 H    1.8405206966    0.7411210080   -0.8803404387
 H    1.7889610283    0.7877730016    0.9400967322
 H   -0.2322737882   -1.0660008351    2.0630790174
 H   -2.3592701503   -2.3207728197    1.0920937061
 H   -2.4348528715   -1.9177738796   -1.5613800377
 H   -2.6235213465   -0.2216152262   -1.0089875963
 H    0.0175158421   -1.1464886693   -1.9827382410