15

 N   -0.0640594715    1.2745329907   -0.2308437766
 C   -0.0741862614    0.0189474232   -0.2785838029
 O   -1.0825973112   -0.6650398336    0.3243569416
 C   -1.0709759387   -2.0600182610    0.2310694238
 C   -1.9146925564   -2.7626922369    1.3040685574
 O   -2.6422879580   -3.5057378943    0.2947902911
 C   -2.0542117575   -2.7491024079   -0.7762408167
 C   -3.0008756608   -1.8600552171   -1.4528111887
 N   -3.7398273891   -1.1676304280   -2.0085901798
 H    0.7534866403    1.6413612140   -0.7131562412
 H    0.6672429244   -0.6345842955   -0.7580265833
 H   -0.0520986002   -2.4464915082    0.1303440238
 H   -1.3913708327   -3.4234065529    2.0003659435
 H   -2.5607162416   -2.0677004751    1.8508317710
 H   -1.5846495555   -3.4018598472   -1.5210663930