17

 O    0.4412448610    0.0606820031   -0.1676821212
 C    0.1901499956    1.2188938355    0.0058889752
 C   -1.1486560698    2.0104506109    0.0318711066
 C   -0.3045683184    3.2978447844   -0.0016164346
 C    0.5661806267    3.3499547485    1.1977023265
 C    1.0172436815    2.4656694714    0.0363010959
 C   -0.5912204487    4.4694698571   -0.8667237575
 C   -1.0248226386    5.7639579744   -0.3161862499
 O    0.3161584735    5.5684292617   -0.7710056945
 H   -1.7052396675    1.8181611643   -0.8910823110
 H   -1.8164932009    1.8777997821    0.8879164363
 H    1.1641963874    4.2495623819    1.2982165006
 H    0.2487732568    2.9012797627    2.1350548704
 H    1.9683413442    2.6347484894   -0.4530823688
 H   -0.8926931453    4.2280681687   -1.8876395224
 H   -1.6306299149    6.4335507588   -0.9242953295
 H   -1.1393055525    5.8703049752    0.7611072878