18

 C    0.0411077692    1.5187723478    0.0886950730
 C   -0.0101182090    0.0084845496   -0.0719209724
 C    0.7734107496   -0.5124234850   -1.2751880517
 N    0.8619552932   -1.9692026738   -1.3003882660
 C    1.4568375906   -2.4569527778   -0.0567735414
 C    0.8849185983   -1.8600281533    1.2160067461
 N    0.8711981448   -2.5190511336    2.2964558697
 O    0.4867400385   -0.5539699240    1.1652250417
 H    1.0767258339    1.8592175411    0.1848832271
 H   -0.4085615986    2.0096315755   -0.7798119102
 H   -0.5058312631    1.8272148112    0.9832090843
 H   -1.0576740831   -0.3170375861   -0.1737570688
 H    0.3011846746   -0.1573969052   -2.1973689638
 H    1.7943415943   -0.1075897312   -1.2511613110
 H   -0.0696437126   -2.3619918590   -1.4066174171
 H    1.3758871726   -3.5427833857    0.0063441672
 H    2.5287286109   -2.2136550120   -0.0782606131
 H    0.4972517561   -1.9405065585    3.0529203364