14

 O   -0.1007822459    1.3546994890    0.0087553161
 N    0.0332231966   -0.0482031049    0.0039222951
 C   -1.1071674454   -0.6258203878    0.0111886255
 C   -1.2329805462   -2.1425524175    0.0080822409
 C   -2.7636656412   -2.4046811672    0.0188435447
 C   -3.3718805060   -1.0245561944    0.0274317801
 C   -2.4517545035   -0.0511305136    0.0231220781
 H    0.8176342036    1.6426847976    0.0024259505
 H   -0.7501438651   -2.5704933109   -0.8745541061
 H   -0.7370849684   -2.5751085909    0.8811831007
 H   -3.0931580419   -2.9787528766   -0.8558655206
 H   -3.0799878212   -2.9838977656    0.8950166185
 H   -4.4447919627   -0.8654661440    0.0360930543
 H   -2.6349673127    1.0134681168    0.0275063620