21

 C   -0.4314615858    1.4325094759    0.0712557121
 C   -0.0219599585   -0.0180629111    0.0026555485
 C   -0.3061879147   -0.9483242083    1.1815534448
 C    1.1118874953   -0.5967580094    0.8032354375
 O    1.8575875138   -1.5097031564    0.0409158552
 C    1.0729180308   -1.8741413232   -1.0928840461
 C    0.0845115076   -0.7274285628   -1.3314223663
 C   -1.0620719978   -0.9059839215   -2.2871906552
 C    0.0781492116    0.0224269882   -2.6398637195
 H    0.2425274452    2.0709505203   -0.5093851627
 H   -1.4499473158    1.5837726250   -0.3076405694
 H   -0.4170357836    1.7888796233    1.1057076364
 H   -0.7055536297   -0.4900809780    2.0807679583
 H   -0.6709488702   -1.9525891587    0.9942545321
 H    1.7406525388   -0.0146959065    1.4674637090
 H    1.7508126690   -2.0459612525   -1.9349385854
 H    0.5367711669   -2.8143436591   -0.8942567007
 H   -1.1432412776   -1.8487891864   -2.8201657383
 H   -2.0179156414   -0.4611958651   -2.0295913111
 H   -0.1182297836    1.0888200173   -2.6349961940
 H    0.7790398095   -0.2942556109   -3.4057738151