18

 C   -0.0632726199    1.5626668981    0.0694473073
 C   -0.0034536338    0.0244856039    0.0528665403
 C    0.7062392950   -0.4985732756    1.3148489024
 C   -1.4196997136   -0.5592199768   -0.0381695970
 N    0.7195456085   -0.4344014212   -1.1533656823
 C    2.0059645331   -0.1451604306   -1.4694232304
 O    2.7702019001    0.5361076177   -0.8143393654
 H    0.9442948201    1.9807280576    0.0872015885
 H   -0.5820563853    1.9385499380   -0.8181171034
 H   -0.6050097844    1.9085392659    0.9555157332
 H    0.1708634170   -0.1696358616    2.2111743444
 H    0.7362628413   -1.5927821213    1.3155337057
 H    1.7292883586   -0.1219713357    1.3576277404
 H   -1.9368502495   -0.2040408032   -0.9365345814
 H   -1.3953922246   -1.6544772932   -0.0602285150
 H   -2.0093537803   -0.2546282899    0.8303463826
 H    0.2139172974   -1.0160326630   -1.8028964226
 H    2.3014979704   -0.6156391892   -2.4304441474