16

 N    0.8707220386   -0.1632086776   -0.1196396611
 C   -0.2844887650    0.3051722121    0.1367727795
 N   -1.4100020694   -0.4791939158   -0.0060312540
 C   -1.4009994256   -1.8406761706   -0.4590197336
 C   -1.9212096665   -2.8682732012    0.5282427598
 C   -2.8510379554   -2.2051999556   -0.4542671521
 O   -3.5719313159   -1.0708901132   -0.0010566233
 C   -2.7066148706   -0.0455206128    0.2735929985
 N   -3.0092157518    1.0956965579    0.7204509217
 H    1.5775662608    0.5543168750    0.0268852059
 H   -0.5399951443    1.3128607158    0.4715517429
 H   -0.6829380959   -2.0820231395   -1.2300548540
 H   -1.6694261793   -3.9050498132    0.3335652615
 H   -1.9897057939   -2.5903620622    1.5741160516
 H   -3.3686036158   -2.7448820417   -1.2359585089
 H   -4.0140931198    1.1793472527    0.8484139156