19

 C   -0.0862889768    1.2738666016    0.3854244169
 O   -0.2363017775   -0.0987758890    0.0797238881
 C    0.5364246903   -0.5211701036   -1.0246644192
 C    2.0054694604   -0.6681622057   -0.6077300499
 O    2.9376562301   -0.5668094606   -1.3610793434
 C   -0.0021524927   -1.8683076033   -1.5079222743
 C   -1.5059218745   -2.0062817539   -1.5302299202
 C    0.8363291152   -2.6787219158   -2.4015008439
 O    0.7229942686   -3.0077137320   -1.0110193257
 H    0.9490277372    1.5313225596    0.6532617629
 H   -0.3909082944    1.9081410912   -0.4605100677
 H   -0.7318815439    1.4835016952    1.2407499315
 H    0.4749672625    0.2080646887   -1.8486777957
 H    2.1292793576   -0.8767967913    0.4764664841
 H   -1.9516478017   -1.2660099685   -2.2034151906
 H   -1.7817567090   -3.0053157493   -1.8757893207
 H   -1.9193632071   -1.8461839269   -0.5328579893
 H    0.3494069242   -3.3751891164   -3.0822707044
 H    1.8122063416   -2.3148211500   -2.7154850485