13

 C   -0.0120188383    1.4990827630    0.0570861350
 C    0.0137707929    0.0114036984   -0.0034396424
 C    0.0005015627   -0.8404993263   -1.0747341774
 O   -0.0454237315   -0.4951668889   -2.3732186392
 C   -0.0074817385   -1.4688213797   -3.3608358387
 O   -0.0544704661   -1.1556375080   -4.5029612199
 O    0.0328801072   -2.1002800542   -0.7006568236
 N    0.0734838747   -2.0216926066    0.8137660285
 N    0.0590737030   -0.8129966231    1.0938839014
 H    0.8788064651    1.8925409370    0.5562865530
 H   -0.0475553426    1.9102026294   -0.9541756304
 H   -0.8878816931    1.8599483876    0.6050072125
 H    0.0671023846   -2.4841720786   -2.9523986288