17

 C   -0.0233511494    1.5247958010    0.0651922346
 C   -0.0099769159    0.0388689913   -0.0272237307
 C   -0.0257915158   -0.7809822295   -1.0905064139
 C   -0.0004986819   -2.2353215053   -0.6540692867
 C    0.0322476502   -2.0904841012    0.8401297373
 N    0.0645695849   -2.8470381135    1.9086120794
 C    0.0792067614   -1.9478756821    2.9606221655
 C    0.0554525972   -0.6458728969    2.5164801292
 N    0.0252523721   -0.7538270154    1.1445387248
 H    0.8678724576    1.8972600307    0.5838027984
 H   -0.0515586113    1.9679056137   -0.9320971775
 H   -0.8966780138    1.8787767268    0.6255078373
 H   -0.0528356940   -0.4566021386   -2.1203237821
 H   -0.8819647637   -2.7898610657   -0.9986797108
 H    0.8757116652   -2.7713647258   -1.0390000546
 H    0.1061808780   -2.2896231705    3.9844023368
 H    0.0574107492    0.2992776611    3.0319507831