18

 C    0.0665292524    1.5618143626    0.0956296731
 C    0.0013651014    0.0378221473    0.0092043719
 O    0.6109620065   -0.5748301055    1.1442612404
 C   -1.4377088768   -0.4748576027   -0.0318802616
 C   -1.5039625003   -1.9988014065   -0.1170894979
 C   -2.9101742379   -2.5393340885   -0.0973195238
 O   -3.9162322855   -1.8814738692   -0.0118585314
 C   -3.0017887569   -4.0171912895   -0.1948970232
 N   -3.0608821710   -5.1691625223   -0.2756670178
 H    1.1067951254    1.9043390816    0.1350280147
 H   -0.4021931018    2.0272725022   -0.7773782330
 H   -0.4437287899    1.9151451584    0.9970487109
 H    0.5167937415   -0.2886925648   -0.9110156781
 H    1.5222814728   -0.2711594518    1.1982143673
 H   -1.9607092400   -0.1384233211    0.8696311829
 H   -1.9597304559   -0.0288370088   -0.8842396881
 H   -1.0165339809   -2.3798868542   -1.0265070515
 H   -0.9498841733   -2.4567193471    0.7123351150