15

 N   -0.1177825528    1.5545226271   -0.1082942169
 C    1.3501735388    1.2742728612    0.0322023818
 C    1.2158085078    0.0889367351    1.0261373747
 C   -0.0481615638    0.0696313482    0.0111898100
 C    1.2468539530   -0.0274824682   -0.8449094427
 O    1.8518793349   -0.1552658155   -2.1125784002
 C    3.1348484044   -0.4977279792   -1.6863050047
 N    3.3611521478   -0.8244582411   -0.4719065666
 C    1.9963284060   -0.8954114381    0.1111739606
 H   -0.4794938066    1.9566132153    0.7607222507
 H    2.1157864742    2.0471160410    0.0000994634
 H    1.1343952105    0.1484894578    2.1113924423
 H   -0.9151756794   -0.5900488082    0.0287975400
 H    3.8750799243   -0.4527566770   -2.4770335849
 H    1.7042725808   -1.9456047885    0.2223007524