18

 C   -0.3139297973    1.4101480258    0.0521121069
 N    0.1228860428    0.0114848884    0.0837759453
 C    0.7327850226   -0.4686279921   -1.0970621872
 C    0.1519291177   -1.2080754632   -2.0840642867
 C   -1.2291232680   -1.7287223326   -2.2450343274
 O    1.0498502692   -1.4878513176   -3.0406176169
 N    2.2957792705   -0.9276043600   -2.6939553176
 C    2.0914085718   -0.3313223158   -1.5432442300
 N    3.1274586284    0.2617784536   -0.8350392691
 H    0.4879877034    2.1369804560   -0.1621631665
 H   -1.0809306538    1.5319629675   -0.7179682341
 H   -0.7591254053    1.6678616033    1.0175756219
 H    0.7213119308   -0.1530848953    0.8856181913
 H   -1.7558586256   -1.2285218397   -3.0652544721
 H   -1.2171629201   -2.8005006179   -2.4661074523
 H   -1.7810700060   -1.5597067710   -1.3178116168
 H    3.9666910752    0.3593908388   -1.3925434847
 H    2.8738456137    1.1405743919   -0.4041802341