18

 C    0.0000775267    1.4852056235   -0.1246488694
 C    0.0071172100   -0.0108717904    0.0243407073
 C   -0.8574949534   -0.7353527994    1.0241511819
 C    0.6409333611   -0.7899142527    1.2295933818
 C    1.4794052420   -1.8477134260    0.5584906554
 C    1.2559294751   -3.3697794457    0.2583447869
 O    1.0829788159   -3.0689525277   -1.1853617660
 C    0.9473111549   -1.7503585771   -0.8339106610
 N    0.1789556598   -0.8126693430   -1.1953069139
 H    0.9516068162    1.8462307029   -0.5286782486
 H   -0.7943483538    1.7964274271   -0.8109555686
 H   -0.1707594854    1.9740826526    0.8390406188
 H   -1.4006922013   -0.1336235121    1.7463363076
 H   -1.3964598409   -1.6129923276    0.6808923773
 H    1.0508132153   -0.2483012003    2.0729806720
 H    2.5488213279   -1.6424696073    0.6503410103
 H    2.1062058155   -4.0341926344    0.4167863439
 H    0.3317188244   -3.7954072624    0.6559332642