20

 C   -0.0249432734    1.5574443576    0.0139974996
 C    0.0927209188    0.0492635443    0.0755504941
 C    1.3472875935   -0.7420020196   -0.1898127654
 C    2.6034933531   -0.0486421929    0.3648943564
 C    1.9433654266   -0.0514678460    1.7598529449
 C    2.6311501041   -0.4074439527    3.0425497678
 C    2.0380628779    0.9729313346    2.8553358271
 C    0.7058640718   -0.7354522951    1.2093634596
 H    0.8471224818    2.0565406331    0.4421379209
 H   -0.1325444277    1.8984510699   -1.0219088826
 H   -0.9045467860    1.9013381508    0.5695953603
 H   -0.7820705277   -0.4616240031   -0.3251878360
 H    1.3664422341   -1.5471532410   -0.9145614476
 H    3.4880532759   -0.6901531551    0.3245069315
 H    2.8576137938    0.9243033638   -0.0701528096
 H    2.1282348210   -1.0906874203    3.7203104683
 H    3.7124467105   -0.5054982387    3.0352386835
 H    2.7227056450    1.8046310984    2.7201254955
 H    1.1377117641    1.2227353649    3.4075066506
 H    0.1682372827   -1.5305303128    1.7148774810