17

 C   -0.0573089298    1.5350885815    0.1307542495
 C    0.0179742197    0.0818413350    0.1085482852
 C    0.0824635574   -1.1213746855    0.0870717700
 C    0.1779553415   -2.5573270043    0.0418077049
 C    1.4272243611   -3.1432830625   -0.6027904999
 O    1.4284253166   -2.9487565334   -2.0002853794
 C   -0.5689397072   -3.3576735031    1.0582350608
 N   -1.0408263865   -3.3329271852   -0.3325480311
 H    0.8095158724    1.9802941354   -0.3696117200
 H   -0.9555746601    1.8945917424   -0.3834918834
 H   -0.0841590731    1.9207247497    1.1559791944
 H    2.3228596538   -2.6501023679   -0.2138654703
 H    1.4816848780   -4.2117285952   -0.3434412193
 H    0.5977124912   -3.3227462188   -2.3186003582
 H   -0.1614766664   -4.3098545168    1.3875524190
 H   -1.1305477578   -2.8127796578    1.8107246744
 H   -1.8266396408   -2.6927278535   -0.4134629566