21

 C   -0.1802622923    1.5886322705    0.0508183114
 C    0.0208811009    0.0788698248    0.0299982440
 C    1.1231286417   -0.5348244281   -0.9233948389
 O    2.0100894637    0.3576951299   -1.5694120281
 C    1.7553474864   -1.2595808579    0.2628718076
 C    2.3131287620   -2.6528601993    0.2318431041
 C    2.1777109143   -0.2225692413    1.2862190617
 C    0.7301200910   -0.6185661201    1.1960572218
 O    0.0661994655   -1.2483081294    2.2380277355
 H    0.7624278752    2.1209012738    0.2029100803
 H   -0.6126076700    1.9436888744   -0.8923369571
 H   -0.8690391784    1.8802361425    0.8513144395
 H   -0.9330755879   -0.4257848296   -0.1565143644
 H    0.6848837187   -1.2378874025   -1.6448783772
 H    1.5267703616    0.8059335092   -2.2708309847
 H    3.2968384412   -2.6809459035   -0.2507614032
 H    2.4254321021   -3.0472767980    1.2467383029
 H    1.6520488161   -3.3334868712   -0.3168910403
 H    2.6932012164   -0.6458220286    2.1433292309
 H    2.5361281910    0.7532326902    0.9742624600
 H    0.0334677506   -0.6448551658    2.9877448741