19

 C    0.0075825164    1.5273414890   -0.6859496893
 C   -0.0297056540    0.0190687445   -0.5481393804
 C   -0.6606137359   -0.6447607453    0.5979540151
 O   -1.3116894662   -0.5972574147   -0.6743509503
 C    1.3024088686    2.0994127598   -0.1949823599
 C    1.6606848998    2.4792309870    1.2099451680
 C    1.8168646081    3.4941595303    0.0907115737
 C    3.0071265839    3.0913919365   -0.7692223742
 O    2.4931426256    1.7394714279   -0.9175709270
 H   -0.1307730667    1.7918721687   -1.7415420668
 H   -0.8258305276    1.9622684736   -0.1244340662
 H    0.7732119538   -0.5082529973   -1.0634904564
 H   -0.3197452933   -1.6297029281    0.9134774395
 H   -1.1209505912   -0.0418550603    1.3801896062
 H    0.8235316807    2.6702278497    1.8744362937
 H    2.5352229904    2.0398877186    1.6828007909
 H    1.3132262623    4.4513516039    0.0816100507
 H    3.0431703230    3.5961322355   -1.7412351473
 H    4.0008990321    3.1103524007   -0.3057950601