19

 C    0.4962833211    1.1558300034    0.4610541188
 C   -0.3878025671    0.3640689190   -0.5060099838
 C   -1.3328783252   -0.5756951258    0.2247488345
 O   -2.1149902190   -1.2699486917   -0.7476618370
 C   -3.0032118599   -2.1437135942   -0.2393503366
 C   -3.3642330478   -2.5545009996    1.0191246242
 N   -4.3663322476   -3.5050485573    0.9264555790
 C   -4.5988427975   -3.6592112710   -0.3500117535
 N   -3.7927385047   -2.8502783176   -1.1128674720
 H    1.1677087234    1.8248514899   -0.0839574158
 H   -0.1046292394    1.7695183224    1.1408629591
 H    1.1148071212    0.4905602949    1.0731764918
 H   -0.9812359775    1.0467288856   -1.1247505055
 H    0.2313354065   -0.2250313062   -1.1920542910
 H   -0.7766847178   -1.3049928942    0.8310261462
 H   -2.0010183889   -0.0208976021    0.8989797480
 H   -2.9739429828   -2.2326978097    1.9703392450
 H   -5.3227075054   -4.3259238980   -0.7933962813
 H   -3.7626581316   -2.7685758077   -2.1152041100