21

 C   -0.6507016171    1.2964125659    0.1144242850
 C    0.0683066865   -0.0469321490   -0.0453015348
 C    1.1057289501   -0.0536844993   -1.1926812349
 O    2.2593510407   -0.7908136750   -0.7523613870
 C    2.1669802258   -1.0317397650    0.6293911139
 C    2.1731303306    0.2076638905    1.4892285691
 O    2.5061372503    1.4328211134    0.9037079319
 C    0.8634290571   -0.5119842496    1.1760800689
 C    0.1168795192   -1.1906609316    2.3001515144
 H    0.0693394583    2.0883523481    0.3337033615
 H   -1.1957507390    1.5615041116   -0.7982385624
 H   -1.3799541868    1.2568882603    0.9299094119
 H   -0.6809420243   -0.8253883208   -0.2412738530
 H    0.7285088754   -0.5338577855   -2.1019711319
 H    1.4041337400    0.9705194674   -1.4434463096
 H    2.6449277749   -1.9593830131    0.9272314309
 H    2.5229399323    0.1103001608    2.5165481301
 H    3.1184335324    1.2379745817    0.1835293585
 H   -0.5934832757   -0.5054330994    2.7771324264
 H   -0.4466489610   -2.0571271569    1.9343972041
 H    0.8011399904   -1.5441264546    3.0778722769