20

 C   -0.0547502356    1.5344172889    0.0059016870
 C    0.0430382172    0.0356193634    0.0197024813
 C   -0.8125014872   -0.8388351466    0.8992573349
 C    0.6819603466   -0.9168853029    1.0358641757
 C    1.2447985872   -1.7906493105   -0.0892427859
 C    0.6334169345   -0.7940872361   -1.1408488059
 C   -0.3067341002   -1.3450749061   -2.2059604406
 O    1.6453482241    0.0055431573   -1.7438258881
 H    0.8717959652    1.9806279192   -0.3640679484
 H   -0.8736025478    1.8774349840   -0.6385007247
 H   -0.2469536979    1.9192143733    1.0130281486
 H   -1.3307693501   -0.3049635550    1.6901845992
 H   -1.3735945140   -1.6829569754    0.5036678913
 H    1.1885246958   -0.6795035227    1.9638568575
 H    2.3347439382   -1.7751942878   -0.1527259510
 H    0.8915194391   -2.8280390021   -0.1140701534
 H   -1.1251777209   -1.9239437379   -1.7696250028
 H   -0.7330096474   -0.5277038824   -2.7960187429
 H    0.2353560510   -2.0108962267   -2.8900708179
 H    2.0921461820   -0.5356723239   -2.4035546340