18

 C    0.1298824460    1.5996441912   -0.3006875704
 C    0.0377905926    0.1017575483   -0.0540834945
 O    0.7095356654   -0.5690037679   -1.1242339078
 C    1.2795986982   -1.7858927322   -0.6677415780
 C    1.5262805401   -1.6005342749    0.8162448185
 N    2.1890731720   -0.3477789585    1.1500986246
 C    0.7166469185   -0.3985019980    1.2119743370
 C    0.0654915347   -0.3858985798    2.5401217408
 O    0.6735997673   -0.5132127651    3.5789236112
 H    1.1732218071    1.9188373891   -0.2491789872
 H   -0.2655330382    1.8402364596   -1.2908395578
 H   -0.4516581417    2.1511055009    0.4451430451
 H   -1.0212117635   -0.2111403717   -0.0161410282
 H    0.5992956801   -2.6393221896   -0.8196413580
 H    2.1958315624   -1.9608709397   -1.2410625293
 H    1.6165198390   -2.4568643559    1.4769929267
 H    2.5213321169   -0.3989821614    2.1147359454
 H   -1.0377875368   -0.2564143345    2.5293431920