12

 N    0.0366992750    1.3796951616   -0.1133431107
 C   -0.0168001399    0.0165719246   -0.0400639126
 C   -1.1605656487   -0.7215353502   -0.0175372702
 C   -1.1096141571   -2.1578770323    0.0065462241
 O   -2.0312384849   -2.9281025860    0.0258025613
 O    0.1869261703   -2.7310152237    0.0151251095
 N    1.3394621166   -1.9945294249   -0.0036910980
 C    1.2335219164   -0.7132747800   -0.0319372391
 H    0.8913637601    1.8442291849    0.1452767799
 H   -0.8056526982    1.9022365769    0.0652098659
 H   -2.1472888698   -0.2743460148   -0.0186889056
 H    2.1824925501   -0.1837755961   -0.0528521244