17

 N   -0.0695421976   -3.7310862096   -0.0519875926
 C   -0.0310615452   -2.5709083633   -0.0015410524
 C    0.0156455094   -1.2081226826    0.0582340868
 C    0.0540461893   -0.0014598686    0.1136196043
 C    0.1289161236    1.4467770870    0.1695327049
 C    1.5173282941    1.9883362698   -0.2286011181
 N    1.4980522040    3.4412794065   -0.1752697599
 C    1.8995055704    4.0502257298    1.0925894722
 C    2.7982611041    4.0982026645   -0.0929940809
 H   -0.6247426813    1.8859705187   -0.4945505485
 H   -0.1153377746    1.7847838362    1.1845754035
 H    2.2862074482    1.5444709555    0.4272952912
 H    1.7454923848    1.6810244517   -1.2544388892
 H    1.3355369329    4.9273440223    1.3948325342
 H    2.1900107043    3.3887133968    1.9076652389
 H    3.6866144465    3.4693088629   -0.0676128008
 H    2.9012851872    5.0101200424   -0.6733307138