19

 C   -0.0851004239    1.2974578868   -0.5759546572
 C    0.0047532115   -0.0396749352    0.1733885058
 O    0.6973763113    0.1003156716    1.4132563923
 C   -1.3184365994   -0.6467626917    0.3537757585
 C   -2.4184078737   -1.1070338637    0.5259401385
 C   -3.7321251401   -1.7122752131    0.7217924803
 C   -3.8677633340   -3.0598990445    0.0322237078
 C   -5.1678660663   -3.5495887987   -0.4381607106
 O   -4.1961625573   -3.0378848102   -1.3535019915
 H    0.9169004349    1.7199567324   -0.6876181760
 H   -0.5297444484    1.1598721605   -1.5657810390
 H   -0.7069789511    2.0065296289   -0.0197297966
 H    0.6308725087   -0.7260326160   -0.4096724957
 H    0.1152063241    0.5802156046    2.0127774971
 H   -3.9179613135   -1.8475532852    1.7962725299
 H   -4.5195838227   -1.0483105961    0.3450797849
 H   -3.1033462316   -3.7897157626    0.3000116046
 H   -5.3550812009   -4.6204655523   -0.4996985573
 H   -6.0549788875   -2.9309103254   -0.3055123059