21

 O    0.0072194795    1.4195341247   -0.0847935666
 C   -0.0043398253   -0.0083578590   -0.0063929017
 C   -1.4542350719   -0.5055463755   -0.0333758053
 C   -2.1893812437   -0.0264435431   -1.2958203266
 O   -2.4793525781    1.3567203983   -1.2874214227
 C   -1.4469711694   -2.0586316241    0.0900062153
 C   -2.0697119358   -2.3219037910    1.4796532331
 O   -1.9257103789   -1.1108735908    2.2022465684
 C   -2.1862446708   -0.0779222347    1.2634912977
 H    0.9188872223    1.7235387147   -0.1058065861
 H    0.5483878873   -0.4437559084   -0.8530140034
 H    0.4735611507   -0.3456641064    0.9247729229
 H   -1.6068193700   -0.3159924221   -2.1885412776
 H   -3.1550345595   -0.5416239382   -1.3648068463
 H   -1.6478079759    1.8048353253   -1.0833252642
 H   -2.0203363091   -2.5339625480   -0.7109898207
 H   -0.4276843667   -2.4536911841    0.0344364233
 H   -3.1354671671   -2.5849599692    1.3795135736
 H   -1.5732508645   -3.1159930233    2.0429997072
 H   -1.8192998207    0.8625689770    1.6766877310
 H   -3.2667604524    0.0199269980    1.0752607787