13

 N    0.0956599987    1.4012252860    0.0837410981
 C   -0.0161660367    0.0358785203   -0.0362825862
 N   -1.2048197830   -0.4760167115   -0.1017688175
 O   -1.2443319469   -1.8732762622   -0.3465644896
 C   -0.1243480284   -2.6348947302   -0.4596582279
 N   -0.1489671787   -3.8821234611   -0.6841560918
 C    1.1426034874   -1.8935355363   -0.2966644377
 O    2.2453750496   -2.6231827679   -0.3607539651
 N    1.2015892024   -0.6260760925   -0.1025759644
 H    0.9303134493    1.7109341628    0.5571358817
 H   -0.7527066034    1.8764475117    0.3530099802
 H   -1.1134821926   -4.2101827593   -0.7655774736
 H    2.9916222524   -2.0146975799   -0.2439619962