17

 O   -0.0240016695    1.3974386459    0.1284693149
 C    0.0227606044    0.0016785700    0.0294230189
 C   -1.3822015268   -0.6268893693   -0.2005628996
 C   -1.2420455445   -0.1928654564   -1.6924924464
 C    0.2396257830   -0.5814626679   -1.4153455690
 O    0.1797230136   -1.9982793429   -1.1705672850
 C   -0.9824538080   -2.1002140126   -0.3053855671
 C    1.3514874691   -0.1847973561   -2.2343931630
 C    2.2784803509    0.2264756830   -2.8807158595
 H    0.8449628803    1.7385727542   -0.1128502113
 H    0.6579389251   -0.4562893342    0.7995745924
 H   -2.2390423286   -0.3639067579    0.4168159804
 H   -1.7598338359   -0.7754453415   -2.4567105810
 H   -1.3760235662    0.8770232412   -1.8310352785
 H   -0.6916996774   -2.5481591189    0.6513504226
 H   -1.7462372723   -2.7270817356   -0.7789115097
 H    3.0950342128    0.5687719890   -3.4675801091