17

 C   -0.1271319956    1.6053574114    0.0221329112
 C   -0.0260322175    0.0899406955    0.0384286683
 O   -1.3123223369   -0.4102642618    0.3053130284
 C    0.7149532867   -0.5546175585   -1.2334334007
 N    1.6981369697   -1.0373734843   -0.2584254827
 N    2.8741613880   -1.6430583051   -0.0798761543
 C    3.0412091237   -1.5121581318    1.2502090049
 C    1.9879065311   -0.8097115041    1.8958955905
 C    1.1348413671   -0.5197897508    0.8439392660
 H    0.8349834142    2.0599047488   -0.2251876073
 H   -0.8717451524    1.9197858096   -0.7152172237
 H   -0.4447900822    1.9659450063    1.0039256338
 H   -1.2363397218   -1.3470194629    0.5176473210
 H    0.1497616580   -1.3445284291   -1.7348958306
 H    1.1190243319    0.1505520795   -1.9646414286
 H    3.9231623392   -1.9345621641    1.7104821393
 H    1.8989006067   -0.5753234784    2.9431645643