21

 C   -0.1323752493    1.5870313002   -0.0373579312
 C   -0.0463846770    0.0674564125   -0.0217219151
 O   -1.3213107167   -0.5026825252   -0.2793094806
 C    1.1741644243   -0.6141969672   -0.6906412837
 C    2.0902719808   -0.2980028961    0.5413736183
 C    2.5649549678   -1.7534762684    0.6585630186
 C    1.0782523945   -1.8761815481    0.2560227029
 C    0.2957310059   -3.1422149719    0.0351615527
 C    0.6801872050   -0.6286464007    1.1415376434
 H    0.8260583674    2.0551830944    0.2013449454
 H   -0.4358662343    1.9465638096   -1.0294197866
 H   -0.8786336675    1.9317420436    0.6855155609
 H   -1.6710543104   -0.1011675969   -1.0817359563
 H    1.4823931393   -0.6151847616   -1.7393237692
 H    2.6552617976    0.6201065330    0.7022602247
 H    3.3029813666   -2.0934189649   -0.0766374230
 H    2.8330478928   -2.1071418919    1.6605291099
 H    0.2923927344   -3.7574985552    0.9425596280
 H   -0.7377206668   -2.9182802640   -0.2354785311
 H    0.7469402999   -3.7406991547   -0.7652129241
 H    0.4138281056   -0.6454141966    2.2005247861