23

 C   -0.0750619450    1.5664574690   -0.0557592837
 C    0.1025361093    0.0437253732   -0.0832777209
 C    0.6919383041   -0.5316441412    1.2056600096
 O    1.9972524790   -0.0169506061    1.4446120115
 C   -0.1845949694   -0.5039596584    2.5137373969
 C    0.0069005068   -2.0246401857    2.6536000216
 C    0.2562307589   -2.7353528830    3.9520261932
 C   -0.5665795111   -2.6943068273    1.4370089862
 C    0.7937567926   -2.0537015650    1.3402898382
 H    0.8856037149    2.0845078105    0.0446357006
 H   -0.5328903831    1.9249616845   -0.9823222004
 H   -0.7179557935    1.8822017159    0.7738137269
 H   -0.8665751208   -0.4288665096   -0.2769734407
 H    0.7634118440   -0.2369139707   -0.9124747017
 H    1.9208276460    0.9338070670    1.5768122368
 H    0.3225032307    0.0642261894    3.2974543369
 H   -1.2202472870   -0.1556238144    2.4258048066
 H   -0.6433932546   -2.7462785943    4.5801468177
 H    0.5512689216   -3.7763579058    3.7823255541
 H    1.0548221532   -2.2500449274    4.5245804874
 H   -0.5523493668   -3.7801933849    1.4558075818
 H   -1.4274483362   -2.2793469331    0.9171001833
 H    1.6853887963   -2.6129727326    1.0812468882