17

 C    0.0758290330    1.3596998561   -0.0474052267
 O    0.0022184052   -0.0456953749    0.1092112249
 C   -1.2887412284   -0.5825016796    0.0305780408
 C   -2.0012643024   -0.6198949885   -1.3962717348
 C   -1.9988850001   -2.1470750914   -1.2839558992
 O   -0.6282370832   -2.5468052609   -1.1882091694
 C   -1.2846015087   -2.1288499277    0.0017450982
 C   -2.1850701785   -0.0791740411    1.0724413450
 C   -2.9131342398    0.3225182120    1.9411707907
 H    1.1341715339    1.6224681637    0.0058057244
 H   -0.3219198333    1.6806761225   -1.0208120665
 H   -0.4692528216    1.8872693995    0.7460856859
 H   -2.9881079481   -0.1561143702   -1.3886714719
 H   -1.3960891229   -0.2332154617   -2.2186424240
 H   -2.7076017088   -2.8657047237   -1.6759917696
 H   -1.2906339904   -2.7991438445    0.8525672064
 H   -3.5564046957    0.6780034403    2.7082744359