14

 O   -0.1987000522    1.4217171787    0.0724313444
 C   -0.0945822039    0.0382315187    0.0376174676
 C   -0.4321721998   -0.8405899725    1.2358888668
 C   -1.5861360125   -0.1631479814    1.9639060333
 O   -1.7637922747    0.2700465301    3.0644528517
 N   -2.4071868700   -0.1897790014    0.8230165668
 C   -1.3530674169   -0.7838772351   -0.0117528193
 C   -1.6375391227   -1.7780853370   -0.9890120560
 C   -1.8671045359   -2.6000703288   -1.8359658063
 H    0.4241056884    1.7624035555    0.7242787745
 H    0.7186485786   -0.3537091959   -0.5749536365
 H    0.2042250665   -1.6422492440    1.5833637347
 H   -2.9289092999    0.6268508588    0.5229312745
 H   -2.0774691449   -3.3319654256   -2.5763152762