17

 O    0.0505633311    1.4073725246    0.0364710067
 C    0.0492792546    0.0040611936   -0.0177664061
 C    0.5346141499   -0.6213826912    1.3089556714
 O   -0.5025233885   -0.1065145282    2.2080885917
 C   -1.3764608091   -1.0403063979    1.5174318597
 C   -0.1946289120   -2.0099451431    1.3358139721
 O   -0.3077882885   -2.7292604064    0.1372512899
 C   -1.2696258821   -2.0158746718   -0.6725128325
 C   -1.3750910238   -0.6483237153    0.0027361228
 H   -0.2952886495    1.6292189226    0.9126272507
 H    0.6347203844   -0.2924081796   -0.8910258409
 H    1.5511506408   -0.4291141878    1.6499201849
 H   -2.3110134445   -1.2542502354    2.0328015314
 H    0.0752071076   -2.6591698690    2.1670630425
 H   -0.8931914310   -1.9604187152   -1.6988462680
 H   -2.2222979245   -2.5638407202   -0.6802509748
 H   -2.1704085848    0.0007143805   -0.3601728114