21

 C    0.8617450837    1.1390381160   -0.2000900233
 C    0.1386446176   -0.1314619712    0.1627728221
 O    0.9467134729   -1.2302144187    0.6179399373
 C    0.0072490196   -0.6316306675    1.5441724956
 C    0.5637796845    0.0809253775    2.7703570648
 C    1.8873107793   -0.5191766257    3.2680298444
 O    2.9316308249   -0.3099114518    2.3212231686
 C    2.3772560016    0.1279091529    4.5610652404
 O    3.6247549263   -0.4032291296    4.9509304221
 H    1.6742558762    1.3410173026    0.5010506531
 H    1.2897387934    1.0558332492   -1.2042419310
 H    0.1696784047    1.9882726929   -0.2011963805
 H   -0.6321545455   -0.4413801242   -0.5446557551
 H   -0.8344193123   -1.2948479038    1.7438129302
 H    0.7266544903    1.1441282667    2.5666615902
 H   -0.1862776570    0.0184435013    3.5672885838
 H    1.7582432469   -1.5977675742    3.4513701060
 H    2.6530936448   -0.7598829092    1.5106840487
 H    2.4311361518    1.2199853734    4.4113941140
 H    1.6691635508   -0.0664016085    5.3738111455
 H    4.1548515454   -0.4227995880    4.1439492729