15

 O    0.3545682166    1.1618433579    0.5745046590
 C    0.0229442844   -0.0872156254    0.0405549450
 C   -1.5025853256   -0.3122583935   -0.1289353930
 C   -1.6682219382   -0.9598927040   -1.5011378747
 O   -2.6793225062   -1.1117471353   -2.1361978082
 C   -0.2851986261   -1.3119330144   -2.0695287903
 O   -0.2352632249   -1.4037842759   -3.4482990949
 C    0.5632223363   -0.2437741201   -1.3921972610
 O    1.4134199897    0.4651549892   -1.8598369735
 H    1.0420952488    1.5252406422   -0.0049384831
 H    0.4492363676   -0.8974732161    0.6556398785
 H   -1.9472734095   -0.9261422787    0.6588908779
 H   -2.0229639450    0.6509790910   -0.1281559076
 H   -0.0014652918   -2.2649103639   -1.5736140508
 H   -1.1573892264   -1.4402093130   -3.7459772232