17

 O   -0.0112020674    1.4364224523    0.1106350158
 C    0.0284672861    0.0317248973    0.0548393980
 C   -1.3361177594   -0.6210033105   -0.1944203994
 C   -1.4315563747   -0.6535211366   -1.6989987043
 O   -0.2359324896   -0.0962323063   -2.2435046590
 C    0.6910639049   -0.5246175858   -1.2283807402
 C    0.4254535689   -2.0483460372   -1.1368285670
 O    1.1195047901   -2.7095799157   -0.0984704779
 C   -1.0856965130   -1.9228895509   -0.9706746324
 H   -0.2796645418    1.7311456332   -0.7694305443
 H    0.5278063058   -0.3074008665    0.9652277171
 H   -2.1884306220   -0.4646573908    0.4519737030
 H   -2.3199807094   -0.4820375059   -2.2889912588
 H    1.6974650083   -0.1881945179   -1.4640619760
 H    0.7015825923   -2.5507889542   -2.0686472827
 H    0.6358400084   -2.5757440086    0.7225766932
 H   -1.7482450676   -2.7772224859   -0.9300206751