18

 C    0.1101603819    1.5356158765    0.0090573266
 C   -0.0477931074    0.0171409074    0.0024067562
 C   -1.4990387964   -0.4453052436    0.0137633498
 O   -2.4235078800    0.3361743452    0.0271866624
 C   -1.7264171718   -1.9522649759    0.0078733594
 C   -3.2162614834   -2.3303230324    0.0202597087
 C   -3.4220103511   -3.7729850997    0.0144259520
 C   -3.5654374197   -4.9664733033    0.0097136721
 H    1.1676706012    1.8135774535    0.0005541819
 H   -0.3727333131    1.9819145976   -0.8638559365
 H   -0.3561157681    1.9724726004    0.8956714815
 H    0.4395760510   -0.4294489888   -0.8754281873
 H    0.4561437907   -0.4387773487    0.8659824634
 H   -1.2282769500   -2.3807394674   -0.8710103567
 H   -1.2114036603   -2.3901002051    0.8723041207
 H   -3.6943009269   -1.8832471233    0.8988285976
 H   -3.7111756139   -1.8738853400   -0.8440279922
 H   -3.7103180426   -6.0181343224    0.0059046804