19

 C   -0.0568626067    1.4791370150   -0.0459583093
 C   -0.0189553182    0.0240725390   -0.0200549711
 C    0.0298638123   -1.1782832202    0.0083586786
 C    0.0449527515   -2.6416320916    0.0210383098
 C   -1.3976320784   -3.1955124110    0.0488940426
 N    0.8769895488   -3.1152114197   -1.0982262490
 C    1.0798857882   -4.5565363506   -1.1380722119
 C    2.0406844374   -4.9142845726   -2.1871129321
 N    2.7761871929   -5.2069772378   -3.0280639184
 H    0.7279073419    1.8823542091   -0.6951033793
 H   -1.0190632149    1.8483722506   -0.4171431579
 H    0.0953574560    1.8961632682    0.9555171516
 H    0.5537312280   -2.9770327231    0.9371380936
 H   -1.9370952155   -2.9007301146   -0.8566702409
 H   -1.4041286960   -4.2872319724    0.1218103824
 H   -1.9389707830   -2.7971961673    0.9112244872
 H    0.4979813915   -2.7811327880   -1.9783236056
 H    1.4929892277   -4.8758700120   -0.1725219264
 H    0.1714668964   -5.1612886810   -1.3030011139