25

 C   -0.0080894792    1.5291141277   -0.0062905647
 C    0.0115387778   -0.0109406744   -0.0149636226
 C    0.7565221442   -0.5216103921    1.2326468950
 C   -1.4339946078   -0.5424305431   -0.0027141512
 C    0.7237375152   -0.5031523022   -1.2695307749
 C    0.3283538648   -0.2320619856   -2.7609855340
 C    1.6053998802   -1.1122944573   -2.8235381043
 C    2.2006867730   -0.2160160556   -1.7048345903
 C    0.9807134128   -1.9861013632   -1.7031701000
 H    1.0065522634    1.9405813119   -0.0109115962
 H   -0.5360392379    1.9252553154   -0.8798617447
 H   -0.5160540430    1.9035769352    0.8891256722
 H    0.2602668868   -0.1773607674    2.1465798630
 H    0.7841103188   -1.6158221039    1.2601921943
 H    1.7890038789   -0.1579806539    1.2566622312
 H   -1.9941487271   -0.1928847246   -0.8761208614
 H   -1.4558740324   -1.6371100271   -0.0047202746
 H   -1.9637278323   -0.1996132997    0.8927922608
 H   -0.5999072052   -0.6900900785   -3.1149519182
 H    0.4255762798    0.7979858177   -3.1163572856
 H    2.1147411520   -1.4642424123   -3.7211925668
 H    2.4411672215    0.8152510029   -1.9794818960
 H    2.9899099331   -0.6588660160   -1.0901522179
 H    1.6761397006   -2.5652358727   -1.0885793850
 H    0.1022981019   -2.5782823912   -1.9761418080