21

 C   -0.0131535963    1.5427625332   -0.1408138502
 C    1.4334249503    2.0568564172   -0.0433185207
 C    2.1981813411    1.4596811543    1.1530861172
 C    1.7660897546    1.9785029643    2.5423461383
 C    0.6163713331    1.1940755790    3.1169275219
 C    0.1520041853    0.0949839508    2.5287198890
 C    0.7625857606   -0.4154040195    1.2472001247
 C   -0.0502387583    0.0142932384    0.0074490240
 O    2.1114717071    0.0337623231    1.1125788184
 H   -0.6275390827    1.9997027691    0.6424358461
 H   -0.4521238328    1.8424532512   -1.0985006436
 H    1.9768375441    1.7632039740   -0.9498921709
 H    1.4583396627    3.1517079849    0.0035741776
 H    3.2628896212    1.6765681801    1.0192949996
 H    2.6179349192    1.9255283083    3.2344038548
 H    1.5049237454    3.0430551706    2.4777930467
 H    0.1865137204    1.5497350892    4.0501726064
 H   -0.6895177944   -0.4568260114    2.9387814308
 H    0.8306594293   -1.5086234602    1.2804761417
 H   -1.0816953129   -0.3478657051    0.0860618143
 H    0.3991780332   -0.4623617413   -0.8719503659