19

 C   -0.0345573065    1.5619635476    0.1352902086
 C    0.0034319889    0.0435802708   -0.0023812902
 C   -1.3832515689   -0.5582803288   -0.2191758124
 C    1.0719536172   -0.5327231431   -1.0141852175
 C    1.7439870385   -1.2533449781    0.1515364941
 O    2.1147154599   -0.2718228121    1.1366264708
 C    0.7648291676   -0.6919271063    1.1300214770
 C    2.4085218216   -2.5656959885    0.2106160358
 O    2.4804527298   -3.3250688830   -0.7252754124
 H    0.9621533729    1.9556564314    0.3501965950
 H   -0.3937879109    2.0246152751   -0.7906008957
 H   -0.7074463334    1.8693283363    0.9439221685
 H   -1.8261387704   -0.1823030858   -1.1472984394
 H   -1.3429622311   -1.6509351575   -0.2861844682
 H   -2.0580477517   -0.2966124525    0.6038685902
 H    0.6435566175   -1.2235201689   -1.7421248025
 H    1.7058427701    0.1967385979   -1.5225507707
 H    0.3700095918   -1.1243461016    2.0448254397
 H    2.8276422370   -2.8056864129    1.2119728095