14

 N   -0.3124292591   -1.1231044497    0.1132713990
 C   -0.1428137868    0.0199851872    0.0949222058
 C    0.0093830245    1.4511222822    0.0518991976
 C    0.5174791685    2.2599877874    1.2172617558
 N    1.4943013524    1.4464894853    1.9585550332
 C    2.4385559746    1.5470816318    0.7979803770
 C    3.0785087249    0.3043189375    0.3618733811
 N    3.6328716486   -0.6432318042    0.0029979714
 C    1.3361418057    2.1914470562   -0.0582122528
 H   -0.7684568140    1.9522621801   -0.5179275084
 H   -0.0500498795    3.0614627864    1.6726012206
 H    1.8615075088    1.9131099526    2.7796612740
 H    3.2248689910    2.2885751755    0.9755774450
 H    1.5136106604    2.9002878618   -0.8548918494