23

 C   -0.0567973482    1.5557943970   -0.0025899858
 C    0.0216485106    0.0219355509    0.0118915702
 C    0.7006789140   -0.5253569841   -1.2575430935
 C    1.0021706094   -2.0071485814   -1.1270039412
 C   -0.1058267267   -2.9841587963   -1.4443756773
 C    1.0885583187   -2.8595537904   -2.3637254092
 C    1.9320942346   -2.3124146326    0.0373809559
 C    1.5816688059   -1.5042805310    1.2609157127
 C    0.7281829026   -0.4812019239    1.2493749379
 H    0.9452294459    1.9990597009   -0.0146873300
 H   -0.5944951345    1.9134676528   -0.8871655349
 H   -0.5785019591    1.9342716933    0.8829209123
 H   -1.0119490716   -0.3586473102    0.0345057624
 H    0.0678648166   -0.3374236122   -2.1329730748
 H    1.6386473864    0.0243173737   -1.4219531089
 H   -0.1943987977   -3.8798404380   -0.8384576455
 H   -1.0555976352   -2.5870908259   -1.7887522556
 H    0.9443970988   -2.3834901471   -3.3284794278
 H    1.8080963060   -3.6724446468   -2.3751114264
 H    1.9044127381   -3.3837055632    0.2762637616
 H    2.9757882691   -2.1054699524   -0.2486023577
 H    2.0669666238   -1.7911800353    2.1912589282
 H    0.5135022725    0.0477241123    2.1765146374