19

 C    0.1151237522    1.3484363225    0.0083420721
 C    1.3788600541    0.5165888703   -0.0088069605
 C    0.0404544417   -0.1478201970    0.0009650274
 C   -0.6787080248   -1.0116030994    1.0495050912
 C   -1.8325731743   -1.1441515837    0.0142788756
 C   -0.6996178849   -1.0002467247   -1.0423056261
 O   -0.0689747856   -2.2761637860   -1.1930552947
 C    0.6275494158   -2.6489727498   -0.0184821513
 O   -0.0453160611   -2.2890130222    1.1737576833
 H   -0.1413544931    1.8703574256    0.9250594220
 H   -0.1595719717    1.8802525357   -0.8973439360
 H    1.9572231933    0.4844157672   -0.9267893775
 H    1.9754557164    0.4745141626    0.8970263686
 H   -0.8626231924   -0.6356278511    2.0575394328
 H   -2.3797935954   -2.0877778052    0.0146259957
 H   -2.5092516690   -0.2868593164    0.0256971986
 H   -0.9036055309   -0.6133700960   -2.0423210772
 H    0.7173527089   -3.7381850679   -0.0252930606
 H    1.6275886408   -2.1928850549   -0.0260024547