16

 C   -0.0553842716    1.4120128448   -0.0362669785
 O   -0.0619035722    0.0043625671   -0.0286271294
 C    0.7376545938   -0.5436157545   -1.0614135560
 C    0.6257820611   -2.0279628860   -1.0323168493
 N    1.6014767514   -2.8230505244   -0.5844696329
 N    1.1068493187   -4.0393138934   -0.7121694941
 N   -0.1312141150   -4.1311187989   -1.2130536352
 C   -0.4474022159   -2.8593155167   -1.4194800926
 O   -1.6222827916   -2.4616006800   -1.9352140597
 H    0.9571159531    1.8186071415    0.1177775673
 H   -0.4465506198    1.8187775591   -0.9827681722
 H   -0.6973800654    1.7443963905    0.7828151001
 H    0.4016775213   -0.1590355560   -2.0388694693
 H    1.7935125003   -0.2599427982   -0.9349270774
 H    1.6325012975   -4.8579004305   -0.4563527555
 H   -2.1497319257   -3.2508443142   -2.1096750354