19

 C   -0.1593976857    1.7017471554   -0.2013664960
 C   -0.0281964789    0.1755819113   -0.1046362608
 C   -1.4219691438   -0.4966396655    0.0146613600
 N   -1.3374522386   -1.9400439493   -0.1915875544
 C   -2.0444891793   -0.1259716349    1.3063533766
 N   -2.5360611656    0.1207650830    2.3238919503
 C    0.7403830871   -0.3854928070   -1.2842496871
 C    2.2090660923   -0.3750527371   -1.2949455817
 O    1.4822855415   -1.5836586145   -1.0632968090
 H    0.8265366593    2.1738955140   -0.2008026688
 H   -0.6713334431    1.9952183064   -1.1248259833
 H   -0.7283322750    2.1034137460    0.6417024560
 H    0.5423366947   -0.0810346399    0.7968472393
 H   -2.0667284837   -0.0861084226   -0.7746220301
 H   -0.6126999507   -2.3425820933    0.3944516954
 H   -2.2150651276   -2.3889734835    0.0483785017
 H    0.2188796276   -0.3553299599   -2.2422024880
 H    2.7452741411   -0.3256685280   -2.2411189060
 H    2.7499341585    0.0184331595   -0.4346821041