25

 C    0.1476859017    1.5374196505    0.1494357990
 C    0.0086258849    0.0147405693    0.2262869687
 C   -1.3558760083   -0.4876526600   -0.2648513128
 C   -1.4791927543   -1.9977384034   -0.2133498638
 C   -1.8910975421   -2.7078647921    1.0560492276
 C   -2.8087939625   -2.7121651339   -0.1469600099
 C   -4.1612450847   -1.9979391812   -0.1396904082
 C   -5.3156731168   -3.0023539451   -0.0837310705
 O   -4.2868664610   -1.0318881286    0.9022097341
 H    1.1278797655    1.8697376786    0.5060733559
 H    0.0295978611    1.8944326664   -0.8799466270
 H   -0.6153030255    2.0350902696    0.7584127147
 H    0.8050176996   -0.4566157128   -0.3655196354
 H    0.1636181889   -0.3191315405    1.2603461375
 H   -2.1555817101   -0.0341498867    0.3291007071
 H   -1.5099402018   -0.1471607385   -1.2991711111
 H   -0.7233603169   -2.5144986710   -0.8025436258
 H   -1.3949191618   -3.6293812834    1.3404937958
 H   -2.1659043276   -2.0737804498    1.8933908247
 H   -2.8456055631   -3.6500628169   -0.6961173628
 H   -4.2557927190   -1.4066757607   -1.0592273784
 H   -5.2372497907   -3.6314042295    0.8118607908
 H   -6.2732497525   -2.4754709971   -0.0544714897
 H   -5.3086402812   -3.6643631327   -0.9555883631
 H   -4.3057688020   -1.5132218405    1.7369302125