21

 C   -0.2032201185    1.4699902267    0.0422142853
 C    0.0571166277   -0.0190148037    0.0250712212
 C   -0.7101993552   -0.9133615359    0.9778776825
 C    0.7750128847   -0.7343478487    1.1622004210
 C    1.6826970368   -1.8168275971    0.5905209853
 C    1.3624772164   -1.8811486828   -0.9073978154
 O    0.2737727422   -2.7711177727   -1.2740897376
 C   -0.4230490544   -1.6924951161   -1.9406835733
 C    0.5083235388   -0.6476180209   -1.2947770835
 H    0.6660419879    2.0324408813   -0.3193565193
 H   -1.0561027264    1.7354255976   -0.5942411979
 H   -0.4288510229    1.8204928276    1.0543458923
 H   -1.3666051473   -0.4174076299    1.6861141408
 H   -1.0656849937   -1.8795724884    0.6370257537
 H    1.1225234235   -0.1764393513    2.0260310925
 H    2.7344453387   -1.5387722035    0.7263204503
 H    1.5408226738   -2.7983902249    1.0561339113
 H    2.2456032915   -2.0894430998   -1.5240780431
 H   -0.3257821915   -1.7684285890   -3.0318822271
 H   -1.4843205443   -1.6554446670   -1.6721207853
 H    0.9482757222    0.0954428985   -1.9632596436