19

 C   -0.0159440215    1.5911908788    0.0251328898
 C   -0.0040142235    0.0624491465    0.0707462071
 C    0.5885229497   -0.5397892063   -1.2125033279
 C    0.9410233988   -2.0209357191   -1.1697248128
 O    1.0794964155   -2.6911745321   -2.1538409665
 O    1.2279460810   -2.5706349316    0.0471778291
 C    0.7013639205   -2.0030311277    1.2618802798
 C    0.7801154700   -0.4849225604    1.2755459061
 O    2.1287927505   -0.0335530484    1.2969236711
 H    1.0072174430    1.9774387047    0.0144396606
 H   -0.5339182779    1.9555704850   -0.8676287513
 H   -0.5238262037    2.0064179972    0.9017039123
 H   -1.0370331777   -0.2966621851    0.1793339742
 H   -0.0599651485   -0.3854132984   -2.0776555289
 H    1.5316961961   -0.0268379546   -1.4473228740
 H   -0.3357250438   -2.3362807630    1.3911998114
 H    1.3075207338   -2.4332026611    2.0625847586
 H    0.3259314276   -0.1241292129    2.2062563109
 H    2.6512383002   -0.6241551116    0.7431206106