14

 O    0.0686952299    1.3585251707   -0.0172006359
 C   -0.0104716279   -0.0377420536   -0.0103974369
 C    0.3804055969   -0.6742712351    1.3481843249
 O   -0.5322054885    0.0538793251    2.2360753286
 C   -1.5667190372   -0.7447633856    1.6360983366
 C   -0.6198430758   -1.9072319864    1.3256785759
 O   -1.1134235033   -2.0795424779   -0.0051575232
 C   -1.4315900692   -0.6566487113    0.0509042728
 H   -0.2063767338    1.6380892430    0.8679921909
 H    0.5402494275   -0.4312039803   -0.8660594791
 H    1.4125810076   -0.6849478873    1.6898815371
 H   -2.5266033066   -0.7513147779    2.1469831567
 H   -0.4360017695   -2.8130610290    1.8992316284
 H   -2.2066162300   -0.3316382944   -0.6388635768