17

 C   -0.4781652075    1.5786023848   -0.0147009889
 C   -0.0757473474    0.1327626695    0.0562055517
 C   -1.1231619056   -0.9877611109    0.2230111262
 O   -0.2988543183   -1.6509801402    1.2201523269
 C    0.6906696820   -0.6188387039    1.1689832473
 C    1.7692883415   -0.8772256027    0.0841699487
 O    0.9323127369   -0.2285030258   -0.9206087748
 C    3.0415109452   -0.2027654900    0.2708208748
 C    4.0843278740    0.3641112424    0.4616916837
 H    0.3975133146    2.2266678091    0.0755498468
 H   -0.9562166939    1.7876188388   -0.9783256029
 H   -1.1878362848    1.8261136285    0.7805334116
 H   -2.0832305034   -0.6760061127    0.6527780412
 H   -1.2884885320   -1.6017391459   -0.6680139183
 H    1.0009069668   -0.2507532647    2.1476927176
 H    1.9093261841   -1.9416082850   -0.1354123436
 H    5.0123413380    0.8570337988    0.6170058219