15

 C    0.1640832096    1.6241954584   -0.0730073362
 C    0.1003768389    0.1046659238   -0.0059682083
 C    0.6507250012   -0.7615308040   -1.1832026804
 C    1.3636630115   -1.7175372160   -0.1676702493
 C    2.7271879109   -2.1328673833   -0.4184602107
 N    3.8246120638   -2.4344791252   -0.6225690009
 C    1.1022095329   -0.6104152200    0.9114494151
 O    1.5943607409   -0.3675956179    1.9673571097
 H    1.1686301650    1.9632766580   -0.3442251114
 H   -0.5395988570    2.0125678990   -0.8152740919
 H   -0.0867341240    2.0606225334    0.8977962815
 H   -0.9112728571   -0.2252899622    0.2648775313
 H   -0.0830351876   -1.2334536414   -1.8356696005
 H    1.3759059488   -0.2135783182   -1.7877442537
 H    0.7431768923   -2.5907341542    0.0623053957