16

 O    0.4330511351    0.6433390092    0.7972653844
 C   -0.1822719165   -0.2962118020   -0.0383907728
 C   -1.6163318435    0.0587272249   -0.4444021158
 C   -1.7545152315   -0.7043171376   -1.7814724917
 O   -0.4141083048   -0.6852089144   -2.3569759263
 C    0.4960694365   -0.3976849065   -1.3914952304
 N    1.7286444650   -0.1878758701   -1.5538080155
 C   -2.2203543962   -2.0788229344   -1.6270743505
 C   -2.6194935139   -3.2034671853   -1.4898036283
 H    1.3425242872    0.7226581486    0.4721568282
 H   -0.1724813910   -1.2992841888    0.4204860476
 H   -2.3737606851   -0.2347896125    0.2816733435
 H   -1.6794020166    1.1363485682   -0.6194465324
 H   -2.3945773897   -0.1759392620   -2.4928820507
 H    2.0137469006   -0.2607511838   -2.5300191210
 H   -2.9700030856   -4.1998210936   -1.3747865684