12

 O   -0.0322059394    1.2490617690    0.0101547552
 C    0.0415009428   -0.0797944581    0.0022091810
 N    1.1389726424   -0.7898484673   -0.0088298313
 N    0.6350026126   -2.0708172835   -0.0126602494
 N    1.1700891342   -3.3101762364   -0.0231602983
 C    0.0551108906   -4.0454918822   -0.0199819412
 N   -1.1445720169   -3.3760111308   -0.0085741390
 C   -0.7073176409   -2.1331972657   -0.0043613393
 N   -1.1200904901   -0.8162053926    0.0054646962
 H    0.8719675890    1.5916102684    0.0060416379
 H    0.1069998420   -5.1235244347   -0.0263606474
 H   -2.0581723163   -0.4560380262    0.0140928257