19

 C    0.1257375715    1.3694009981    0.1932262230
 O    0.3225633621   -0.0422747108    0.0529674200
 C    0.3082613328   -0.5022169751   -1.2167638314
 O    0.1441983895    0.2155184075   -2.1770026859
 C    0.5067792642   -1.9742797934   -1.2382353627
 C   -0.0949266664   -2.7655519287   -2.3877598383
 C    1.3883559001   -2.6385742803   -2.2935802361
 C    2.1754474606   -1.8497312033   -3.3094412352
 O    2.4660699541   -2.7369662145   -4.3851020949
 H    0.9124599065    1.9232517758   -0.3254131125
 H   -0.8412061874    1.6677859005   -0.2198571368
 H    0.1612915999    1.5687667798    1.2643690118
 H    0.5144562634   -2.4293231635   -0.2559300463
 H   -0.5658829554   -3.7124013065   -2.1509724111
 H   -0.5930344808   -2.1737597299   -3.1477619184
 H    1.9219179818   -3.5100503121   -1.9242812536
 H    1.5953427272   -0.9816149148   -3.6414661135
 H    3.1040460523   -1.4764707143   -2.8469607299
 H    2.9229845339   -2.2333793646   -5.0650815283