21

 C   -0.1023158217    1.5565760201    0.0054455839
 C    0.0478683873    0.0545984859    0.1332770602
 C    1.2681076315   -0.7466549569   -0.2397996976
 C    2.5594911688   -0.0192371873    0.1582413553
 C    2.0623186032   -0.0347017446    1.6481259405
 C    2.0242453558    1.2360239003    2.4542966133
 O    1.0568427329    1.6567608567    3.0382188891
 C    0.7580911559   -0.7192347276    1.2169957546
 C    0.0813373388   -1.7799146372    2.0384675167
 H    0.8336242238    2.0955490254    0.1685451733
 H   -0.4559214443    1.8163803787   -0.9986669739
 H   -0.8240073117    1.9404129558    0.7325692226
 H   -0.8616984626   -0.4726944943   -0.1535335959
 H    1.2268154113   -1.5594859546   -0.9560916966
 H    3.4591962889   -0.6199030486    0.0152326388
 H    2.7256296251    0.9624796114   -0.2968509372
 H    2.6970110479   -0.7291262496    2.2169809771
 H    2.9989591309    1.7798698632    2.4996938810
 H   -0.4000675170   -1.3408294742    2.9198531209
 H   -0.6908063680   -2.2973188697    1.4598529918
 H    0.7963885732   -2.5334854428    2.3906131820