20

 C   -0.0812246709    1.6096171035    0.2980957074
 O    0.3674093374    0.3328954010   -0.1091754645
 C    0.7630025675   -0.4819039113    0.9537565202
 C   -0.4066925556   -1.2178240027    1.7909648192
 C   -0.0149394782   -2.4789554232    0.9819882763
 C    0.6178739636   -3.8854675530    0.7187244910
 N    1.1473526943   -3.0348219384   -0.4853605042
 C   -0.2899706878   -2.4986117297   -0.5432932223
 C    1.3333323516   -1.9282995935    0.6286247213
 H    0.7001943104    2.1487222053    0.8552437463
 H   -0.3235209684    2.1690987153   -0.6079763459
 H   -0.9785794443    1.5491257059    0.9305783395
 H    1.4624796592    0.0663601748    1.6034662018
 H   -0.1581059464   -1.2583738758    2.8548503611
 H   -1.4228011994   -0.8327884012    1.6662295947
 H    1.4039627637   -4.2203953937    1.4004390240
 H   -0.0155311453   -4.7142775917    0.3875293787
 H   -1.0129405115   -3.2338650655   -0.9095521870
 H   -0.3772031971   -1.5509686288   -1.0709677849
 H    2.1996970275   -2.1500249875    1.2569254872