17

 C   -0.0112788374    1.5418272037    0.0362440952
 C    1.2923350552    0.7914034618   -0.0278914381
 C   -0.0400451437    0.0381730622   -0.0334266642
 C   -0.4693864584   -0.6670767979   -1.2822150874
 O   -0.8192813875    0.1167514302   -2.4233428122
 C    0.3778827851   -0.6550551407   -2.4986826509
 C    1.6863520824    0.0846396906   -2.4932380181
 O    1.6418758013    1.5080758074   -2.4131187014
 C    2.1258419277    0.8000535113   -1.2714241066
 H   -0.2821967621    2.0141676138    0.9731742934
 H   -0.3056180910    2.0690725940   -0.8628075667
 H    1.8730005879    0.7243368276    0.8858564867
 H   -0.2877323213   -0.4971875673    0.8768728446
 H   -1.1150831320   -1.5305236245   -1.1247100450
 H    0.3303510011   -1.5000047258   -3.1851066484
 H    2.4391436631   -0.3078871698   -3.1763229509
 H    3.1975787995    0.9074874634   -1.1067695400