14

 O    0.0819844188    1.3603498205    0.0059240061
 C    0.0617313058    0.0114452399   -0.0569043281
 C   -0.0027578302   -0.7618859718   -1.1858846215
 N    0.0038665088   -2.0697766773   -0.7076904801
 C    0.0697798103   -1.9923202883    0.6359158591
 N    0.0956989085   -3.1086535474    1.4659418496
 C    0.0582561058   -4.4038109338    1.0447253798
 O   -0.0028847727   -4.7514329746   -0.1203578523
 N    0.1070554601   -0.7514122611    1.0804041524
 H    0.1299997618    1.5886088095    0.9416393579
 H   -0.0502425530   -0.5261262727   -2.2330640182
 H   -0.0320494420   -2.9457533310   -1.2077892573
 H    0.1461457297   -2.9045840888    2.4527162709
 H    0.0898879682   -5.1156256630    1.8872689618