18

 C   -0.1706746126    1.5699696948    0.1073701402
 C    0.0614286238    0.0728063574   -0.0106372850
 C    0.7457153109   -0.5434377083   -1.2710484342
 C    2.0899990907    0.1378288938   -1.6485044859
 C    2.7557881772   -0.5445567983   -0.4335676557
 O    2.4053270171    0.1088701529    0.8086986368
 C    1.1443005621   -0.5987877868    0.8724994648
 C    1.5452347247   -1.5145838188   -0.3158937660
 H    0.7791105314    2.1109509572    0.0949030296
 H   -0.7925985949    1.9429529250   -0.7138969462
 H   -0.6781741262    1.8150861567    1.0471091861
 H   -0.8752997642   -0.4769841414    0.1510934343
 H    0.0972794015   -0.8694637495   -2.0844401034
 H    2.4814285886   -0.2848333962   -2.5803701577
 H    2.1389978328    1.2286695929   -1.7018725088
 H    3.8141677623   -0.8111811269   -0.4685700787
 H    0.9014708565   -0.9030560579    1.8932631191
 H    1.5622114380   -2.6005531666   -0.3390046492