21

 C   -0.2127598503    1.3608394474    0.0206581442
 O    0.2316289189    0.0226882901   -0.0783842482
 C    0.7360643395   -0.5361758530    1.1041758008
 C   -0.1046449803   -0.5708106170    2.4180264364
 C    0.6415458187   -1.9115822255    2.6811271003
 C    0.7516561792   -2.0757697602    1.1409704479
 C    2.0291524207   -1.6012413384    3.2553660633
 O    2.5115485566   -0.3468497396    2.7892798609
 C    2.1576468052   -0.0362978563    1.4485762953
 H    0.6031486902    2.0663836535    0.2308882227
 H   -0.6516636541    1.6191700629   -0.9458741086
 H   -0.9789138732    1.4774831591    0.8001203738
 H    0.0188296857    0.2377600022    3.1412630258
 H   -1.1622822289   -0.7371839760    2.2003286347
 H    0.1374293115   -2.6945585005    3.2504612960
 H   -0.1604525196   -2.4866427357    0.7014527315
 H    1.6283920230   -2.5885727737    0.7333826170
 H    1.9977980709   -1.5163395684    4.3471287276
 H    2.7309545997   -2.4124995104    2.9994263650
 H    2.8734381043   -0.4692414413    0.7313448470
 H    2.2212240624    1.0536755112    1.3720067468