16

 O    0.1936708376    1.3918850007   -0.2201725827
 C    0.0731476282    0.0063046016   -0.0228571216
 C    0.2142717105   -0.8004351260   -1.3270963718
 O   -0.9700688309   -1.5650351209   -1.0190706387
 C   -1.3211568819   -0.6938847407    0.0818312213
 C   -1.3821095311   -1.4306216908    1.4238493104
 C    0.0310969548   -1.2929043272    1.9495728377
 C    0.8080592970   -0.5341510935    1.1747324670
 H    0.1633511364    1.8194221753    0.6425857014
 H    0.0835907556   -0.1727090133   -2.2180500806
 H    1.1003548212   -1.4339521486   -1.4420431048
 H   -2.1980254575   -0.0802630009   -0.1506104711
 H   -2.1200635677   -1.0050979989    2.1166979468
 H   -1.6647367328   -2.4768235866    1.2593283237
 H    0.3583675133   -1.7825928188    2.8609918787
 H    1.8549757973   -0.3092853511    1.3497880942