19

 C    0.2532200909    1.4812627230    0.2406569662
 C   -0.1784301248    0.0563054929   -0.1298202960
 C    0.5415331753   -0.4781009463   -1.3441302064
 C    0.2666257879    0.1137041314   -2.7224802088
 O    0.8392509167   -0.7968413161   -3.6574198889
 C    0.7472664868   -2.1076153289   -3.1020950505
 C    0.8634646526   -1.9070649106   -1.6038223649
 N    1.9121607346   -0.9812725357   -1.1513186248
 H    1.3324310009    1.5181846118    0.4176160972
 H    0.0166989876    2.1961866243   -0.5547929884
 H   -0.2523736448    1.8203145070    1.1496566875
 H    0.0219492398   -0.6146414960    0.7117714797
 H   -1.2610058818    0.0264700709   -0.3105696746
 H   -0.8214171191    0.2155288326   -2.8724564007
 H    0.7305627317    1.0905010668   -2.8961298454
 H   -0.2160885938   -2.5851859959   -3.3457007548
 H    1.5512914449   -2.7060481485   -3.5440092439
 H    0.5999056021   -2.7143084610   -0.9276490306
 H    2.4977123523   -0.7180010615   -1.9434003320