15

 C   -0.0295543997    1.4827507536    0.0631940616
 N   -0.0075306389    0.0236630857    0.0429613642
 C   -0.0363562758   -0.6875317200   -1.1377761094
 N   -0.0195966064   -1.9597956354   -1.2653859233
 C    0.0341204022   -2.7767307435   -0.1003912593
 O    0.0520483186   -3.9878875267   -0.1898815834
 C    0.0665807044   -2.0608021949    1.1713433136
 C    0.0453221700   -0.7089438993    1.2069324555
 O    0.0709666529    0.0693563665    2.3091519224
 H    0.8720137797    1.8802739896    0.5357667251
 H   -0.0774546775    1.8343661544   -0.9681803026
 H   -0.9015087043    1.8519226287    0.6084709894
 H   -0.0775689437   -0.0535484407   -2.0232375174
 H    0.1081774266   -2.6375620259    2.0878698504
 H    0.1074556021   -0.4999093722    3.0864985532