21

 O   -0.1602757677    1.4833872602   -0.1953683309
 C   -0.0280155791    0.0706958375   -0.0279672226
 C   -1.4631582899   -0.4474200860    0.0842219156
 C   -1.5735422283   -1.9828252238    0.1113286983
 C   -0.7406772750   -2.6083165332    1.1946122302
 C    0.5482252888   -2.9473116164    1.0640321749
 C    1.3725717727   -2.8283797774   -0.1415522138
 C    1.4241864747   -1.8735206642   -1.0831010440
 C    0.7684966687   -0.5197631382   -1.2065535857
 H    0.7172985010    1.8734393137   -0.1331212359
 H    0.5106359860   -0.1464845860    0.9042497592
 H   -1.9088998641   -0.0172003605    0.9879247372
 H   -2.0315385384   -0.0509148122   -0.7654140410
 H   -2.6259634913   -2.2574873687    0.2417325767
 H   -1.2563713659   -2.3811815049   -0.8594773096
 H   -1.2241783150   -2.7777763964    2.1544219551
 H    1.0379531816   -3.4312808504    1.9077430028
 H    2.0590336365   -3.6635405758   -0.2833442475
 H    2.1107516220   -2.0674193220   -1.9071961471
 H    0.1429705232   -0.4964167703   -2.1117149835
 H    1.5800686095    0.1917768350   -1.4243881281