18

 C    0.5716311791    1.2243592324    0.3552379806
 C   -0.1723377267   -0.0637760682   -0.0194569942
 C    0.2879443860   -0.5997215796   -1.3528085404
 O    1.5505066833   -1.2899624532   -1.3951999392
 C    0.3769857556   -2.0239479680   -1.7259333791
 C    0.0140005802   -3.1933107191   -0.8602935383
 C    1.0521996660   -3.9775720386   -0.1742413361
 O    0.1864034459   -3.0994758079    0.5490004358
 H    1.6474050609    1.0391195446    0.4312307957
 H    0.4187878642    2.0088919665   -0.3945584990
 H    0.2252039249    1.6107273004    1.3181536313
 H   -0.0243323163   -0.8275054084    0.7448851693
 H   -1.2507002374    0.1333549079   -0.0836898308
 H    0.1676025250    0.1005965902   -2.1845956608
 H    0.2802807414   -2.2656200251   -2.7887909187
 H   -0.8995525201   -3.7040676855   -1.1702955861
 H    0.8986685232   -5.0394695071    0.0089530747
 H    2.0847274648   -3.6439278512   -0.2461849346