20

 C    0.5046151371    1.4492268642    0.3767547538
 C   -0.2355915650    0.1915845543   -0.0964517701
 C    0.4509833766   -0.4697758096   -1.2748147225
 N    1.7517962413   -1.1405195849   -1.0352786197
 C    0.6198581055   -1.9566360739   -1.4594824168
 C    0.1328239939   -2.9974627262   -0.4759974885
 O    0.9712688186   -4.1402465221   -0.5058648963
 C    0.3469812638    0.2454845241   -2.5835450730
 O   -0.3327088189    1.2170358010   -2.7943242921
 H    1.5311222703    1.2042291037    0.6660117491
 H    0.5364403280    2.2053126713   -0.4119192444
 H    0.0022830583    1.8882705492    1.2435535988
 H   -0.3159549060   -0.5174560613    0.7306570563
 H   -1.2543919074    0.4516864717   -0.4026137622
 H    2.3958871074   -0.9703815930   -1.8068241678
 H    0.6264578342   -2.3141690978   -2.4897692354
 H    0.0734245197   -2.5730949806    0.5336627170
 H   -0.8665506303   -3.3421584291   -0.7601031149
 H    1.8457666552   -3.8502369899   -0.2224755184
 H    0.9773745579   -0.2087996810   -3.3886108928