20

 O    0.7696678998    0.8525464217   -0.4455205756
 C    0.2295947822   -0.2442558149    0.2470069198
 C   -0.2020348309   -0.1100081307    1.7303906167
 C   -1.3654595167   -1.0896209104    1.4161733797
 C   -1.1957447939   -0.7545947686   -0.0907810652
 C   -2.2334149550    0.2313651004   -0.7029091039
 C   -2.8420174874   -0.9578056863   -1.4946879197
 C   -1.5485465545   -1.7663566100   -1.2049004238
 H    0.1818178531    1.6038010452   -0.3126517421
 H    0.9576556979   -1.0543632632    0.1259762634
 H    0.5181534122   -0.3800406460    2.5059057255
 H   -0.5750994169    0.8996637454    1.9362720378
 H   -1.0943513792   -2.1276145803    1.6329555881
 H   -2.3377156970   -0.8814607154    1.8697063876
 H   -2.8878424069    0.7734972383   -0.0139415933
 H   -1.7502097250    0.9518175754   -1.3719968423
 H   -3.7124652474   -1.3824830799   -0.9874991759
 H   -3.1040435425   -0.7800229156   -2.5401753272
 H   -0.8347218571   -1.7120614931   -2.0336356031
 H   -1.6591069447   -2.8134417321   -0.9084314966