21

 C   -0.0234842381    1.4918236951   -0.0221810132
 C   -0.0795061447   -0.0071372303    0.0834649995
 C   -1.3087890393   -0.7752581989   -0.3857076937
 C   -1.0883748751   -2.1964828929    0.1412845474
 C   -2.1530206053   -3.2539116432    0.0374920086
 C   -0.9152511931   -3.3391023465   -0.8235770026
 C   -0.1759892298   -2.0884604226    1.3684826713
 C    0.5928453417   -0.8059563867    1.1213572235
 O    1.1442631757   -0.7113428907   -0.2007275683
 H    0.9066729056    1.8733761854    0.4063405121
 H   -0.0690657440    1.8087060450   -1.0701051728
 H   -0.8674985479    1.9520399809    0.5027263291
 H   -2.2030536796   -0.3160959922    0.0578155637
 H   -1.4303445367   -0.7438914544   -1.4740723841
 H   -2.2578821187   -3.9575483295    0.8574375511
 H   -3.0920890018   -2.9894221065   -0.4385556074
 H   -1.0126392243   -3.1305758432   -1.8840330227
 H   -0.1772771044   -4.0988241690   -0.5874238113
 H   -0.7540508392   -1.9832626866    2.2969692147
 H    0.4765943926   -2.9601591977    1.4837920906
 H    1.1928969063   -0.3557336953    1.9095067844