17

 C   -0.1443096573    1.7453406500    0.0746073755
 C   -0.0063313658    0.2302723665    0.0129840431
 C    1.1278842425   -0.2926064561   -0.9338067283
 C    1.9443672267   -0.6122302976    0.3306088843
 O    3.0946900542   -0.8638744392    0.5304083373
 C    0.7243787896   -0.3928057284    1.2356814828
 O   -1.2951300286   -0.3882138843   -0.1488958944
 C   -1.8819075063   -0.3293338973   -1.3603149296
 O   -2.9714473148   -0.7724740942   -1.5678451579
 H    0.8227441473    2.2101135386    0.2902311617
 H   -0.5080351694    2.1525986753   -0.8740412739
 H   -0.8470244696    2.0268656075    0.8639499053
 H    0.8459852288   -1.2120688019   -1.4570525475
 H    1.5693792388    0.4066384088   -1.6475594058
 H    0.8614051589    0.2303432795    2.1221562719
 H    0.2665138726   -1.3428612715    1.5284685998
 H   -1.2510576174    0.1533496942   -2.1301193743