17

 O   -0.0304181538   -0.0036909577   -0.2886025299
 C    0.0087356478    1.1591518205   -0.0004529018
 O   -1.1374060361    1.8268881058    0.3235594308
 C   -1.0144407159    3.2005729454    0.6535374274
 C   -0.0122845831    4.0646122099   -0.0600319947
 C    0.9935566148    3.2619268007   -0.8667833795
 C    1.2412181993    2.0398227152    0.0545471084
 C    1.3103927387    2.6726776844    1.4682074897
 C    0.1872533142    3.6935086739    1.4105121001
 H   -1.9940214503    3.5968182928    0.8864530892
 H   -0.2973830028    5.0615787381   -0.3739955184
 H    0.6242946690    2.9710206621   -1.8552830035
 H    1.9223085185    3.8255648711   -1.0056257444
 H    2.1115229998    1.4433187587   -0.2140767101
 H    1.1831939031    1.9315847192    2.2636406799
 H    2.2780314208    3.1639943151    1.6159513356
 H    0.0536868961    4.4086443347    2.2133431011