14

 O    0.3143382717    0.0298270575    1.1693133612
 C   -0.2763510559    0.1506094516   -0.1068927406
 C   -1.4572485282   -0.7784368692   -0.3396829179
 C   -1.4937044165   -2.1744927379    0.2175377160
 N   -2.3586701680   -1.1409420987    0.7356800873
 C   -2.3145359474   -0.7032501383    2.0536892062
 O   -2.2049932142   -1.4329004500    3.0071968125
 H    0.7861543393   -0.8072441971    1.2196076516
 H   -0.6161928538    1.1897196754   -0.1803244695
 H    0.4522336567   -0.0055712436   -0.9176122186
 H   -1.9474428738   -0.6082848365   -1.2986600406
 H   -1.9699196787   -2.9710273897   -0.3471870135
 H   -0.6874313918   -2.4975301002    0.8725081949
 H   -2.4882032193    0.3849955364    2.1330901710