18

 O   -0.1706579379    1.3205135347    0.0979470965
 N    0.0126525132   -0.0901164520    0.1124592048
 C   -1.1169021697   -0.6641943257    0.0983688762
 C   -2.5585026328   -0.1893805412   -0.0383717517
 O   -2.8219216229    0.7286197273   -1.0689151441
 C   -2.9479570948   -1.6681106144   -0.3571888696
 C   -1.5135572911   -2.0946371494    0.0222382489
 C   -0.6915672123   -3.2589926801   -0.4619731261
 C   -1.0928843656   -3.1835677021    0.9841265583
 H    0.7344263206    1.6444962750    0.0465079255
 H   -2.9674617989    0.1465095973    0.9269946425
 H   -2.1738400063    1.4371118049   -0.9696532335
 H   -3.7607190451   -2.0889567315    0.2377830053
 H   -3.1657944236   -1.7859255896   -1.4210247894
 H   -1.1883130054   -3.9856486017   -1.0964306861
 H    0.3417236841   -3.0563687655   -0.7214780942
 H   -0.3342631863   -2.9323539934    1.7173622664
 H   -1.8675581053   -3.8556754726    1.3391035302