19

 O   -0.2274716779    0.0406463508    0.5486087776
 C   -0.0542184127    1.1593035562    0.1221519161
 C   -1.2160474198    2.0828466497   -0.2245320255
 C   -1.4290262785    3.1804671233    0.8018957527
 C   -0.6754771793    3.5048683950    1.8545637296
 C    0.6168211175    2.8410286946    2.3000492616
 C    1.6441235926    2.7036616679    1.1855116286
 C    2.3950193147    1.4155166355    0.9511730882
 C    1.2955301212    1.8091694302    0.0096057632
 H   -1.0395431271    2.5453210885   -1.2066463580
 H   -2.1263449036    1.4789537805   -0.3099085243
 H   -2.3409087139    3.7513866190    0.6379252222
 H   -1.0290666046    4.3204338005    2.4809897224
 H    1.0507186309    3.4082172770    3.1294557113
 H    0.3921134724    1.8462525891    2.7054926830
 H    2.1594154097    3.6258144274    0.9325553497
 H    3.4184622462    1.4721886765    0.5978403401
 H    2.1871889315    0.5772486098    1.6078389402
 H    1.5403560307    2.1877164387   -0.9787213589