20

 O   -0.1451418521    1.3226503517    0.0057190482
 N   -0.0112235237   -0.0853769655    0.0021707908
 C   -1.1384518997   -0.6603722129    0.0090272307
 C   -2.5801355266   -0.1890817363    0.0200138313
 C   -3.1133488150   -0.9318151198   -1.2330502809
 C   -2.2992587889   -2.2738694744   -1.2421575883
 C   -1.3902571238   -2.1523006178    0.0080460812
 C   -2.2816220563   -2.2784970580    1.2704305317
 C   -3.0957498918   -0.9364546681    1.2776776726
 H    0.7745529428    1.6081360088   -0.0002086019
 H   -2.7403472212    0.8862982711    0.0231224285
 H   -4.1931739157   -1.0947007700   -1.1700315270
 H   -2.9201637051   -0.3514095275   -2.1390898099
 H   -2.9419256157   -3.1573724415   -1.1888433560
 H   -1.6965959325   -2.3583228551   -2.1503805695
 H   -0.5076289773   -2.7899834137    0.0006788879
 H   -2.9249783605   -3.1618285555    1.2229133382
 H   -1.6662612971   -2.3662460325    2.1697839129
 H   -2.8899020334   -0.3593901389    2.1830618372
 H   -4.1763520764   -1.0991586643    1.2291775522