18

 O    0.1273299082    1.1336102540   -0.6280991990
 C   -0.0414228723    0.0682048718    0.2931472163
 C   -1.4552878058   -0.4115491468    0.3260417406
 C   -1.9254333005   -1.8181059918    0.4638914343
 C   -3.3973215489   -1.6039420883    0.8744235804
 C   -3.4179570353   -0.3932792496    1.8429337255
 C   -2.7459017228    0.3673934913    0.6720871604
 C   -3.3874573903   -0.6276189586   -0.3476674456
 N   -2.0366281128   -1.1303503901   -0.8708077232
 H   -0.2203527693    0.8147650039   -1.4696072122
 H    0.6221502990   -0.7794408794    0.0574483567
 H    0.2554086890    0.4582761620    1.2735202652
 H   -1.2819387330   -2.6773023778    0.6117307784
 H   -4.0515093443   -2.4671322105    0.9753528126
 H   -4.4377212905   -0.0392521741    2.0247003403
 H   -2.8768871326   -0.4746765764    2.7906644793
 H   -2.7433282935    1.4501765867    0.5726489343
 H   -4.2082659845   -0.4279125464   -1.0328032143