19

 C    0.0612316901    1.5329201655   -0.1226346235
 C    0.0303015038    0.0387676897    0.0592804244
 O    1.3204949453   -0.6405272939    0.0042646781
 C    0.5908191642   -0.6353297258    1.2206387695
 C    1.1231640239   -0.2283620761    2.6053454028
 C   -0.2039530578   -0.8283521892    3.1582319950
 C    0.2487661645   -1.8609625144    2.0828535446
 C    1.6919247858   -1.6935508840    2.6843668002
 O    2.8213542968   -2.0692903904    1.9663676309
 H    0.8470277992    1.9836148837    0.4883680932
 H    0.2469587372    1.7896215812   -1.1705890713
 H   -0.9010208452    1.9704797037    0.1649301490
 H   -0.7416628597   -0.4854229286   -0.5064620185
 H    1.6134289318    0.6994297102    2.8983324270
 H   -0.1762259173   -1.1743990679    4.1938292005
 H   -1.1166902158   -0.2711555900    2.9419903116
 H   -0.2532174899   -2.7794643305    1.7805506947
 H    1.8116351004   -2.0813537632    3.6995633366
 H    2.7374740626   -1.7420748102    1.0621548552