15

 C    0.0674908116    1.4915462111   -0.0357059765
 N   -0.0070971739    0.0333288984    0.0366688009
 C    0.7089395343   -0.5145718038    1.1851229052
 C   -1.3573350367   -0.4927104605   -0.0684604917
 C   -2.2751959178   -0.0338933925    1.0147997950
 N   -2.9046677332    0.3396677373    1.9085304927
 C   -1.9469452267   -0.1892625512   -1.3863601674
 N   -2.4014782541    0.0323288272   -2.4235800765
 H    1.1196713954    1.7822345020   -0.0834928348
 H   -0.4242325481    1.8428460687   -0.9464508515
 H   -0.3945203626    1.9911338825    0.8314368998
 H    0.2893776554   -0.1974813011    2.1544550241
 H    0.6984466695   -1.6081679543    1.1421326287
 H    1.7491365075   -0.1833736340    1.1371678928
 H   -1.2979074706   -1.5861207999    0.0111270291