22

 C    0.1018136926    0.8297465649   -1.3702529807
 C    0.0106333020    0.0180938225   -0.0743185704
 O   -1.3382332042   -0.3393142890    0.1201488540
 C   -1.8498094925   -0.4716711004    1.4709644505
 C   -1.8995370036    0.9058783257    2.1486042493
 C   -3.2672376964   -1.0055561966    1.2491723464
 C   -1.0266706856   -1.4670637501    2.2983862053
 C    0.8773910462   -1.1829378180   -0.1663057933
 N    1.5564650637   -2.1140117715   -0.2533362475
 H    1.1395537224    1.0907669204   -1.5928639770
 H   -0.3035061943    0.2482249513   -2.2013607099
 H   -0.4860688835    1.7436519180   -1.2599270624
 H    0.3924564507    0.6259217628    0.7564304947
 H   -2.4571733183    1.6142856659    1.5294409027
 H   -2.3967998746    0.8312073513    3.1203947501
 H   -0.9005609795    1.3150413589    2.3302121192
 H   -3.2325754187   -1.9743834527    0.7440794400
 H   -3.7866133412   -1.1266793703    2.2039884837
 H   -3.8403920710   -0.3143208509    0.6252472507
 H   -0.0107746088   -1.1075093250    2.4878723261
 H   -1.5041932145   -1.6221975817    3.2707142661
 H   -0.9572552009   -2.4318846555    1.7898577023