21

 C    0.0995911963    1.5558013830    0.0453077736
 C    0.0032361998    0.0284824998   -0.0012870021
 C   -1.4475318675   -0.5139161254   -0.0367903133
 C   -2.2124648458   -0.0970476025   -1.3096698542
 C   -1.4495477589   -1.9703478872    0.1092651876
 C   -1.4374632695   -3.1697393505    0.2103943702
 C   -1.4252970160   -4.6285056703    0.3432206519
 C   -2.7608261383   -5.2301033230    0.3501435817
 C   -3.8496965227   -5.7358023497    0.3570251795
 H    1.1425230235    1.8727010524    0.1422164581
 H   -0.3008998231    2.0224880021   -0.8595209570
 H   -0.4506135508    1.9618999107    0.9018518314
 H    0.5418461168   -0.3569956498   -0.8757241167
 H    0.5028636071   -0.3942870381    0.8770946644
 H   -1.9782617861   -0.0885748801    0.8279385928
 H   -2.2924821076    0.9910196037   -1.3799675732
 H   -1.6996173636   -0.4650584962   -2.2040671208
 H   -3.2229254957   -0.5134821629   -1.3055682137
 H   -0.8377470194   -5.0687912087   -0.4745362508
 H   -0.8997352344   -4.9107243505    1.2662302143
 H   -4.8151998841   -6.1773964166    0.3626129363