20

 C    0.1088705824    1.2507797239    0.5719325207
 C    0.0603902370   -0.1588253835   -0.0297159944
 C   -1.3469614669   -0.7168039537   -0.0738300476
 C   -1.7198599526   -2.1768305819   -0.2026238023
 C   -0.7988346578   -3.0862120944    0.6311363008
 N   -1.1274548426   -2.2699309530    1.8114922225
 C   -0.3797361711   -2.0434488125    2.9202188875
 O    0.5863488692   -2.7009806816    3.2473702543
 C   -2.0403753897   -1.4031929682    1.0776925264
 H    1.1313963095    1.6391586750    0.5856491639
 H   -0.5069192121    1.9500389362   -0.0045315636
 H   -0.2645466489    1.2523672445    1.6012820280
 H    0.4648172583   -0.1405352345   -1.0495541382
 H    0.7145600487   -0.8224034223    0.5449482166
 H   -2.0467091416   -0.0888383816   -0.6256940300
 H   -2.4090149397   -2.5379478236   -0.9532068641
 H   -1.1713803720   -4.1103356731    0.7258725875
 H    0.2657591764   -3.1106110864    0.3805440053
 H   -0.7827008747   -1.2011832765    3.5211425859
 H   -2.9922749518   -1.1052955130    1.5009722008