16

 C   -0.1271065944    1.2728697480   -0.1237107723
 O    0.0545018893   -0.1343218710    0.0843648405
 C    0.7111289156   -0.4532418687    1.2226453609
 O    1.1311348313    0.3246130729    2.0298076822
 N    0.8028318939   -1.8466303855    1.2726552759
 C    1.3976614792   -2.6073952048    2.2639847811
 O    1.9366524445   -2.1687120687    3.2525075191
 C    1.3291047468   -4.1184377065    2.0215089071
 O    1.9503459718   -4.7983968607    3.0662502953
 H    0.8387358622    1.7802304813   -0.1812682421
 H   -0.6635775974    1.3625358452   -1.0679329561
 H   -0.7089787236    1.7095162834    0.6913652811
 H    0.3844215173   -2.3321764966    0.4925406214
 H    0.2704245982   -4.4121301773    1.9256433342
 H    1.8109569374   -4.3421903535    1.0550304935
 H    2.2602964079   -4.1027049375    3.6700514181