20

 O   -0.2189725237    1.4996424042    0.0654218291
 C    0.0229952898    0.0979335280    0.0520834899
 C   -1.3347257522   -0.5816099823   -0.0472539209
 C   -1.2609949442   -2.0834421667   -0.0693981263
 N   -0.1568665700   -2.7076976993   -0.0818377825
 C   -0.1595751167   -4.1660282791   -0.0463922342
 C   -1.4849845236   -4.7538013657    0.4460798729
 C   -2.6178481697   -4.0277620709   -0.2652203151
 O   -2.5193500769   -2.6115040632   -0.0709790737
 H    0.6313439555    1.9451427216    0.1143506682
 H    0.6503614437   -0.1996797660   -0.7988463300
 H    0.5387533077   -0.2348591905    0.9635600563
 H   -1.9672433378   -0.2725045429    0.7932895587
 H   -1.8545605661   -0.2375925824   -0.9496148897
 H    0.0728620275   -4.5405880475   -1.0532112301
 H    0.6688202546   -4.4898407702    0.5936166508
 H   -1.5448621145   -5.8300020593    0.2539492701
 H   -1.5838456921   -4.6036322380    1.5271676442
 H   -2.5929420098   -4.2351185774   -1.3438179820
 H   -3.6028021113   -4.3107990225    0.1139966844