20

 C    0.1591967970    1.4990380100    0.0155576919
 C    0.0649963222   -0.0232876867    0.0225171807
 C    0.8272867156   -0.6861544780   -1.1175290477
 N    2.1023714365   -0.7793516710   -0.3196603451
 C    1.1283917011   -0.7180952500    0.9045129941
 C    0.8764688984   -2.2298145983    0.7782075461
 C    1.3149949807   -2.0254187389   -0.6652927554
 C    1.9356133716   -3.0422523089   -1.5758267610
 O    3.0641592349   -3.6556488150   -0.9755799156
 H    1.1935543254    1.8251342596   -0.1311096206
 H   -0.4484487534    1.9280866437   -0.7883069050
 H   -0.2004804655    1.9150229165    0.9626339127
 H   -0.9718619531   -0.3452034002    0.1815421517
 H    0.8437977633   -0.3914100504   -2.1622290116
 H    1.4706541615   -0.2642536644    1.8338298764
 H    1.6223666430   -2.8196079248    1.3158285286
 H   -0.1283988364   -2.6107741795    0.9900763860
 H    1.2254085866   -3.8475749165   -1.7950910339
 H    2.1984882668   -2.5626768837   -2.5322852410
 H    3.6374292538   -2.9330260734   -0.6921112813