23

 C   -0.0973995247    1.5572002814    0.0267853537
 C    0.0185555878    0.0266335667    0.0038754907
 C    0.6522228233   -0.4376617088   -1.3198421693
 C    0.6466886975   -1.9574175287   -1.5739974890
 C    1.6009297790   -2.7613282862   -0.7222232286
 C    1.6236697182   -2.7791449640    0.6122450974
 C    0.7113116787   -1.9777365715    1.5131992294
 C    0.7664477974   -0.4547026203    1.2701453031
 O    2.1087281583    0.0195631918    1.3056917697
 H    0.8975019324    2.0117166825    0.0490237539
 H   -0.6283466652    1.9300419869   -0.8550754440
 H   -0.6392892767    1.8998492757    0.9148084543
 H   -0.9958728866   -0.3970423482    0.0572264670
 H    0.1047231520    0.0437986772   -2.1389887329
 H    1.6804826312   -0.0587417424   -1.3818715678
 H   -0.3774816763   -2.3333894724   -1.4278394760
 H    0.8799717033   -2.1348558534   -2.6288170797
 H    2.3112697298   -3.3897508629   -1.2552909201
 H    2.3532574034   -3.4165994564    1.1059623090
 H   -0.3290209251   -2.3145398456    1.4025322559
 H    0.9889792432   -2.1627635751    2.5550519104
 H    0.2785730583    0.0262357509    2.1271681141
 H    2.6261300810   -0.5682117172    0.7418505988