19

 C   -0.1760947977    1.5619886035    0.0172083993
 C    0.0135189988    0.0721852805    0.0184197506
 C    1.1101667401   -0.7122198743   -0.8976561133
 C    0.7362566384   -1.8475858334    0.1198823629
 C    1.1228692629   -2.7458061017    1.3279699527
 O    0.4650719913   -1.7645775998    2.2183724368
 C    0.7259589180   -0.7748204424    1.1563893504
 C   -0.7700530496   -1.9869448245   -0.1990668064
 O   -1.1835336596   -0.6081496634   -0.2904275298
 H    0.7518703349    2.0698618396    0.2922183830
 H   -0.4832658261    1.9084130986   -0.9743190002
 H   -0.9565765380    1.8404589082    0.7316004252
 H    0.8130292992   -0.8318376958   -1.9426306777
 H    2.1269171785   -0.3312247935   -0.8142706602
 H    0.6617991559   -3.7342940290    1.4055583830
 H    2.1961707421   -2.8015612139    1.5406963750
 H    1.7106203238   -0.3336423413    1.3533319412
 H   -0.9429924753   -2.4913522461   -1.1570503226
 H   -1.3364839976   -2.4886959112    0.5897566100