17

 C   -0.0850032877    1.5574061406   -0.0082280568
 C   -0.0475415601    0.0590706617    0.0204785079
 C    0.0214083829   -0.7832600293   -1.0796808147
 N    0.0099821457   -0.5255598113   -2.4607193406
 N    0.0486341392   -2.0742217636   -0.6340487769
 C   -0.0027146531   -2.0975594498    0.7530397101
 C   -0.0708302358   -0.7785378820    1.1672576034
 C    0.0252979070   -3.3014192367    1.4773543248
 C    0.0456284749   -4.3444520439    2.0839548605
 H    0.3558723097    1.9527474668   -0.9308128283
 H   -1.1051653580    1.9564182719    0.0603512471
 H    0.4817401976    1.9824682724    0.8262992129
 H   -0.2041194724    0.4454212858   -2.6481961801
 H    0.8920048400   -0.7491190141   -2.9124023369
 H    0.0099101430   -2.8872779703   -1.2243492441
 H   -0.1069277152   -0.4566350503    2.1969162455
 H    0.0657278324   -5.2550688177    2.6285670361