20

 C    0.0149951057    1.5226100806   -0.0726457815
 N    1.2106346920    0.6763830985   -0.0598952029
 C    2.0212852511    0.4868711798    1.1296234671
 C    2.3265229427   -1.0466358124    1.3089432451
 O    1.6509474577   -1.9404810180    0.4343187560
 C    0.2266447279   -1.9588900009    0.3609143139
 C   -0.4419016375   -0.8431145186    1.1999360052
 C   -0.1013915089    0.0473149205   -0.0056523805
 C   -0.2334980903   -1.1784239438   -0.9175039909
 H   -0.2513991653    2.0652706729    0.8362974408
 H   -0.1505729859    2.0767476993   -0.9932387620
 H    2.9609298866    1.0374244011    1.0126951825
 H    1.5357793241    0.8774005326    2.0389470638
 H    3.3819222275   -1.2352333066    1.0975944302
 H    2.1528460777   -1.3235845496    2.3592848059
 H   -0.1079802735   -2.9926166348    0.4906522929
 H   -1.5195736810   -1.0134296100    1.2727395301
 H   -0.0536488739   -0.6144521361    2.1926573381
 H    0.4327415748   -1.2209858838   -1.7793271238
 H   -1.2634632011   -1.4240673207   -1.1939202500