21

 C    0.2344253569    1.5029497532    0.2563925484
 C    0.0298925379   -0.0008901729    0.0088009885
 C    0.5298984353   -0.8007221322    1.2332169760
 C   -1.4720570572   -0.2903216626   -0.2132004449
 C    0.8055705035   -0.4162595401   -1.2113003907
 C    1.6113981722    0.2338130822   -2.0966082545
 C    2.0521411464   -0.7426541742   -3.0512663316
 C    1.4821649493   -1.9143220492   -2.6764865452
 O    0.7219929461   -1.7363456898   -1.5620387255
 H    1.2896454045    1.7394861071    0.4252746284
 H   -0.1184010730    2.0983862795   -0.5915108287
 H   -0.3262027578    1.8151166609    1.1429984618
 H   -0.0417415116   -0.5271029748    2.1265233556
 H    0.4169461353   -1.8757510786    1.0702158552
 H    1.5874442098   -0.5969850537    1.4284551527
 H   -1.8594727699    0.2814892226   -1.0622920135
 H   -1.6397099572   -1.3514838134   -0.4151940197
 H   -2.0487764954   -0.0149290586    0.6762892183
 H    1.8659717749    1.2812110152   -2.0789248800
 H    2.7034679409   -0.5852318466   -3.8966366706
 H    1.5090986493   -2.9175333639   -3.0686923998