16

 C   -0.0944580509    1.5959995725    0.0586886717
 C    0.0255714981    0.0737086116    0.0324490949
 C    0.7956375585   -0.4579528834    1.2538211451
 O   -1.3048539380   -0.4341560130    0.0189716056
 C    0.7161375134   -0.3964194834   -1.2285176119
 N    1.4251103867    0.3075516351   -2.0591780543
 O    1.8165000670   -0.5762312429   -3.0129477365
 N    1.3007813637   -1.8274629752   -2.7038653863
 N    0.6461020993   -1.7204296400   -1.6375041488
 H    0.8901758451    2.0675360221    0.0363046123
 H   -0.6704461092    1.9459393197   -0.8005221917
 H   -0.6139978528    1.8946865358    0.9722175051
 H    0.2572157373   -0.1777902054    2.1629025959
 H    0.8764966837   -1.5491683125    1.2176763426
 H    1.8070290709   -0.0430163634    1.2978296312
 H   -1.2587799326   -1.3964015775   -0.0320622649