23

 C   -0.1287872373    1.5706028000   -0.1427262680
 C    0.0695029540    0.0566515469   -0.0493558335
 C    0.9568605437   -0.5485216051   -1.1645568950
 C    1.1866673827   -1.9962485614   -0.6453059311
 C    1.9852545450   -1.2538636469    0.4639541813
 C    2.3998104268   -0.2576960452   -0.6591078941
 C    0.8583034197   -0.4992209495    1.2047451213
 C    1.3432312230    0.5119396666    2.2340863347
 O    0.2071859872    0.9899765247    2.9491232631
 H    0.8194162479    2.1103806760   -0.2365753467
 H   -0.7301874012    1.8188867294   -1.0239956477
 H   -0.6414016089    1.9503750991    0.7443098618
 H   -0.9211110618   -0.4106506295   -0.0800996687
 H    0.6574138628   -0.3455158214   -2.1943427843
 H    0.3112720318   -2.5812458144   -0.3447197457
 H    1.8291514229   -2.5873181509   -1.3025156132
 H    2.7249894654   -1.7675079796    1.0811209492
 H    3.1630550293   -0.6753416800   -1.3201055852
 H    2.6703551344    0.7656792523   -0.3874482441
 H    0.2304465545   -1.2102262130    1.7535615031
 H    2.0503818483    0.0136566762    2.9175751307
 H    1.8844540638    1.3418891415    1.7573201762
 H    0.5042464461    1.6634133742    3.5680337059