7

 C   -0.0029448212    1.5099136648    0.0086727849
 C    0.0260828384    0.0032756259   -0.0374591150
 O    0.9422880119   -0.6550703513   -0.4568257611
 H    0.9227880213    1.9263424180   -0.3914655687
 H   -0.8620154031    1.8785248080   -0.5647953841
 H   -0.1505063787    1.8439338318    1.0428910048
 H   -0.8944300885   -0.4864340773    0.3577486492