17

 C   -0.2560163193    1.3125011672    0.4200804441
 C    0.2928490370   -0.1043792921    0.2160201027
 C    0.7617864541   -0.3498401045   -1.2007167009
 C    0.5158833171   -1.6384350897   -1.8754763217
 O   -0.2604561957   -0.4848313654   -2.2074853857
 C    1.9858304487    0.4435587707   -1.6340699293
 N    2.0022591202    0.7580917501   -2.9566873530
 O    2.8672953439    0.7296613657   -0.8456510394
 H    0.5214845880    2.0611763111    0.2426710927
 H   -1.0896295400    1.5095789358   -0.2611107562
 H   -0.6174134344    1.4419887649    1.4441053982
 H    1.1456274859   -0.2754204481    0.8798056685
 H   -0.4755957881   -0.8454269703    0.4594768507
 H    1.1970394344   -1.9814768895   -2.6519224345
 H   -0.0190085142   -2.4199146013   -1.3381990365
 H    1.1616736974    0.6391979420   -3.4982291941
 H    2.7466106750    1.3424249234   -3.2991365555