16

 O    0.2972820390    1.1233327279    0.4159667077
 C    0.1091060693   -0.1895421772   -0.0304352453
 C   -1.3699887281   -0.6204016897   -0.1208604171
 O   -1.1975246691   -0.8983853392   -1.5590751161
 C    0.0920568498   -0.4181672545   -1.5535553321
 O    0.8169674373   -0.2586125097   -2.4803051694
 C   -1.8266609070   -1.8270005350    0.6481623505
 C   -2.7701794402   -2.7976457411    0.0461666084
 N   -1.3625642724   -3.1723704780    0.2872425993
 H    1.2063611053    1.3807059385    0.2261416772
 H    0.7409335469   -0.9193910669    0.4944129534
 H   -2.0434042868    0.2311565597    0.0117150758
 H   -1.8741314146   -1.6458585177    1.7208510428
 H   -3.4967924827   -3.3051753270    0.6733025176
 H   -3.0823589048   -2.6242202738   -0.9794597969
 H   -0.8660800319   -3.1298413962   -0.6009150258