23

 C    0.0695998929    1.5526160051   -0.2148910296
 C    0.0925570251    0.0474045327    0.0061561419
 C    1.0135377965   -0.8299160711   -0.8834051528
 C    1.2971246118   -1.7253422903    0.3498730711
 C    2.6808908398   -2.2823665175    0.5508567968
 C    3.5336507406   -2.6998334073   -0.5705721301
 O    3.7937401327   -1.4827668110    0.1315147183
 C    0.7805314175   -0.5658709650    1.2746554149
 C    1.8687173010    0.2885916319    1.9224058884
 H    1.0746770523    1.9842203317   -0.1773014059
 H   -0.3542147650    1.7909945482   -1.1970893091
 H   -0.5418635791    2.0613708456    0.5391233360
 H   -0.9324428820   -0.3374646052   -0.0504735498
 H    0.5718327643   -1.2997138413   -1.7660291180
 H    1.9172006163   -0.2899416643   -1.1819199691
 H    0.5918726406   -2.5642672656    0.3899659289
 H    2.8461471800   -2.7798991573    1.5090946461
 H    4.2723212910   -3.4876297639   -0.4293048154
 H    3.1729457143   -2.5793149807   -1.5910558079
 H    0.0765849027   -0.8903486956    2.0480820519
 H    2.6325293056    0.6000559632    1.2052826702
 H    1.4376850269    1.1870089302    2.3767531131
 H    2.3787252844   -0.2682436326    2.7156028701