19

 O   -0.0067085456    1.7033341058    1.0487988379
 C    0.1336960105    0.5144800070    0.2816138505
 C   -1.1253667479   -0.1995877881    0.0742577126
 C   -2.1900892762   -0.7386588016   -0.1009542509
 C   -3.4505910149   -1.4161452752   -0.3187461118
 C   -3.9620755643   -1.6277327147   -1.7816937427
 C   -4.4918467163   -3.0157921920   -1.3360340238
 O   -4.4614669317   -4.1009229403   -2.2227796693
 C   -3.5203603255   -2.9672678091   -0.1276148862
 H   -0.7208140143    2.2148979435    0.6545686034
 H    0.5998365217    0.7232399243   -0.6951708909
 H    0.8387961613   -0.1142368229    0.8372131861
 H   -4.2342184864   -0.9381941159    0.2791356751
 H   -4.6660765754   -0.9012155574   -2.1920708418
 H   -3.1161509583   -1.7362619182   -2.4683001572
 H   -5.5307882044   -2.9431856366   -0.9993634408
 H   -3.5589472736   -4.1994040163   -2.5446026684
 H   -2.5594005368   -3.4258895676   -0.3821840916
 H   -3.8570492821   -3.3519134148    0.8368617596