17

 C   -0.0484312586    1.5740414915    0.0594817755
 C    1.5046923407    1.4674043887    0.0197052052
 C    2.0181133295    1.2721223476    1.4433987590
 O    1.0294349853    1.3300519298    2.4944257245
 C    1.5027605801    0.0549091853    2.0768015762
 C    0.7255779180   -0.7746552668    1.0657240827
 O    1.7619703462   -1.0985609283    0.0718493466
 C    1.3056943126    0.0286232908   -0.6778400526
 C   -0.0822772341    0.0391487127   -0.0179245278
 H   -0.4944782818    2.0899903383    0.9064724137
 H   -0.4376866261    1.9830198419   -0.8779175301
 H    2.0651945403    2.2209634755   -0.5333453687
 H    2.9875633239    1.6770227515    1.7180618002
 H    2.0801024169   -0.4983661124    2.8149682518
 H    0.2595549410   -1.6759867612    1.4674049462
 H    1.5228494810   -0.0307704524   -1.7450239322
 H   -0.9448244050   -0.4954472724   -0.4165374003