22

 C   -0.1194946951    1.5439296768    0.0201398643
 C    0.0570857148    0.0246835688    0.0461308718
 C    0.7759598896   -0.4927197052   -1.2218934408
 C    0.9520151606   -2.0163360834   -1.2126680902
 C    1.6992341488   -2.4815478385    0.0426502872
 C    1.0036262527   -1.9900100536    1.3276867493
 C    0.7748783300   -0.4982554106    1.2756012648
 N    1.1432236516    0.3515422705    2.1548691602
 O    1.8007510935   -0.2389011041    3.2504279739
 H    0.8496643403    2.0509721432    0.0050168873
 H   -0.6777679222    1.8407848360   -0.8737427143
 H   -0.6582334822    1.8986758869    0.9016101988
 H   -0.9424674438   -0.4404534562    0.0526570774
 H    0.2108568044   -0.1779295411   -2.1067793808
 H    1.7603549030   -0.0092416004   -1.2894618089
 H   -0.0359492134   -2.4967024818   -1.2475372323
 H    1.4862593411   -2.3396587760   -2.1131523902
 H    1.7785774348   -3.5739140400    0.0631573487
 H    2.7250141091   -2.0915069318    0.0212544638
 H    0.0250188997   -2.4839123516    1.4125400958
 H    1.5792541259   -2.2537163447    2.2144629737
 H    2.0069685266    0.5299927768    3.7914665307