20

 C    0.3963730697    1.5439005164    0.1310912929
 C    0.1881569931    0.0604731882   -0.0209862890
 C   -0.0440943154   -0.5794780506   -1.1747879185
 C   -0.2029983496    0.0558702204   -2.5306860182
 C   -0.1787902799   -2.0882874023   -1.2104793802
 O    0.2120059591   -2.7539834285   -0.0303938115
 C   -0.3105184442   -2.1227183140    1.1231592386
 C    0.2711582563   -0.7206048258    1.2749331623
 H    1.3369033764    1.7421980331    0.6618060169
 H    0.4354209190    2.0799909456   -0.8179974186
 H   -0.3997578307    1.9914908818    0.7408044318
 H    0.6288941351   -0.2144589734   -3.1946121046
 H   -1.1172292518   -0.3064013377   -3.0193528315
 H   -0.2622652909    1.1440802659   -2.4936454087
 H   -1.2224048103   -2.3511645186   -1.4736727751
 H    0.4533187241   -2.4954388456   -2.0102479408
 H   -1.4110943011   -2.0691611174    1.0648302374
 H   -0.0494614593   -2.7614367289    1.9719528902
 H    1.3173873978   -0.7820278514    1.6073269779
 H   -0.2675325174   -0.1828621171    2.0674634187