18

 C   -0.0174494393    1.3917555143    0.0089741406
 O    0.0047788588   -0.0205902771    0.0029259842
 C   -1.1877087577   -0.6608597585    0.0117172877
 C   -1.3926271121   -2.0194709057    0.0103319752
 C   -2.8061287191   -2.2058991717    0.0216172789
 O   -3.3676334057   -3.4423317968    0.0234116170
 C   -4.7787036851   -3.4611229332    0.0349128844
 C   -3.4205548512   -0.9747427185    0.0296564709
 N   -2.3977912176   -0.0242224126    0.0232016702
 H    1.0237645880    1.7168940973    0.0012777507
 H   -0.5209092782    1.7950625633   -0.8812559163
 H   -0.5054612502    1.7876061527    0.9110582454
 H   -0.6349028936   -2.7841966614    0.0022111667
 H   -5.1924078824   -2.9622402749   -0.8531017205
 H   -5.0823232949   -4.5095683140    0.0348423657
 H   -5.1778110208   -2.9666043178    0.9320055832
 H   -4.4529879133   -0.6765629103    0.0390984223
 H   -2.5424525957    0.9676321449    0.0270110538