17

 C    0.0658366891    1.5437197999   -0.0601295999
 C   -0.1416230923    0.0522540315    0.0433680396
 O   -0.3726892252   -0.5226756162    1.0793048860
 C   -0.0649992232   -0.7502149998   -1.2753829443
 O    0.6917829145   -0.0271340345   -2.2244799863
 C    0.5400644447   -2.1324083280   -1.0074680031
 O    0.8042209066   -2.6765376548   -2.2980172928
 C   -1.5088543773   -0.9132238848   -1.8065657871
 O   -2.3105459485   -1.6915724711   -1.3707761592
 H    1.0624619149    1.7529578566   -0.4589523933
 H   -0.6442426650    1.9764843649   -0.7739883816
 H   -0.0607196735    1.9972244918    0.9230880598
 H    1.0358963912   -0.6907087984   -2.8392299924
 H    1.4609896357   -2.0280459499   -0.4199114906
 H   -0.1836345109   -2.7282511600   -0.4435324394
 H    1.2960317115   -3.4958597803   -2.1965111612
 H   -1.7286008523   -0.2184783569   -2.6474800143