15

 N   -0.0841491424    1.4373686764    0.0960833349
 C   -0.0122001419    0.0285816622   -0.0449202795
 C    0.5974020585   -0.7648330992   -1.2645221069
 O    0.7987316356   -2.1312395171   -0.8984155266
 C   -0.5225586669   -1.6998394090   -1.2407077116
 C   -1.1652598053   -0.9680080322   -0.0251258229
 C   -0.2273944507   -0.8619570917    1.1648184889
 C    0.6459366385   -1.8765838524    1.6994044531
 N    1.3146202679   -2.6413024166    2.2524312859
 H    0.8225788916    1.8360077366    0.3224397487
 H   -0.4149619147    1.8816806301   -0.7548876850
 H    1.1923436370   -0.3522698956   -2.0716819943
 H   -1.0436309258   -2.2326985529   -2.0256122292
 H   -2.2245925695   -0.7766733714    0.0831632544
 H   -0.6905821820   -0.2768575674    1.9558312001