19

 O   -0.5795171500    0.5932261168    0.5717100832
 C    0.1767714438    0.9443163434   -0.2999925667
 C    1.2616328731    1.9809840121   -0.1638651620
 C    1.2127603331    3.1228491493   -1.2376299686
 C    1.3687872565    4.3658350020   -0.3264019529
 C    0.0352093133    4.6586033415    0.3935450574
 C    0.0211192606    3.5238692229    1.4619261397
 C    1.3493059508    2.8018756549    1.1466286303
 O    2.2038539163    3.8812181158    0.7356031354
 H    0.1261908638    0.4774343528   -1.3118002000
 H    2.2040295468    1.4317281674   -0.2931830389
 H    2.0388966557    3.0412946099   -1.9463289335
 H    0.2784912785    3.1381722583   -1.8067410334
 H    1.8448147502    5.2226726032   -0.8032623555
 H    0.0595484758    5.6466001593    0.8585249726
 H   -0.8226586825    4.6263803779   -0.2834007103
 H    0.0590016274    3.9342942910    2.4732748339
 H   -0.8413117622    2.8620989867    1.3963242579
 H    1.8015863891    2.2714792551    1.9834940616