19

 C   -0.1749224133    1.6021622526   -0.0224033074
 C   -0.0018623953    0.0815869141    0.0049920433
 C   -1.2694890698   -0.5728687282   -0.2887782858
 C   -2.3478777827   -1.0425152083   -0.5380354214
 C    1.1941747044   -0.6222721568   -0.7295958088
 C    2.4520453116    0.1200653185   -0.2378917387
 C    2.1047059106    0.1083154229    1.2868241885
 C    0.7606185509   -0.6372327008    1.1743278640
 O    1.0948690549   -1.7055851795    0.2406425282
 H    0.7531047282    2.1340866518    0.1930932738
 H   -0.5326718936    1.9218429069   -1.0056968354
 H   -0.9241560070    1.9082616444    0.7138040074
 H   -3.2898669940   -1.4812391517   -0.7558831933
 H    1.1256369668   -0.9427005812   -1.7685976955
 H    3.3491364314   -0.4577682468   -0.4678132129
 H    2.5674469180    1.1206508286   -0.6612663213
 H    2.8157152218   -0.4757091533    1.8741075354
 H    2.0218687037    1.1022040954    1.7330022327
 H    0.2501105034   -0.9729092684    2.0763262271