20

 C   -0.1496432324    1.5077595945    0.1532638109
 C    0.0344535431    0.0057418511    0.0180705419
 C   -1.2772277710   -0.7670268620   -0.2682539099
 C   -1.2310282794   -2.0168494325    0.5958911015
 N   -0.1089110254   -2.9195476280    0.2836238993
 C   -0.0022832226   -2.0053854501    1.4410749800
 C    0.8038794720   -0.7534309394    1.1460426141
 C    1.9253033507   -0.8730651816    0.0936761534
 O    1.0917499130   -0.2961581217   -0.9319484837
 H    0.8032712685    1.9950249540    0.3800198200
 H   -0.5292918062    1.9285366806   -0.7841342773
 H   -0.8628617531    1.7468802041    0.9496785623
 H   -2.1494179818   -0.1620628304    0.0027218919
 H   -1.3410374260   -0.9999904404   -1.3351572797
 H   -2.1603019632   -2.4513835400    0.9521365038
 H   -0.3253634512   -3.8565350032    0.6142667610
 H    0.0074990854   -2.4298692712    2.4399045495
 H    1.0393214804   -0.1902751325    2.0510278732
 H    2.8101600126   -0.2546944336    0.2921844242
 H    2.2287117067   -1.8937958678   -0.1550773764