16

 C    0.0127248685    1.3742722292    0.0833265471
 O    0.0295271697   -0.0358749772    0.0267931369
 C    0.6230267341   -0.5759256576   -1.0771640808
 C    0.7111968084   -1.9429034701   -1.2638432658
 N    0.2873620397   -3.0534468030   -0.5017359263
 N    1.3611018069   -2.1325858897   -2.4657924902
 C    1.6790072051   -0.9334526264   -3.0308330101
 C    1.2326867491    0.0680591073   -2.1900847477
 H    1.0291250042    1.7919003200    0.0882797799
 H   -0.5394793022    1.8073129369   -0.7622830900
 H   -0.4895299933    1.6448559963    1.0144702245
 H   -0.7175543622   -3.0359432056   -0.3541618840
 H    0.7117369958   -3.0493066929    0.4212087944
 H    1.5546348288   -3.0456639946   -2.8387806029
 H    2.1923676609   -0.8755752148   -3.9765149681
 H    1.3360304665    1.1270378923   -2.3619798769