18

 O   -0.3455370386    1.4631238904    0.0138723111
 C   -0.0285416523    0.0774156641    0.0035231486
 C   -1.3528097373   -0.6726776969    0.0112323593
 C   -1.2001727343   -2.1694581519    0.0015888117
 N   -0.0655113573   -2.7352282338   -0.0126480699
 O   -2.4355641367   -2.7489073305    0.0104968494
 C   -2.4917017734   -4.1749024830    0.0030656079
 C   -3.8832014663   -4.5959971373    0.0144064620
 C   -5.0209137861   -4.9779324407    0.0236184371
 H    0.4801480392    1.9552392095    0.0094929542
 H    0.5514445467   -0.2020952764   -0.8866694981
 H    0.5671708035   -0.2116812665    0.8801759473
 H   -1.9384735057   -0.3836324486    0.8915994281
 H   -1.9539994115   -0.3739956873   -0.8553603373
 H   -0.1099685128   -3.7519554326   -0.0178139396
 H   -1.9847377114   -4.5660796271   -0.8906262644
 H   -1.9672640456   -4.5760178060    0.8821539363
 H   -6.0298268300   -5.3099707553    0.0323450763