18

 C    0.0415269245    1.5550653735    0.0107290203
 C   -0.0329842716    0.0293897968    0.0040051938
 C   -1.4678535910   -0.4735642992    0.0126147561
 O   -2.4286076457    0.2590948675    0.0238579412
 N   -1.6380254404   -1.8713407861    0.0080986403
 C   -0.6578125158   -2.8607576742   -0.0037816250
 C   -1.2802335361   -4.0744801756   -0.0040680136
 C   -2.6946976550   -3.8355360199    0.0081600778
 C   -2.8854944021   -2.4858142583    0.0154655139
 H    1.0842799727    1.8837222534    0.0041196521
 H   -0.4615269062    1.9742529175   -0.8636357026
 H   -0.4476944729    1.9658354301    0.8968618984
 H    0.4738916780   -0.3836150068   -0.8768720479
 H    0.4874174973   -0.3919939684    0.8729471057
 H    0.3880096201   -2.6080695508   -0.0109740003
 H   -0.7873282074   -5.0346806813   -0.0120794140
 H   -3.4735940026   -4.5824593743    0.0111393683
 H   -3.7704930456   -1.8739284541    0.0250993156