16

 C   -0.0452474782    1.5732313683   -0.0316297640
 C    0.2056182827    0.0879564646    0.0189077819
 N    1.3772971202   -0.3887171812    0.0344601234
 N   -1.0053768796   -0.6620956380    0.0453642896
 C   -1.1232689376   -2.0307395395    0.0896669847
 O   -0.1931453985   -2.8030192342    0.1174382574
 C   -2.5945601927   -2.4971469265    0.0940551246
 C   -2.7277503999   -3.9441752784    0.1969849683
 N   -2.8746150189   -5.0858347861    0.2787274214
 H    0.9134476622    2.0890504057   -0.0503584798
 H   -0.6173486386    1.8475470379   -0.9258628403
 H   -0.6151731692    1.9079209576    0.8432259318
 H    1.3608224703   -1.4082406692    0.0696966005
 H   -1.8594546735   -0.1253543786    0.0277200902
 H   -3.1276625898   -2.0256612723    0.9285462094
 H   -3.0842662087   -2.1547170204   -0.8259041691