18

 C   -0.1031184784    1.5934569970   -0.0019667381
 C    0.0075735985    0.0630726519   -0.0290281560
 N    0.7278148729   -0.4774449521   -1.1757933486
 C    2.0747903266   -0.9537670143   -0.8370038306
 C    1.9635548961   -1.3268421237    0.6455094781
 C    0.8270276115   -0.4520604424    1.1711251711
 O    0.5976823516   -0.1744054402    2.3170075088
 C    0.1778262615   -0.7023748475   -2.3977556230
 O    0.7560514692   -1.2076608366   -3.3375915740
 H    0.8828032895    2.0590637024   -0.0936124786
 H   -0.7281125908    1.9495291949   -0.8252267865
 H   -0.5489389881    1.9076199293    0.9453967406
 H   -0.9980894108   -0.3725305105    0.0325051549
 H    2.3276786162   -1.7839554983   -1.4969122521
 H    2.8196317524   -0.1633306316   -0.9941146091
 H    1.6589751798   -2.3740354240    0.7652192084
 H    2.8742330399   -1.1778765854    1.2277808933
 H   -0.8796362474   -0.3728681689   -2.4437386586