8

 N    0.0377936423   -1.1389137581   -0.0042334675
 C   -0.0100435427    0.0159410475    0.0029069868
 C   -0.0099799520    1.4362656307    0.0109275051
 N   -1.1147923954    2.1481722425    0.0290019462
 O   -0.7096756398    3.4373188370    0.0311247819
 N    0.6556379529    3.5482463074    0.0143727776
 C    1.1039902932    2.3264820581    0.0017855248
 H    2.1594030515    2.1064081648   -0.0128861451