17

 O   -0.7022852256    0.9898592491    0.5488925839
 C    0.2869006636    0.8697105365   -0.1361073725
 C    1.4531256059    1.7881315455   -0.0755928388
 C    1.8428343283    2.5103464517    1.2271047769
 C    2.6484879003    3.6136295677    0.5081026272
 N    1.6326734290    4.3293333042   -0.3093385445
 C    1.5409319992    3.1103534225   -1.0793288281
 C    3.0227743000    2.7941096041   -0.8343759454
 N    2.7411064427    1.3673183181   -0.6837987989
 H    0.3739059097    0.0703872261   -0.9049497869
 H    0.9927185244    2.9058797218    1.7883756905
 H    2.4331304517    1.8622380691    1.8826196642
 H    3.3605001910    4.2173946836    1.0688280285
 H    0.7924639687    4.6158572658    0.1918334393
 H    1.0121990099    3.0716849690   -2.0290522214
 H    3.8501238442    3.1327503350   -1.4548056770
 H    3.3556235871    0.8679864301   -0.0402600969