21

 C   -0.7384969649    1.1475994792    0.0238078131
 C    0.1530839084   -0.0837863245   -0.1300127448
 C    1.3123993210    0.0857024748   -1.1463686029
 C    2.3699159833   -0.8574613354   -0.6285195082
 C    2.1167302932   -1.2557552419    0.6151384724
 C    0.8575977929   -0.6254611191    1.1718569028
 C    1.2014523135    0.4754484616    2.2041091947
 C   -0.0497987201   -1.6228719532    1.8694334191
 O    0.2321136751   -2.7640557285    2.1303285518
 H   -0.1727891185    2.0199567763    0.3655858457
 H   -1.1926143916    1.4070377814   -0.9382796791
 H   -1.5543970789    0.9769226986    0.7341546613
 H   -0.4705627269   -0.9073010644   -0.5032018724
 H    0.9926904524   -0.1409831447   -2.1699150682
 H    1.6819930508    1.1220125599   -1.1636428602
 H    3.2394947671   -1.1413945447   -1.2109945781
 H    2.7277818522   -1.9208923620    1.2125900352
 H    1.7726857562    1.2800807382    1.7329317959
 H    0.3018592075    0.9115407165    2.6517388820
 H    1.8116237731    0.0599239960    3.0120836146
 H   -1.0476843559   -1.2060008240    2.1499360953