25

 C   -0.6116357872   -0.4889320866   -1.7474651771
 C    0.7097715897   -0.9818353297   -1.1789183667
 C    2.0300701226   -0.3065995587   -1.6470967255
 C    2.5564338482   -0.4112224264   -0.1874431973
 C    3.6167952711   -1.5175661330    0.0707029954
 C    4.6962616441   -0.4087699427    0.1686087843
 C    3.5583319583    0.6243233210    0.3983731567
 C    3.6739138751    2.0100943950   -0.2169438312
 C    1.0956630913   -0.6026192608    0.2788990499
 H   -0.7104050416    0.5961426566   -1.6254215671
 H   -0.6950681943   -0.7120677782   -2.8173398836
 H   -1.4635508691   -0.9588340337   -1.2427313667
 H    0.7864023949   -2.0674104577   -1.3070760611
 H    2.6087705555   -0.7971918321   -2.4357013146
 H    1.8521521499    0.7334094244   -1.9428049933
 H    3.4539662349   -2.0129436334    1.0337459463
 H    3.7432336500   -2.2859318508   -0.6975643313
 H    5.4621915422   -0.5069274939    0.9420839251
 H    5.1942613202   -0.2427913157   -0.7923852228
 H    3.3661709391    0.7168109044    1.4755105256
 H    3.8857744099    1.9536932304   -1.2902825162
 H    2.7505815270    2.5871737967   -0.0890021392
 H    4.4849835220    2.5796344085    0.2506768329
 H    0.6398258992    0.3507850642    0.5732151080
 H    0.9108683669   -1.3351144877    1.0709425895