17

 O   -0.0010042177    1.4735510707   -0.0581458528
 C    0.0680239273    0.0687464371   -0.0146652947
 C    0.0290661774   -0.6204667185    1.3643266593
 C   -1.5025284243   -0.3184722600    1.5431603864
 C   -1.8398585247   -1.7878959567    1.8642561411
 C   -0.7474532345   -1.8766000194    0.7872113238
 C   -0.1363447257   -3.0817193263    0.1775263751
 O   -0.4317966553   -4.2129280647    0.4788300710
 C   -1.3022147195   -0.6101505936    0.0120160396
 H    0.8891250580    1.8263636776    0.0371348707
 H    0.7976631953   -0.3215978274   -0.7376242808
 H    0.7816677421   -0.6613753206    2.1538028271
 H   -1.9237508370    0.5926910326    1.9625823365
 H   -1.5723082536   -2.1525769425    2.8598008603
 H   -2.8343138821   -2.1418555678    1.5785927050
 H    0.6370067337   -2.8789731201   -0.5995268411
 H   -2.0774958294   -0.6323620505   -0.7546018764