14

 C   -0.0632307980    1.5894145197    0.0163364396
 C    0.0205330659    0.0562778159    0.0020727593
 N    0.8058977347   -0.4678040550   -1.0962351905
 C    1.8529921816   -1.2739818174   -0.6996395475
 O    2.6368262435   -1.8500009330   -1.4238145939
 C    1.7883134744   -1.2632937423    0.7954448389
 C    0.7548580398   -0.5202305678    1.1911215280
 H    0.9379009168    2.0265211355    0.0613637698
 H   -0.5632401421    1.9572252077   -0.8850618109
 H   -0.6377108823    1.9331968764    0.8823408368
 H   -1.0041948048   -0.3487155003   -0.0237182495
 H    0.5825725041   -0.3320893401   -2.0676291564
 H    2.5023449750   -1.8013212141    1.4024196486
 H    0.4400629015   -0.3127540854    2.2062175777