19

 C    0.0380019847    1.3208255584    0.0283532541
 O    0.0706899485   -0.0907270359   -0.0723245404
 C    0.6893514487   -0.5688151556   -1.1971367359
 C    0.2744822927   -0.3819078774   -2.6936190812
 C    1.5150421023   -1.3282718801   -2.6946225397
 O    2.1083302254   -1.9644704811   -3.7619130344
 C    2.1779191995   -0.3639516800   -1.6523476634
 C    0.8400357029   -2.0846894416   -1.5147519414
 O    1.5509057796   -2.9498877686   -0.6841773622
 H    1.0504381363    1.7479673597    0.0502541342
 H   -0.5163799686    1.7731821733   -0.8056876569
 H   -0.4695065434    1.5604820837    0.9649173220
 H   -0.6793627278   -0.8178628951   -3.0006752803
 H    0.4326277683    0.6110434367   -3.1206718438
 H    2.4466740813   -1.2994407673   -4.3710852013
 H    2.4479222672    0.6301076404   -2.0189652749
 H    2.9718816263   -0.7620972007   -1.0140700753
 H   -0.0916621132   -2.5980828871   -1.7650256936
 H    2.3959569893   -2.5541111117   -0.4488672856