21

 C   -0.2056882330    0.9294798513   -1.9047882794
 C   -0.0553730035   -0.2494631765   -0.9687993339
 C    1.2938711063   -0.6610741991   -0.3809118552
 C    2.5840552800    0.0624320920   -0.7030211786
 C    0.2461963363   -0.0455586087    0.5034202574
 O    0.5277426038    1.2519661146    0.9489204669
 C   -0.4637619609   -0.8976603416    1.5519933326
 C   -1.7287356432   -0.2912687588    1.9610524835
 C   -2.7461989334    0.2702437188    2.2716778636
 H    0.3406662415    1.8013962330   -1.5395287920
 H    0.1601217020    0.6919776267   -2.9096409955
 H   -1.2595795245    1.2146904529   -1.9967096853
 H   -0.7221313970   -1.0791828765   -1.1937712243
 H    1.4182979050   -1.7348679978   -0.2552341873
 H    2.4509054417    1.1449473495   -0.7105431155
 H    3.3503573484   -0.1670020604    0.0451307867
 H    2.9712075074   -0.2457382573   -1.6803511832
 H   -0.3162187072    1.6624549656    1.1772224206
 H   -0.6402021120   -1.9039084427    1.1549327280
 H    0.1884643826   -1.0080731547    2.4280384199
 H   -3.6575126304    0.7342810795    2.5577590710