15

 C   -0.1694218945    1.3550306736   -0.3029842985
 C    1.2347363096    1.0813009987    0.1554406554
 C    0.2280717241   -0.0501811029    0.1017686206
 C   -0.2943850736   -0.6683306317    1.3331601757
 C   -0.5932763037   -0.1305316307    2.5676173035
 N   -1.0342810830   -1.1901139476    3.2879631519
 N   -1.0187406278   -2.3214961318    2.5661759043
 N   -0.5710191835   -2.0075556333    1.3839004712
 H   -0.8322315951    1.8958016892    0.3642885344
 H   -0.3429231874    1.5480937662   -1.3557149678
 H    2.0307218529    1.0853647319   -0.5807711067
 H    1.5336017788    1.4345523871    1.1367110100
 H    0.3486091465   -0.7716983027   -0.6981616085
 H   -0.5339595025    0.8634799588    2.9770382026
 H   -1.3518746209   -1.2182271347    4.2435920318