18

 C    0.0565020754    1.6042948266    0.1175003388
 C    0.0849358537    0.1067275325    0.0478569357
 C   -0.9430181546   -0.7968159742    0.6631278490
 C    0.4948740293   -0.8375129536    1.1477303701
 C    1.4010131957   -1.8655379654    0.5030843471
 N    1.0036300147   -3.2618293547    0.6608723819
 C    1.3201358185   -1.5210604765   -0.9967301594
 O    1.7736610366   -2.1686066913   -1.8957921621
 O    0.6286954268   -0.3707937602   -1.1862510572
 H    1.0615871047    2.0205240869   -0.0033934252
 H   -0.5824102959    2.0188131435   -0.6686183530
 H   -0.3389540640    1.9275247753    1.0842564813
 H   -1.6754394220   -0.3450771812    1.3230404326
 H   -1.3030390386   -1.6428014428    0.0875030442
 H    0.7342695806   -0.4633772991    2.1360912185
 H    2.4422763480   -1.6651002578    0.8100789040
 H    1.4762162581   -3.8068318153   -0.0562314831
 H    1.3107970630   -3.6163227128    1.5605688069