23

 C    0.0123788936    1.5245976672   -0.0320892665
 C   -0.0116656627    0.0214358606    0.0177214896
 C   -1.1522991867   -0.6766485281   -0.0050801843
 C   -1.2277116619   -2.1591652351    0.0002482563
 C   -2.2180896608   -2.8109969062    0.9555546705
 C   -2.4872920374   -2.8154110030   -0.5241603506
 C    0.1051961400   -2.8446468716   -0.2579724917
 C    1.2278254098   -2.1399997450    0.5125052412
 C    1.3338339723   -0.6677638345    0.0910279017
 H    0.5957945314    1.8831645214   -0.8908849403
 H   -0.9942991184    1.9447947837   -0.1095262639
 H    0.4906709224    1.9456335842    0.8622666428
 H   -2.1022158198   -0.1440567312   -0.0345640382
 H   -1.9222146688   -3.7424886664    1.4275305286
 H   -2.8190251270   -2.1635392446    1.5849742053
 H   -3.2754656591   -2.1743092193   -0.9056550193
 H   -2.3768851069   -3.7514452417   -1.0624526956
 H    0.0482313249   -3.9040856393    0.0159676536
 H    0.3290907124   -2.8077235741   -1.3333049993
 H    1.0135823550   -2.1944721632    1.5871440776
 H    2.1844032616   -2.6489306608    0.3521982199
 H    1.8338163161   -0.5898580994   -0.8870843376
 H    1.9836448600   -0.1232175436    0.7892612801