21

 C    1.2501765716    0.9976617347   -0.9233754024
 N    0.5581201521   -0.1022438124   -0.2655841490
 C    1.3201663246   -1.2528088291    0.1873785137
 C    0.6561469507   -0.3459032913    1.1732753882
 C    1.3863736305    0.5347993779    2.2020518170
 C    0.9961511888    0.0375485404    3.6051452840
 C    2.9126678289    0.5707663485    2.0895157717
 O    0.9673545156    1.9016641239    2.0501310114
 H    2.3148143201    1.0927375329   -0.6701430556
 H    1.1767626403    0.8440871346   -2.0053008771
 H    0.7606450164    1.9400115240   -0.6694212107
 H    0.9035291120   -2.2334269564   -0.0336942552
 H    2.4059124419   -1.2007930417    0.1165211034
 H   -0.3011501941   -0.6909122021    1.5692323048
 H    1.3064582514   -1.0013411619    3.7588025031
 H    1.4670780653    0.6622008748    4.3687546712
 H   -0.0896437612    0.0852045659    3.7458212380
 H    3.2453155277    0.9553415580    1.1246723098
 H    3.3094467127    1.2332718484    2.8642516434
 H    3.3371644021   -0.4256780395    2.2348258585
 H    0.0048397526    1.9197996504    2.0934812718