15

 C    0.0158469497    1.5223445096   -0.0670663998
 C   -0.0348115643    0.0219319578   -0.0178823098
 O    0.6730384926   -0.6344549048   -1.1028136326
 C    0.4268440513   -1.9344199759   -0.6467639442
 O    1.0110836972   -1.9201354760    0.7059846303
 C    0.7227270613   -0.6669383174    1.1568932458
 O    1.0101869167   -0.2374070361    2.2335408628
 C   -1.0947862977   -1.9515170856   -0.4642361799
 C   -1.3816730139   -0.7198449242   -0.0484672240
 H    1.0494128549    1.8623182169   -0.1652873748
 H   -0.5668407528    1.9057801724   -0.9081735081
 H   -0.3880172057    1.9287054387    0.8639673203
 H    0.9282020645   -2.6980857276   -1.2344897983
 H   -1.7310471367   -2.8183956730   -0.5636013563
 H   -2.3176159771   -0.3065396547    0.2985144286