12

 O    0.3520835079    0.3635808583    0.9694612157
 C    0.1549959392    1.3014083387    0.2447738279
 C    1.2007404941    1.8034653802   -0.6686471501
 N    2.0001039501    2.2101328542   -1.3985100920
 C   -1.1260132641    2.0830344922    0.1889276027
 N   -2.3218164207    1.3867493737    0.6569953633
 C   -1.8220057509    2.4872470931    1.4716600411
 C   -1.2845774578    2.1668599041    2.7731756330
 N   -0.8678892717    1.9766472699    3.8335844949
 H   -1.2025993644    2.7942936835   -0.6295778983
 H   -3.1379530199    1.6758478548    0.1239746934
 H   -2.3330004618    3.4465373672    1.4373321984