13

 C    0.4116770745    1.5529268012    0.1437973891
 C   -0.2909389528    0.2233628370   -0.0155126708
 O   -0.8897116222   -0.3339488743    0.8686885992
 C   -0.2109696506   -0.3927074405   -1.4020041981
 O   -0.4831277348   -1.7826865400   -1.4995688849
 C   -1.4391452789   -0.9071556850   -2.0684089185
 C   -2.7444732731   -0.8306658162   -1.4461393134
 N   -3.8204407840   -0.7554728941   -1.0325694941
 H    1.4915802926    1.4271443553    0.0006406687
 H    0.0697071624    2.2626936515   -0.6186494260
 H    0.2187368206    1.9550034211    1.1382954793
 H    0.5815928214   -0.0304424159   -2.0572981641
 H   -1.4707674350   -0.8924781903   -3.1570721464