13

 O    0.0354414302    0.0984623811    0.3222386520
 C   -0.0641792576    1.2601064291    0.1054131179
 C   -1.1425698902    2.2634299453   -0.0830382670
 C   -0.6726857712    3.6052951020    0.6113174913
 N    0.3638912529    3.5916817048    1.5969442395
 C    1.3974867793    2.7548830857    1.1719422803
 O    2.3587581924    2.4142580123    1.7940256237
 N    1.0167634254    2.2772890177   -0.1652166238
 C   -0.0630128934    3.1893900407   -0.6516323945
 H   -2.1736544975    2.1114017611   -0.3732976636
 H   -1.4178978314    4.3884855071    0.6698169168
 H    0.1810752402    3.6483796438    2.5872210840
 H    0.0050039509    3.6824270493   -1.6106883168