21

 O    0.0694073001    1.4449477760    0.1130873335
 C    0.0613963917    0.0255137959    0.1067168175
 C   -1.3335738196   -0.5447065252   -0.1792897552
 C   -1.3952023068   -2.0502333310   -0.1394679179
 C   -2.7225516483   -2.8490482434   -0.0755435366
 C   -1.7602372886   -3.8090666473    0.6513297008
 C   -0.8182668163   -4.3011267036   -0.4660849923
 C   -0.5271643699   -2.9051722185   -1.1016077881
 O   -1.0447656195   -2.6430233672    1.1641959267
 H   -0.4589170771    1.7370487735    0.8627230093
 H    0.7623927099   -0.2662203613   -0.6814104182
 H    0.4409893223   -0.3882425773    1.0517535138
 H   -2.0362617658   -0.1484863734    0.5654307760
 H   -1.6739131990   -0.1919890248   -1.1604286388
 H   -3.4370275813   -2.3873550274    0.6074494831
 H   -3.2021096807   -3.1688833843   -1.0048529319
 H   -2.0794479465   -4.5094760945    1.4227806488
 H    0.0770925823   -4.7712168805   -0.0543656639
 H   -1.2990853214   -5.0043452171   -1.1515779427
 H   -0.8497457267   -2.8215060614   -2.1431522764
 H    0.5280996010   -2.6326292470   -1.0429209275