18

 C   -0.0053410640    1.4562317464    0.0329130221
 C    0.1485306237   -0.0517914561    0.0674504566
 C    0.6384895980   -0.7067373199   -1.2294512026
 C    1.3862337116   -1.9702265674   -0.7693103155
 O    2.6258697701   -2.0411891856   -1.4434244371
 C    1.5542344056   -1.7198144098    0.7754485424
 O    1.1699294237   -0.3859837210    1.0231087239
 C    0.7391932761   -2.6669805887    1.5665036445
 N    0.0953089126   -3.4183867088    2.1639246136
 H    0.9369759923    1.9293705773   -0.2590028603
 H   -0.7784425121    1.7413529790   -0.6867771589
 H   -0.2947060416    1.8350290523    1.0165901199
 H   -0.7986681990   -0.5154854259    0.3873542634
 H   -0.1700381675   -0.9278683561   -1.9287588102
 H    1.3647212315   -0.0579695973   -1.7283573685
 H    0.7972481237   -2.8788695847   -0.9391707841
 H    2.9972893046   -2.9198541495   -1.3147610230
 H    2.6040427207   -1.8340644742    1.0612874938