17

 C    0.0526629559    1.3130166357   -0.2907792160
 O    0.0221132905   -0.0303293227    0.1885734210
 C   -1.2298627907   -0.5766153052    0.2113111747
 C   -1.8764519749   -1.1436113630   -1.0771565816
 C   -1.6987431139   -2.0723675086    0.0675859674
 O   -0.9971818071   -3.2501530343    0.0748316696
 C   -2.8047669612   -1.8529297390    1.0963282842
 C   -2.2746671460   -0.3979271566    1.2657356271
 O   -2.4894614165    0.4551014554    2.0818599465
 H    1.0961097303    1.6322284139   -0.2607126255
 H   -0.3167322758    1.3730716619   -1.3237927982
 H   -0.5498930051    1.9694401300    0.3466554419
 H   -2.8570918849   -0.8328162454   -1.4315543507
 H   -1.1251702139   -1.2354179307   -1.8593346277
 H   -0.3390979870   -3.2312566618   -0.6286517903
 H   -3.8362099819   -1.9913593423    0.7599611998
 H   -2.6340127377   -2.4157121174    2.0185514378