17

 O    0.2051954971    0.1519780540   -0.7683043799
 C    0.0701166782    1.2158343909   -0.2385337521
 C   -1.1464073187    1.9850904899    0.3203452160
 C   -0.1754011990    3.1019168369    0.7849471447
 C    0.4465702081    2.8572799590    2.2050317114
 C    1.6888207845    2.1700166272    1.5323507356
 C    1.0416941367    2.3482817232    0.1288033618
 C    0.7331710818    4.0435887003    2.9847342016
 C    0.9809174195    5.0407169728    3.6101391812
 H   -1.8060656388    2.3027384419   -0.4950740228
 H   -1.7542950957    1.4773141418    1.0750963469
 H   -0.4376801040    4.1296507214    0.5452522843
 H   -0.1544299612    2.1635427697    2.8027775043
 H    2.5939115457    2.7671323578    1.6475166450
 H    1.9001202528    1.1445053459    1.8427612830
 H    1.6703124224    2.7389070717   -0.6719033354
 H    1.1946101205    5.9154136256    4.1730820644