25

 C    1.4277327848    1.1526460115   -0.5638511248
 C    0.8793181776   -0.2228496042   -0.2503037003
 C    1.8017796699   -1.3938740087   -0.0090046645
 C    0.9583487751   -0.8542151481    1.1243421549
 C    1.5833178895   -0.1782943876    2.3234959980
 C    0.6318391007    0.7671908580    3.0899759835
 C    1.2292776742    0.9006704265    4.5161691480
 C    2.2859915096   -0.2352160925    4.6436507246
 C    2.0485116832   -1.1473184304    3.4275678806
 H    2.3603081769    1.3536927358   -0.0287438973
 H    1.6406649556    1.2496978121   -1.6344646219
 H    0.7143336396    1.9403788787   -0.2959644848
 H   -0.0292110448   -0.4584433154   -0.7996957846
 H    1.5565768548   -2.3598397303   -0.4373772933
 H    2.8675461292   -1.1847982897    0.0248165486
 H    0.0963684185   -1.4645731823    1.3907723770
 H    2.4595349610    0.3987902559    1.9983817029
 H    0.5070729587    1.7310834892    2.5885218904
 H   -0.3624639794    0.3059605435    3.1368199443
 H    1.6920813320    1.8806454197    4.6652271605
 H    0.4488643149    0.8092657062    5.2771573502
 H    3.2967222323    0.1853359237    4.5962332770
 H    2.2139755719   -0.7719220747    5.5937430066
 H    1.2435822383   -1.8645042524    3.6388283532
 H    2.9312529562   -1.7280205044    3.1438512411