13

 N   -0.0700518748    1.3646029840    0.1854284238
 C    0.0272717068    0.0075790146    0.0629193721
 N   -1.1398490900   -0.6688079295    0.0467747310
 C   -1.0428949062   -1.9888517715   -0.0299604804
 N    0.0661312187   -2.7250579989   -0.0977821785
 C    1.2083638040   -2.0305090836   -0.0841609909
 O    2.3513357042   -2.7333248513   -0.1533087968
 C    1.2620908444   -0.6472886381   -0.0044394436
 H    0.7174943525    1.9359713972   -0.0693400402
 H   -0.9850758420    1.7523536578    0.0203951501
 H   -1.9819018301   -2.5385296134   -0.0423257583
 H    2.0859690537   -3.6628874824   -0.2003728848
 H    2.2080134788   -0.1212947248    0.0089480866