20

 C   -0.4675302161    1.1058788329   -0.8692041171
 N   -0.0056306615   -0.2484562146   -1.0942296806
 C    1.0916813513   -0.7580012684   -0.4696186422
 O    1.7588996027   -0.1428903030    0.3448798354
 C    1.4159622357   -2.2081501885   -0.8502561711
 C    1.4544946675   -2.4891121787   -2.3467527380
 C    1.5382975834   -3.9697078582   -2.7853889056
 C    0.1624870095   -3.7215982202   -3.4337458600
 O    0.1505676846   -2.3477147223   -2.9834591280
 H    0.1883500693    1.5578008205   -0.1242599918
 H   -0.4272987197    1.7006731948   -1.7891667194
 H   -1.4973339740    1.1185028617   -0.4941386130
 H   -0.4567675079   -0.8240324454   -1.7920739932
 H    2.3915945073   -2.4352255697   -0.4123108757
 H    0.6763686949   -2.8706643141   -0.3826885340
 H    2.1829228542   -1.8312937648   -2.8371691483
 H    2.3478963003   -4.2077102691   -3.4760105467
 H    1.5441562453   -4.6872050678   -1.9627941280
 H    0.1331136676   -3.7847819950   -4.5274028444
 H   -0.6764358644   -4.2939691402   -3.0218982684