17

 C   -0.0188041035    1.5101397108    0.0562252941
 C   -0.0066495895    0.0164694701    0.0218125282
 C   -0.0259765901   -0.7938484151   -1.0595305981
 C   -0.0034685363   -2.2756882241   -0.6779676553
 C    0.0318747434   -2.1585159991    0.8103216455
 C    0.0300294553   -0.8485739202    1.2078145837
 N    0.0623793864   -0.7295445780    2.5748109471
 C    0.0838800422   -1.9773201986    2.9988071782
 N    0.0665469651   -2.8921312988    1.9654535552
 H    0.8700268875    1.8963250031    0.5686142081
 H   -0.0503592615    1.9346687906   -0.9505741784
 H   -0.8844533866    1.8809037598    0.6173097172
 H   -0.0542415951   -0.4694753513   -2.0919200929
 H   -0.8889006363   -2.8030133015   -1.0574737866
 H    0.8716380365   -2.7873165058   -1.1004874090
 H    0.1119612995   -2.2947373109    4.0306447118
 H    0.0776722331   -3.8931018410    2.0655929411