17

 C    0.4702069630    1.5926704606    0.0825561206
 C    0.0425741623    0.1181028840   -0.0049508784
 C    0.7155733322   -0.6579685751   -1.1517711779
 O    0.9745307863    0.1713252567   -2.2644360234
 C    1.9845479619   -1.1992245970   -0.4649022477
 O    1.6107055403   -1.4112227946    0.9011926234
 C    0.5074117936   -0.6572511470    1.2134575368
 N   -0.0240928842   -0.6147141456    2.3563817010
 H    1.5547192608    1.6976688121    0.1846686120
 H    0.1647058329    2.1299042035   -0.8174106351
 H    0.0012878303    2.0511627332    0.9560903306
 H   -1.0461591045    0.0688473158   -0.0674714672
 H    0.0732028389   -1.5036716646   -1.4366631379
 H    1.2379608871   -0.3832169308   -3.0048736237
 H    2.3419671262   -2.1500505007   -0.8695204257
 H    2.7902135915   -0.4572557662   -0.5289282703
 H    0.4917578513   -1.2006141645    3.0155785228