15

 C    0.0041236521    1.4704468394   -0.1403403572
 O    1.3332566410    1.6078798991    0.3948865191
 C    1.5001901129    0.1800932016    0.4690984157
 C    0.0525788498   -0.0720484088   -0.0181576650
 C   -0.9417644272   -0.7736414351    0.9372998254
 O   -1.5252375871   -1.8282694632    0.1368948050
 C   -0.9355885154   -1.7164879043   -1.0739940770
 N   -0.0713944261   -0.8105722272   -1.2774600831
 H   -0.7475404998    1.9748738495    0.4817131393
 H   -0.0718769259    1.8261251849   -1.1740517108
 H    2.2660008412   -0.1902898587   -0.2216926125
 H    1.7259154012   -0.1584759666    1.4893019899
 H   -0.4583896154   -1.2307303808    1.8056341412
 H   -1.7479048360   -0.1185864901    1.2802704077
 H   -1.2675755753   -2.4462587199   -1.8040488078