15

 C   -0.1571055682    1.5110513872    0.1568037091
 N   -0.1558999474    0.1930414704   -0.4584001370
 C   -1.1223981380   -0.7241803158   -0.1915247300
 N   -1.0859006961   -2.0071720572   -0.3840151353
 C   -2.3616272085   -2.4344723142   -0.0073265082
 C   -2.7697627796   -3.8407027792   -0.0692471082
 O   -3.8645860565   -4.2463880860    0.2523601008
 C   -3.0951900114   -1.3685460282    0.4035262290
 O   -2.3070178025   -0.2528427143    0.2929204632
 H    0.6270855549    2.1107826021   -0.3087849908
 H   -1.1155591868    2.0010531171   -0.0257122464
 H    0.0158053534    1.4830060448    1.2414834955
 H    0.7404198729   -0.2309968130   -0.6401013847
 H   -1.9749168900   -4.5192947379   -0.4434498504
 H   -4.0933346364   -1.2301761458    0.7777429533