18

 C    0.1178072812    1.4918642578   -0.3235336878
 C   -0.0866198809    0.0662806631    0.1141569955
 O    1.0326947904   -0.8375518774    0.0719578937
 C    0.4439868618   -0.5506553155    1.3413280806
 C    1.3072584944    0.0998306350    2.3928490550
 C    2.3028907828   -0.8635515714    3.1219785318
 N    3.3783194808    0.0213793911    2.6794470999
 C    2.5903578626    0.8967047233    1.9859259073
 O    2.8410835593    1.8944296031    1.3631238296
 H    1.0204800223    1.9297861815    0.1041815733
 H    0.1877409312    1.5356332194   -1.4158405607
 H   -0.7490611051    2.0931791455   -0.0258726207
 H   -1.0018573496   -0.3923852700   -0.2690766922
 H   -0.1393324904   -1.3818320738    1.7501339399
 H    0.6879645598    0.6685797743    3.0937166662
 H    2.1893853131   -0.9269068281    4.2085339453
 H    2.3470945182   -1.8694003505    2.6924861910
 H    4.3796925682   -0.0193351075    2.7934081124