17

 C   -0.0799232178    1.4006491102   -0.7398864986
 N    0.0762474876   -0.0214493168   -0.9719324685
 C    1.0915957842   -0.7344118496   -0.4283028799
 O    1.9242309636   -0.2868450349    0.3403352626
 C    1.1097185453   -2.2313414952   -0.7957225733
 C    0.7499739864   -2.6163099744   -2.2262938672
 C    1.5876536762   -3.7069363909   -2.8553683574
 O   -0.1679605515   -2.0933145719   -2.8261109053
 H    0.6075096287    1.6867574192    0.0567564729
 H    0.1558146033    1.9854476663   -1.6371180701
 H   -1.1052343541    1.6332830440   -0.4341414688
 H   -0.4727864154   -0.4855140504   -1.6845714898
 H    2.0912291644   -2.6145358837   -0.5135791897
 H    0.3749494705   -2.7331512742   -0.1501407748
 H    1.6161333034   -4.5897580125   -2.2068988684
 H    1.1888689164   -3.9721824761   -3.8349186568
 H    2.6226435687   -3.3596375091   -2.9576458868