19

 C    0.3153277007    1.4648244440   -0.3652477167
 C   -0.0025175067    0.0618728082    0.0795290079
 O    1.0775227947   -0.8757735189    0.1750816640
 C    0.3901403243   -0.5225017949    1.3779424469
 C    1.1792386091    0.1976529657    2.4076800784
 C    2.5304125012    0.8184967342    2.2621176703
 C    2.3054683995   -0.2349548065    3.3293585849
 C    1.4420506849    0.3512637989    4.4383651909
 O    0.4464272940    0.8091866636    3.4798568373
 H    1.1837781469    1.8671424344    0.1570743517
 H    0.5171901316    1.4824185563   -1.4414352390
 H   -0.5415953468    2.1193251951   -0.1739516828
 H   -0.8962212015   -0.3683580314   -0.3774744592
 H   -0.2486887988   -1.3100698502    1.7822614793
 H    3.0983873280    0.4715450470    1.4057441063
 H    2.6739567050    1.8611213829    2.5353305357
 H    2.8603349165   -1.1621515095    3.3699227589
 H    1.0099535586   -0.4014240924    5.1072165008
 H    1.8580347689    1.1761270635    5.0291661742