17

 O   -0.7970895360    1.1199232453    0.4494506353
 C    0.1439206919    0.7815810325   -0.2216388109
 C    1.4473377515    1.5585417018   -0.2620011827
 O    2.4116983691    0.9802194294   -1.1524013028
 C    2.4355726020    2.1580702325   -1.9883774151
 C    1.4407558111    2.8990902078   -1.0667283436
 C    0.1303911875    3.3575429995   -1.6480856006
 C    0.0249152523    3.9107351801   -3.0029874185
 O   -0.4029381213    2.5756577338   -2.7207779882
 H    0.1335826221   -0.1236941405   -0.8669425357
 H    1.8271548831    1.6499440554    0.7642830015
 H    3.4390768921    2.5912400481   -2.0544285561
 H    2.0534438731    1.9426511284   -2.9916048952
 H    1.8892464016    3.7182868447   -0.4993042635
 H   -0.6146094000    3.6595421776   -0.9122081909
 H   -0.7706204089    4.6154847572   -3.2377069682
 H    0.9156332287    3.9932511464   -3.6248818048