15

 N    0.0630020811   -1.1709176597    0.0001712703
 C   -0.0050467453   -0.0144678102    0.0096812335
 C   -0.0423612919    1.4131494837    0.0214166922
 C   -1.2083576004    2.0731430945    0.0140590178
 C   -1.2712919036    3.5711051585    0.0604383396
 O   -0.0326188700    4.1837786854    0.3412096978
 C    1.0377019265    3.6120134285   -0.3931658643
 C    1.2769017050    2.1607573250    0.0272335420
 H   -2.1514101641    1.5372240149   -0.0297938696
 H   -1.6911468336    3.9436643415   -0.8931887627
 H   -1.9613582188    3.8906053056    0.8507254099
 H    0.8295049028    3.6585709536   -1.4743218081
 H    1.9148554930    4.2308912229   -0.1894030806
 H    1.7250181825    2.1202928769    1.0272478911
 H    1.9846929969    1.6802546488   -0.6570574490