15

 O   -0.0008844863    1.5212373667    0.1200262430
 C   -0.0103806732    0.1323439806    0.0480041583
 C    0.8136256674   -0.6920417255    1.0887992543
 C    0.5582934260   -1.9862789076    0.8338934516
 C   -0.3932862918   -1.8274431182   -0.3318709082
 O   -1.2450586597   -2.4434993768   -1.3309683385
 C   -1.3605654612   -0.9563900267   -1.5509139898
 C   -1.3531371273   -0.6374911216   -0.0385754454
 C    0.1376578730   -0.7049053386   -1.2682099790
 H    0.9091150508    1.8260900927    0.0391836940
 H    1.4432587928   -0.2678437781    1.8591209882
 H    0.9164307120   -2.8837923984    1.3145068832
 H   -2.0158034583   -0.6463624524   -2.3608771652
 H   -2.1848939804   -0.6565458753    0.6650923532
 H    0.9828079164   -0.8056562109   -1.9499384995