13

 N   -0.0362410228    1.3238153242    0.1147352086
 C   -0.0418787901   -0.0393714921    0.0007509582
 N   -1.1148173861   -0.7920982756   -0.0162658830
 C   -0.5816324714   -2.0605358389   -0.0743781678
 O   -1.3685495543   -3.1349557311   -0.1093202377
 N    0.7206791686   -2.1620558357   -0.1057659869
 N    1.0946301945   -0.8235898244   -0.0426502282
 C    2.4241453302   -0.4163926273    0.0357215705
 O    3.3731854078   -1.1455398753   -0.0065562574
 H    0.6847683734    1.8293479420   -0.3762176115
 H   -0.9558574270    1.7246437715   -0.0019221048
 H   -2.2795104718   -2.8185360524   -0.0779737801
 H    2.4943525590    0.6811105352    0.1523372602