20

 C    0.0089375701    1.4018573712    0.0838266912
 O   -0.0782364509   -0.0009558605   -0.0818038864
 C    0.6041751237   -0.5179919092   -1.2046651466
 C    2.1588526779   -0.6056353437   -1.0271929254
 N    2.0029699483   -1.9888476103   -0.5498428618
 C    2.9697747605   -2.9750542342   -0.9707573735
 C    0.6356163772   -2.0673699838   -1.0906894961
 C    0.1232017810    0.0437606341   -2.4624353215
 C   -0.2718522281    0.5071103668   -3.4994719306
 H    1.0481351865    1.7376836964    0.2094474913
 H   -0.4329560319    1.9393014364   -0.7649369360
 H   -0.5486885450    1.6404721147    0.9919131006
 H    2.6813695250   -0.5199300700   -1.9922310662
 H    2.6096498300    0.0851044570   -0.3067791535
 H    3.9509953624   -2.7376757228   -0.5459874664
 H    2.6768530838   -3.9635391594   -0.6012101046
 H    3.0798126463   -3.0394599372   -2.0711994712
 H   -0.1124034905   -2.4897781439   -0.4130104717
 H    0.5689089441   -2.5527060513   -2.0758020235
 H   -0.6225744505    0.9112374797   -4.4170276680