19

 O   -0.1963245914    1.4709316870    0.1533704226
 C    0.0061570781    0.0672550010    0.0924266829
 C   -1.3633018636   -0.5787378879   -0.0805694415
 C   -1.3344192521   -2.1159962051   -0.0838654674
 C   -1.1681338929   -2.7450624818    1.3367306158
 O   -2.5650250227   -3.0760992632    1.4031489617
 C   -2.7606500159   -2.7401900338    0.0190270347
 C   -0.4828746123   -2.6590902352   -1.1281394349
 C    0.2130214205   -3.1200457533   -1.9943225600
 H    0.6642190754    1.8961971654    0.2082774253
 H    0.6556990197   -0.2116267011   -0.7496571823
 H    0.4853972979   -0.3055840268    1.0129555564
 H   -2.0165143126   -0.2454411443    0.7337975229
 H   -1.8052577058   -0.2211029369   -1.0171773818
 H   -0.5282013965   -3.6351080845    1.3587660378
 H   -0.8682096541   -2.0554011965    2.1340124189
 H   -3.5938249687   -2.0433807456   -0.1273018731
 H   -2.9049011007   -3.6278726710   -0.6080833536
 H    0.8277360979   -3.5276872363   -2.7584385745