20

 C   -0.1989185237    1.3478162693    0.1194405921
 O    0.1862401862    0.0080758710   -0.0579807448
 C    0.6295693786   -0.5993238374    1.1364224079
 C    1.0185187992   -2.0413179905    0.8329105006
 C    1.5370503148   -2.7643602485    2.0572883885
 C    0.5684982634   -3.3567035901    3.0686340317
 C    1.4024690245   -4.2537222519    2.1880809984
 O    0.7999558696   -4.9319908137    1.1235398981
 H    0.6346434873    1.9701346092    0.4841436235
 H   -0.5231455663    1.7291111307   -0.8522552119
 H   -1.0323187478    1.4449608368    0.8343511076
 H    1.4913835118   -0.0450470789    1.5499079330
 H   -0.1645839978   -0.5693354795    1.9025564179
 H    0.1540324697   -2.5716124842    0.4248331164
 H    1.7824652626   -2.0388647173    0.0463346174
 H    2.4525182462   -2.3498228691    2.4731500052
 H    0.7944574600   -3.2941246918    4.1276751543
 H   -0.4870703180   -3.2918762538    2.8230040774
 H    2.2303204859   -4.7889045204    2.6536869709
 H    0.2463925640   -5.6283519799    1.4912277758