21

 C    0.0466040617    1.5223466702    0.0228761395
 C   -0.0492567363   -0.0168416132   -0.0409750368
 C   -1.5271062642   -0.4613517623   -0.0050487720
 O   -2.2286135293    0.0412190998    1.1088900831
 C    0.7344449955   -0.5957310405   -1.2373162910
 C    2.1906357229   -0.7421824729   -0.7381627033
 C    2.0407006749   -1.1707790693    0.7302998901
 C    0.6948581115   -0.5992625022    1.1720981555
 O    0.2581917165   -0.6252499260    2.3021064963
 H    1.0835694835    1.8697893861    0.0678398452
 H   -0.4164450199    1.9558111865   -0.8700394625
 H   -0.4850708220    1.8958609469    0.8997593180
 H   -2.0395094201   -0.0882745870   -0.9003320346
 H   -1.5664471232   -1.5638179584   -0.0447780794
 H   -1.6986036628   -0.1905626007    1.8861220675
 H    0.3342739735   -1.5847534081   -1.4963806166
 H    0.6558287110    0.0294595866   -2.1308560298
 H    2.7661011255   -1.4548470861   -1.3333506586
 H    2.7093340200    0.2200911153   -0.8001850567
 H    1.9703107680   -2.2625620215    0.8250035448
 H    2.8436532532   -0.8507216134    1.3991150913