21

 C    0.1767560123    0.7409081633    0.9506703043
 C    0.2601965613   -0.6421156106    0.2875729227
 C    0.5214247348   -0.6162777761   -1.2114252272
 C    1.7216027096    0.1988715779   -1.6877632914
 O    1.4577987538    1.5858154831   -1.8614228362
 C    0.2836223976   -1.8477907415   -2.0880085104
 C   -1.0009082295   -2.5629772198   -1.6877578788
 O   -1.7544506587   -1.3208278797   -1.7271574092
 C   -0.6006146521   -0.6261970611   -2.2125195174
 H    1.1381357696    1.2685794498    0.9303477742
 H   -0.5778314371    1.3696708109    0.4656744513
 H   -0.1026781698    0.6469620862    2.0045083038
 H    1.0479415082   -1.2293386913    0.7778133548
 H   -0.6832605964   -1.1626648586    0.4704369271
 H    2.5651818638    0.0370173212   -0.9981777501
 H    2.0448849053   -0.1473524305   -2.6746117508
 H    1.1773347405    1.9451751654   -1.0152909405
 H    1.0395766709   -2.2447472412   -2.7530024584
 H   -1.3641160266   -3.2503187142   -2.4600411721
 H   -1.0462734751   -3.0540232985   -0.7087994850
 H   -0.7422176224    0.1163344051   -2.9889251106