21

 C    1.3709928352    2.1734224678   -0.5262508077
 C    1.8533592893    0.8250547343    0.0066954145
 N    1.6565183016   -0.2167606542   -0.9980892280
 C    1.8310796172   -1.6331737768   -0.6797576404
 C    2.2189221520   -2.1422747900    0.6939999555
 C    0.4788417996   -1.0800654039   -1.0105114135
 C   -0.6337990955   -1.0272945337    0.0337501878
 C   -1.6316809230    0.0026180719   -0.2610385239
 N   -2.4174910713    0.8150820712   -0.5019370670
 H    1.8775791247    2.4133086229   -1.4649632226
 H    0.2935681107    2.1615271774   -0.7142966329
 H    1.5794101001    2.9669076056    0.1982866216
 H    2.9300046595    0.8696108310    0.2088085109
 H    1.3667610644    0.6168078403    0.9725975402
 H    2.3327446091   -2.1798639384   -1.4792135261
 H    1.7162555017   -1.6257855570    1.5138914602
 H    1.9894176624   -3.2098891878    0.7783792408
 H    3.2971178533   -2.0271040552    0.8477348326
 H    0.0834792706   -1.2548671621   -2.0104375924
 H   -1.1439242221   -1.9980392135    0.0550563030
 H   -0.2520928794   -0.8564857399    1.0427292675