22

 C    0.9388535962   -0.4175619230   -1.1765197536
 C    0.0614112009   -0.0093946690    0.0097271821
 C   -0.0040559618    1.5137685734    0.1489556112
 N   -1.2812640843   -0.5452038351   -0.1647120915
 C   -2.2587439116   -0.3855378013    0.9396835117
 C   -2.6990248591   -1.8277214390    0.6953773124
 C   -3.4901225592   -2.7595541479    1.4902964347
 O   -4.0035876747   -2.1793156887    0.2796491252
 C   -1.4619518711   -2.0175321599   -0.1804360709
 H    1.9553786500   -0.0326759250   -1.0509355381
 H    1.0047552316   -1.5055656544   -1.2736875015
 H    0.5269702404   -0.0176880049   -2.1086752963
 H    0.5198031502   -0.4206762943    0.9350736966
 H   -0.4380969115    1.9590099503   -0.7520604473
 H   -0.6161135896    1.8144259984    1.0048322479
 H    0.9980684114    1.9281538376    0.2947744043
 H   -1.7943227676   -0.2470442354    1.9301338266
 H   -3.0154424827    0.3898435517    0.7831497840
 H   -3.2809383472   -3.8278821103    1.4436068678
 H   -3.9678278997   -2.4209919064    2.4092282717
 H   -1.6260782844   -2.4558638168   -1.1700016087
 H   -0.6596269161   -2.5711233099    0.3349967818