19

 C    0.1008875926    1.4700508368    0.1002669277
 C    0.0280000058    0.0168745452    0.0369012915
 C   -0.0356493475   -1.1847275198   -0.0603141266
 C   -0.0938755792   -2.6144201917   -0.0925625132
 C   -0.4904105504   -3.3396220612    1.2013635377
 O   -0.8175293374   -2.5853150859    2.3223237149
 C   -1.4142962021   -3.3729118560    0.0106597558
 C   -2.7360423105   -2.6493851543    0.0371127075
 O   -1.3819398707   -4.5457749297   -0.7605618082
 H    1.0235091387    1.8059604097    0.5865120435
 H    0.0751798638    1.9100145625   -0.9028266415
 H   -0.7414064751    1.8856841033    0.6641864941
 H    0.6533186422   -3.1164046114   -0.6992711894
 H    0.0551825293   -4.2555184703    1.4211913557
 H   -0.4096718041   -1.7146198856    2.2208157616
 H   -2.6891401019   -1.7688054910    0.6787127390
 H   -3.0253292806   -2.3418939092   -0.9720502164
 H   -3.5168012186   -3.3101238541    0.4327577150
 H   -1.9411057343   -5.1986337774   -0.3231741688