21

 C    0.0741566563    1.5237427228    0.1642199472
 C   -0.0403688803    0.0207119798   -0.1223389069
 C   -1.4598404838   -0.5046993219   -0.0998300293
 C   -2.4949948719    0.0140821636   -1.1004187743
 C   -3.7493274151   -0.8172055755   -0.6950437934
 C   -3.1682879077   -1.6364899594    0.4492061377
 C   -1.7046473582   -2.0385325442    0.1190132765
 O   -1.3216882840   -1.9365501117    1.5349526679
 C   -2.1757060288   -0.7685828884    1.2727213317
 H    1.1221539424    1.8381367005    0.1757539890
 H   -0.4419561842    2.1240416441   -0.5920540040
 H   -0.3570273946    1.7746825319    1.1394256024
 H    0.4046938421   -0.1975584833   -1.1025369542
 H    0.5344068825   -0.5425878635    0.6204668286
 H   -2.6601841906    1.0912458309   -1.0022505173
 H   -2.1837126722   -0.1709346624   -2.1342601433
 H   -4.5837648592   -0.1882243610   -0.3700114020
 H   -4.1165802067   -1.4490703387   -1.5096177905
 H   -3.7859247714   -2.3542509039    0.9876793608
 H   -1.3251031120   -2.8892271992   -0.4505697557
 H   -2.3707212526   -0.0857458106    2.1017574791