20

 C   -0.1754918503   -2.2316263425    2.6351627037
 N   -0.2241073971   -1.5364839162    1.3549874670
 C   -1.1718537456   -0.4449892579    1.1725961022
 C    0.2991026376   -0.1899786160    1.1716754305
 C    1.0021596391    0.7020444748    2.2123272214
 C    2.4129346687    0.1749173831    2.5093939436
 O    1.2061775414    1.9811832886    1.5935443140
 C    0.2458756522    0.8945181056    3.4596138155
 C   -0.3560361726    1.1285687285    4.4745868876
 H   -0.3399528500   -1.5958453514    3.5140249852
 H   -0.9432602599   -3.0120292340    2.6259509034
 H    0.7966151243   -2.7252781710    2.7371810186
 H   -1.7375615465   -0.4502755633    0.2436626883
 H   -1.7231749353   -0.0986005982    2.0457632952
 H    0.8002040436   -0.0543516701    0.2135490509
 H    2.9599836044    0.0640632228    1.5693109017
 H    2.9455186264    0.8851507248    3.1455086223
 H    2.3687570120   -0.7926523852    3.0127381794
 H    0.3369220686    2.3700476732    1.4426517466
 H   -0.8888621210    1.3239958046    5.3727421229