25

 C   -0.2491663538    1.5488447354    0.2060246763
 C   -0.0003566698    0.0507895131   -0.0021249036
 C    0.7302994407   -0.5936055638    1.1699519961
 C    0.0033493113   -0.7255541056    2.5404118267
 C    0.7217943036   -2.0911245936    2.7210760806
 O    0.0033335996   -3.1839382951    3.2283030193
 C   -0.2539840252   -3.0912127847    4.6099711548
 C    0.9895103326   -2.1398287653    1.1933287984
 C   -0.0053136543   -3.0014248911    0.4171642657
 H    0.6937411385    2.0930119035    0.3319956497
 H   -0.7757323601    1.9883059502   -0.6468952862
 H   -0.8555344037    1.7294972368    1.1002459857
 H   -0.9576494610   -0.4583376654   -0.1660348557
 H    0.5852805120   -0.0974940213   -0.9193456367
 H    1.6849104553   -0.0737600894    1.3179287965
 H    0.1659337341    0.0517743268    3.2907218085
 H   -1.0736484182   -0.8748917945    2.4089392512
 H    1.6594841797   -1.9625957054    3.2857694537
 H    0.6784065159   -3.0278691718    5.1939191772
 H   -0.8724329343   -2.2152078404    4.8575117410
 H   -0.7928783151   -3.9954627436    4.9037452444
 H    2.0073821058   -2.4358157859    0.9206028429
 H   -1.0436552398   -2.7600208632    0.6613440324
 H    0.1285810307   -2.8738398977   -0.6618760391
 H    0.1431889653   -4.0576850181    0.6571590002