18

 C   -0.9087666769    1.2650289045    0.9575214752
 C   -0.2713304113    0.1074000559    0.1957564435
 O    0.2739151041   -0.8705656917    1.1064874464
 C   -1.2231379017   -0.5412852235   -0.8587195832
 O   -0.5626761976   -0.7882780571   -2.0818289855
 C   -1.8324167292   -1.8889863093   -0.3858830168
 O   -0.8307661518   -2.8871268045   -0.3551734431
 C   -2.5245760528   -1.7655879803    0.9125119421
 N   -3.0381661449   -1.6431745916    1.9414304648
 H   -0.1901879546    1.6901845023    1.6642015440
 H   -1.2157616256    2.0557488105    0.2667014221
 H   -1.7949488938    0.9391164634    1.5130129135
 H    0.5857974390    0.4731704950   -0.3781057594
 H   -0.2578671772   -0.8590372065    1.9110932098
 H   -2.0346167945    0.1597621217   -1.0815788576
 H   -0.1087748065   -1.6366858379   -1.9778247523
 H   -2.5658803862   -2.2074389687   -1.1330668996
 H   -0.1687108885   -2.5547553620    0.2775365961