16

 O   -0.0422530704    0.1025080481   -0.4135920189
 C    0.0012453182    1.2590069756   -0.0856928782
 C   -1.1675429284    2.1150328516    0.4322519696
 N   -0.8240460813    3.5199328568    0.1536326054
 C    0.6360063969    3.6206569872    0.0007107698
 C    1.4419354591    3.7727818961    1.3187128640
 N    1.7237714831    2.3160467163    1.3043316506
 C    1.2216145523    2.1822428210   -0.0901473954
 H   -2.1099835994    1.8218075321   -0.0346105396
 H   -1.2660318202    1.9432378009    1.5121776894
 H   -1.2644094835    3.8015436440   -0.7136039777
 H    0.8857220841    4.3343176717   -0.7839466892
 H    2.3282249247    4.4102343472    1.2018330507
 H    0.8699022283    4.1118876383    2.1885410084
 H    2.6871363580    2.0394331279    1.4438270842
 H    1.9518943985    1.9403949051   -0.8663764632