19

 C   -0.1083146263    1.5658389234    0.1409752074
 C   -0.0247801816    0.0376777671    0.0349566629
 C    1.0909641200   -0.4474457301   -0.9538215294
 C    2.0092212901   -0.7282747614    0.2666522669
 C    0.7742960151   -0.6110158871    1.2003483635
 C   -1.4212821332   -0.5422448759   -0.1723682739
 N   -1.9341247195   -0.3704490579   -1.4300520232
 O   -2.0508615380   -1.0876220333    0.7137963394
 H    0.8844125059    1.9940742883    0.3153285530
 H   -0.5124820979    2.0120498618   -0.7738030881
 H   -0.7545291136    1.8592228833    0.9746723512
 H    0.8091203831   -1.3634456907   -1.4811725722
 H    1.4442464429    0.2829545849   -1.6882778568
 H    2.5403556472   -1.6823257179    0.2684657360
 H    2.7396807641    0.0682694946    0.4291540468
 H    0.8865215714   -0.0066456604    2.1037171831
 H    0.3482603520   -1.5754736279    1.4814228349
 H   -1.3634531346   -0.0566956416   -2.1954833234
 H   -2.8212366371   -0.7986065791   -1.6395647681