17

 O    0.4061379021    1.1421292102   -0.4790454268
 C    0.0522972808   -0.1353733397   -0.0311005423
 C    0.1555666604   -0.4096762049    1.5266140572
 C   -1.3938779303   -0.3884648128    1.6265278410
 C   -2.3735151017    0.8065952814    1.6341569260
 C   -2.9150865862   -0.0678797390    0.4787845741
 C   -2.4848699298   -1.4123615303    1.2126976042
 O   -1.7426380107   -1.9514962756    0.0902277670
 C   -1.4711364014   -0.5068704004    0.0785571760
 H    0.0363532842    1.7990033250    0.1194350030
 H    0.5858287512   -0.8479028635   -0.6643532054
 H    0.6069429273   -1.3753010873    1.7599795678
 H    0.6731131435    0.3692796763    2.0933364851
 H   -3.0120225069    0.9293077684    2.5139413984
 H   -1.9714594154    1.7817752822    1.3378161198
 H   -3.7940011111    0.0815294959   -0.1543321436
 H   -3.1044328361   -2.1002208161    1.7968523685