21

 C    0.1116414066    1.5518375254    0.1914380105
 C    0.0156066842    0.0391635438   -0.0228635509
 C    0.8652437755   -0.4536496535   -1.2031322684
 C    0.8387505498   -1.9723192408   -1.3444309208
 C   -0.4236522843   -2.7165319444   -1.9380505674
 C    0.0579565858   -2.2529580887   -3.3562334005
 C    1.3905430356   -2.6750709926   -2.6447752976
 C    0.5627197670   -3.8742756811   -2.1564494084
 O    0.6411825976   -5.0557724188   -2.0225641984
 H    1.1441116078    1.8578251760    0.3937459998
 H   -0.2273110631    2.1011165708   -0.6940432910
 H   -0.5028575310    1.8740340218    1.0376190866
 H    0.3297474255   -0.4814522136    0.8912605599
 H   -1.0316219820   -0.2442700098   -0.1881352450
 H    0.5375266055    0.0514533632   -2.1173468732
 H    1.9085307087   -0.1469156011   -1.0471083066
 H    1.2086982422   -2.4205386142   -0.4155575539
 H   -1.4388917092   -2.7364854059   -1.5475779326
 H   -0.2613150487   -2.8538468452   -4.2097350420
 H   -0.0472197021   -1.1899620816   -3.5654010685
 H    2.4029912484   -2.6439523797   -3.0423348718