18

 C   -0.1320664165   -1.1511284725   -0.3888741520
 C   -0.0508612607    0.0146046361   -0.1087088519
 C    0.0786642726    1.4288896292    0.2371253450
 C    1.4971664402    1.9317357179    0.1273365556
 C    2.6899262705    1.6478639564    1.0243035965
 N    3.3913142569    2.8537923335    0.4272999713
 C    3.6127397823    2.3859497922   -1.0006736185
 C    2.1098161504    2.4103051225   -1.2085330128
 C    1.9957670757    3.3387761831   -0.0316682819
 H   -0.2132199090   -2.1801138881   -0.6376493551
 H   -0.5748038748    2.0266045008   -0.4122925899
 H   -0.2886596139    1.5873408426    1.2603381951
 H    2.4738007709    1.8404157037    2.0794342169
 H    3.2366542868    0.7035927239    0.9248279636
 H    4.1303985826    3.1692565929   -1.5606402087
 H    4.1622283220    1.4421257929   -1.0908515753
 H    1.5263417934    2.4044642290   -2.1213249843
 H    1.5775976907    4.3222041839    0.1314682363