17

 C   -0.1688487560    1.5442618123    0.0531100181
 C   -0.0049034761    0.0297022022   -0.0119759822
 O   -1.3089973441   -0.5218745832   -0.1453131772
 C    0.8670075269   -0.4084597490   -1.1816664888
 O    0.9419126682   -1.8428621996   -1.1975697886
 C    1.2612840807   -2.5135322898   -0.0580857506
 O    1.5785201893   -3.6625716779   -0.0960285936
 O    1.1698176759   -1.8504285752    1.1097965140
 C    0.6878497442   -0.4983542363    1.2446622142
 H    0.7978399445    2.0514193304    0.1171501571
 H   -0.6956984680    1.8950811214   -0.8378368607
 H   -0.7664622763    1.8198986812    0.9266142999
 H   -1.2273739855   -1.4208452277   -0.4849416054
 H    0.4234068168   -0.1298719818   -2.1395622528
 H    1.8756424262    0.0166332101   -1.1146639553
 H    1.5495978510    0.1259909017    1.5045327234
 H   -0.0121693175   -0.5078623788    2.0834226085