20

 C    0.0844471970    1.5366647422    0.0313088587
 C   -0.1061064870    0.0367563254   -0.1782780718
 C   -1.5085627440   -0.4581998653    0.1329771441
 O   -2.4133203992    0.3163391532    0.3803053455
 C   -1.7202146019   -1.9655122002    0.1297385121
 C   -3.1904204296   -2.3836817147   -0.0509782647
 C   -3.3498985923   -3.8986879867   -0.0728431865
 O   -3.9922760723   -1.8870673618    1.0039716937
 H    1.1009558823    1.8374384635   -0.2363185240
 H   -0.6197977929    2.1065990704   -0.5791919686
 H   -0.0929820985    1.8118410649    1.0744098365
 H    0.1087549303   -0.2474830921   -1.2187606571
 H    0.6012298118   -0.5506638694    0.4229878218
 H   -1.0812267221   -2.4217368995   -0.6363326086
 H   -1.3584366523   -2.3432127908    1.0975933782
 H   -3.5376897725   -1.9777270731   -1.0171945670
 H   -2.7883397548   -4.3447200555   -0.8995674009
 H   -2.9945938343   -4.3326697171    0.8674969158
 H   -4.4056133398   -4.1579053874   -0.1876632964
 H   -3.8565255279   -0.9287253761    1.0014130993