16

 O    0.1704216947   -0.0006812748    0.3426757554
 C    0.1577469560    1.1870875138    0.2756904855
 O   -0.9399443504    2.0291871321    0.3591979591
 C   -0.1031590167    3.1622023610   -0.0166723478
 C    0.8991068101    3.3922525787    1.0488167283
 C    1.1420278551    2.2972247534   -0.0097715096
 C    2.3478520144    2.2040410407   -0.8678103227
 C    3.1784298550    0.9696891679   -0.8450195223
 N    2.3793529772    1.3077523438   -2.0350483340
 H   -0.5017968195    3.8487481797   -0.7492725548
 H    1.5460946934    4.2565500177    0.9257767734
 H    0.6634947049    3.1299113088    2.0752587643
 H    2.8443372780    3.1568970684   -1.0404444773
 H    4.2542362665    1.0428313852   -0.9753296647
 H    2.8388850703    0.1531976695   -0.2148872178
 H    1.5437539809    0.7267607041   -2.0537011551