12

 C    0.0508763828   -3.7551031790   -0.0378563164
 C    0.0348638536   -2.5474690957   -0.0153317847
 C    0.0174165111   -1.1885750130    0.0089972927
 C    0.0049048760    0.0230983587    0.0400747030
 C   -0.0085146709    1.4534618745    0.0450229049
 C    0.5102422040    2.1964704345    1.2372706862
 N    1.2684659424    2.2108386511   -0.0138390260
 H    0.0634132452   -4.8165645923   -0.0566819453
 H   -0.8040997969    1.9123412953   -0.5366311316
 H    0.0456933687    3.1410448446    1.5047910090
 H    0.8752892581    1.6054398279    2.0717213409
 H    2.0438026059    1.5543797133    0.0444575174