19

 C    0.0927427800    1.6074415941    0.2539189844
 C   -0.0038785431    0.0993692735   -0.0422954898
 C   -1.4028345804   -0.4023048290   -0.1432441810
 C   -2.1813403967   -0.8113066487   -1.1929070829
 N   -1.8332644791   -0.9252274104   -2.5418057238
 C   -2.9053123090   -1.1571866265   -3.4968011791
 C   -3.4167589609   -1.1525657014   -0.5691873242
 N   -3.3866286826   -0.9660651384    0.7294243809
 O   -2.1205555710   -0.4852033002    1.0028300037
 H    1.1384418244    1.9189908454    0.3344429405
 H   -0.3801335084    2.1968099591   -0.5378155852
 H   -0.4100061262    1.8470729861    1.1946843976
 H    0.5117551716   -0.1375866776   -0.9797700425
 H    0.5171009976   -0.4587992863    0.7451352296
 H   -1.2064738469   -0.1923993583   -2.8423005203
 H   -2.4824365235   -1.1823993316   -4.5038022050
 H   -3.3657173124   -2.1327041394   -3.3083958401
 H   -3.7011255881   -0.3949573172   -3.4716699970
 H   -4.3214408553   -1.5298924234   -1.0232117058