14

 C   -0.0153413985    1.4754800533   -0.0554072700
 N   -0.0080628275    0.0347585372    0.0657159966
 N   -0.0438748543   -0.7401007609   -1.0562976008
 N   -0.0288567055   -2.0063232436   -0.7288360321
 C    0.0175784630   -2.0430504001    0.6250879813
 C    0.0321854289   -0.7660384617    1.1660300447
 C    0.0803646117   -0.9451922606    2.5694954363
 N    0.0936849740   -2.2475145422    2.8484670782
 N    0.0554445242   -2.9147936122    1.6669405697
 H    0.8934824250    1.9044158592    0.3775784767
 H   -0.0582258160    1.7112142180   -1.1190308557
 H   -0.8883742361    1.9008898340    0.4487432229
 H    0.1056188383   -0.2272880857    3.3736013029
 H    0.0588259426   -3.9193470248    1.6693843593