23

 C    0.5136646853    1.4497931959    0.0758936802
 C   -0.0127162604    0.0338139104   -0.0350911781
 C    0.4083221374   -0.8094062050   -1.2624837113
 C    1.0388438659   -1.7289158845   -0.2234509773
 C    0.9933120438   -3.2208222458   -0.0982494008
 C    2.3308519035   -2.4904318914   -0.2332522164
 C    3.0772493288   -2.6210217428   -1.5463973678
 C    3.2077029126   -2.3975726223    1.0003756017
 O    0.6691417168   -0.8802682549    0.8672156582
 H    1.5871582316    1.4819127282   -0.1350386438
 H   -0.0023096967    2.1065442667   -0.6334424199
 H    0.3501621184    1.8406378937    1.0850869908
 H   -1.0933504605    0.0106341867    0.1572939502
 H   -0.4074657496   -1.2370572434   -1.8483529643
 H    1.1139016643   -0.3112632314   -1.9327716562
 H    0.7363539358   -3.6214462717    0.8774676454
 H    0.6307611875   -3.8048218604   -0.9395305542
 H    2.3936901824   -2.6571502052   -2.4006141655
 H    3.7598505125   -1.7764765702   -1.7001682712
 H    3.6770214360   -3.5388179995   -1.5649472470
 H    3.7791037415   -3.3218928625    1.1446590003
 H    3.9250196121   -1.5735026019    0.9076927671
 H    2.6127377510   -2.2148309886    1.8981412301