17

 C    0.2376328882    1.4158430808    0.2870540988
 C   -0.0983807237   -0.0522613971    0.0800700846
 C    0.6337304796   -0.7028491557   -1.1519701413
 N    1.6541554355   -1.5664569699   -0.5697349627
 C    1.4190803877   -1.6003219231    0.6817863881
 N    2.0468052807   -2.3698086239    1.6184347837
 O    0.4013907606   -0.8420456675    1.1882831258
 C   -1.5947214870   -0.3054708379   -0.0037737031
 O   -2.4021046945    0.5084073342   -0.3677100717
 H    1.3198680319    1.5664126768    0.2479218250
 H   -0.2369430374    2.0107443727   -0.4969266569
 H   -0.1348986025    1.7663119381    1.2531419324
 H   -0.0535088526   -1.2862167457   -1.7798683596
 H    1.0724689781    0.0722225165   -1.7889928284
 H    2.9224441216   -2.7636459903    1.3121639301
 H    2.0441815408   -2.0043631618    2.5578540175
 H   -1.8806132672   -1.3443955564    0.2740502276