21

 C   -0.1255875101    1.4986850362   -0.0231986836
 C   -0.0145881565   -0.0178148371   -0.0060648817
 C    1.2670926699   -0.6358389018   -0.6639693801
 O    2.0093886100   -0.2469915862    0.5404292191
 C    0.7622793662   -0.6517426549    1.1989706097
 C    0.6968950884   -2.1553961404    0.8633487417
 C    0.3277540485   -3.2493483611    1.8030337420
 C    1.0477047204   -2.1443459292   -0.4312282546
 C    1.2081862412   -3.2216111649   -1.4459940651
 H    0.8302877873    1.9571503888    0.2397790011
 H   -0.4228088885    1.8563400396   -1.0153754507
 H   -0.8846523081    1.8417913087    0.6886791292
 H   -0.9607838041   -0.5013851443   -0.2665891426
 H    1.7018750287   -0.2824318059   -1.6002049928
 H    0.6634042756   -0.3151488672    2.2321199388
 H   -0.6820192707   -3.1077838570    2.2100810676
 H    0.3541334853   -4.2279501505    1.3146887586
 H    1.0087863380   -3.2851087141    2.6631507307
 H    0.9888341811   -4.2079833062   -1.0267176468
 H    0.5412984893   -3.0693566255   -2.3047440828
 H    2.2303824280   -3.2464817268   -1.8452183474