17

 O   -0.2324177416    1.4849475102    0.4072490389
 C   -0.0033612264    0.1241299642    0.0388912682
 C    0.9287843936   -0.5563766536    1.0140667088
 C    0.7813867462   -1.8073266711    1.4585695563
 C   -0.3524327904   -2.6692518005    1.0414019208
 O   -0.3264233037   -3.8748512094    1.1991854983
 C   -1.5169085417   -1.9755632624    0.4196646416
 C   -2.1482552542   -0.8111736606    1.1732476415
 C   -1.3563993848   -0.5446366802   -0.0655923340
 H    0.5957109869    1.9667262249    0.3092116668
 H    0.4762205602    0.0883485046   -0.9547666467
 H    1.7891987447    0.0351005458    1.3245010903
 H    1.5099172239   -2.2732779623    2.1146299182
 H   -2.1828778575   -2.6381216279   -0.1203016734
 H   -3.2268500602   -0.7233167188    1.1208723998
 H   -1.7138117520   -0.5347343533    2.1266773898
 H   -1.9159046131   -0.2729209996   -0.9540154050