19

 C    0.0510851979    1.5750475553   -0.0030189777
 C    0.0078595248    0.0477200257    0.0586988604
 C   -1.4299639204   -0.5036967308   -0.0233601407
 O   -2.0970156971   -0.0737165594   -1.2099310247
 C   -1.4495193706   -1.9637818544    0.1086364468
 C   -1.4396310639   -3.1656662232    0.1765646135
 C   -1.4352254778   -4.6267480112    0.2766091180
 C   -2.7732811497   -5.2175755985    0.3439539555
 C   -3.8646634772   -5.7142350519    0.3987668913
 H    1.0826915614    1.9387992858    0.0036516982
 H   -0.4388553623    1.9368517658   -0.9103387635
 H   -0.4657260812    2.0192483511    0.8550464634
 H    0.5890024636   -0.3868044156   -0.7649743308
 H    0.4649087191   -0.3167254122    0.9860336039
 H   -2.0170148833   -0.0634789267    0.7933015530
 H   -1.7476206696   -0.5968851096   -1.9399728569
 H   -0.8938556316   -5.0523156706   -0.5797303309
 H   -0.8610440875   -4.9274518875    1.1640424842
 H   -4.8332565248   -6.1466643421    0.4473468370