18

 O   -0.0726297060    1.3973684883   -0.0193473137
 C   -0.0275701361   -0.0167331840    0.0126868288
 C    0.5013341620   -0.6110052555    1.3643055856
 C   -0.7903939912   -1.3301043572    1.8267244881
 C   -1.2362681786   -2.0333630389    0.5022801656
 C   -1.4611486692   -0.5672194721    0.0408337394
 C   -1.8907080583   -0.2666759121    1.5046699981
 C   -0.7511246875   -2.0316425545    3.0901254278
 N   -0.7232539484   -2.5954321610    4.0996019960
 H    0.8298530267    1.7310554593   -0.0206980018
 H    0.5345621796   -0.4056296181   -0.8473017847
 H    1.3341685616   -1.3073872490    1.2392925645
 H    0.8019621886    0.1833334423    2.0518865502
 H   -0.4903899060   -2.6420089492   -0.0162451656
 H   -2.1684083515   -2.5881296318    0.6184982338
 H   -2.0950515364   -0.3186325215   -0.8080499585
 H   -2.8923949648   -0.6317857291    1.7356112693
 H   -1.7421857645    0.7444702541    1.8846450270