15

 C   -0.0400546123    1.4805826168   -0.0602188430
 C   -0.0158288447   -0.0101180639    0.0325529109
 N   -0.0154596147   -0.7818767392   -1.0563920485
 N   -0.0006098148   -2.0369982755   -0.6170422671
 C    0.0158871087   -2.1155052184    0.7564590056
 C    0.0478121478   -3.3241822438    1.4745936350
 N    0.0808402378   -4.3088870996    2.0879054305
 C    0.0029096648   -0.7996709356    1.2119151717
 N   -0.0615606233   -0.3483840934    2.5210000453
 H    0.8540456320    1.9315832072    0.3883576736
 H   -0.0809477142    1.7845480392   -1.1077716758
 H   -0.9109369747    1.8990857394    0.4571343609
 H   -0.0027628763   -2.8012427867   -1.2707055165
 H    0.2164497587   -1.0279256859    3.2157381041
 H    0.3926837252    0.5402500992    2.6774289533