18

 C   -0.0296148801    1.3685416955   -0.1300499639
 O   -0.0424552316    0.0591008518    0.3947205554
 C   -1.2558032409   -0.6038476089    0.1909875194
 C   -1.6284392856   -1.2025991630   -1.2003896837
 N   -1.8476187078   -2.5658955893   -0.5888913767
 C   -0.5254815541   -2.9996539885   -0.0604605049
 C    0.7195847918   -2.7414296509   -0.7282166695
 C    1.7629949136   -2.6097422558   -1.3112609790
 C   -1.3183413886   -2.0196787239    0.7294198729
 H    0.9438603264    1.8029465378    0.1073169029
 H   -0.1634016778    1.3756714902   -1.2220793958
 H   -0.8184441067    1.9931329381    0.3185996221
 H   -2.0912257066   -0.0030808147    0.5819053829
 H   -2.5649934174   -0.8308474832   -1.6182457908
 H   -0.8424817838   -1.1845453308   -1.9589730280
 H   -0.6034953128   -4.0142913808    0.3251829876
 H    2.6910569600   -2.4679252781   -1.8074138531
 H   -1.7492679479   -2.3054774255    1.6839348021