22

 C    0.1164889789    1.3851083150   -0.3565870086
 C   -0.0418326296   -0.0195137077    0.2421376724
 C   -1.4437522965   -0.5974813035    0.0955726154
 C   -2.5007710525    0.1234892683    0.9213628978
 C   -1.9736389466   -1.1337526995   -1.2135864766
 C   -0.8975574289   -1.8537714555   -2.0394025097
 C   -0.6438219647   -2.8230111956   -0.8396921189
 C   -1.7122152682   -2.0804020657   -0.0283982294
 H    1.1487962654    1.7365651152   -0.2614356398
 H   -0.1426820349    1.3886445926   -1.4207541879
 H   -0.5257919907    2.1173712034    0.1423323424
 H    0.6928851486   -0.6826239500   -0.2234317671
 H    0.2157966086    0.0068604546    1.3096831885
 H   -2.5999457886    1.1732443648    0.6261430234
 H   -3.4831780750   -0.3442269839    0.8014533851
 H   -2.2478519980    0.0999316174    1.9878701672
 H   -2.9236901350   -0.7919205041   -1.6098654131
 H   -1.3124199864   -2.3747306282   -2.9051439675
 H   -0.0526698415   -1.2464941210   -2.3800097035
 H   -0.9436955285   -3.8465508222   -1.0759715801
 H    0.3669668468   -2.8541752425   -0.4196823193
 H   -2.4323750528   -2.5636977620    0.6231779790