17

 C   -0.1754870328    1.4517736206    0.0831478264
 C   -0.0364604917   -0.0569032158   -0.0273537950
 C    0.7757352314   -0.5092212356   -1.2397533087
 C    1.0347271581   -2.0100757262   -1.2226312947
 O    1.4571446774   -2.6206416011   -2.1706356121
 C    0.7144776545   -2.6796694776    0.1105617556
 C    0.9851227947   -1.7925290186    1.3165319942
 O    1.4987019485   -2.1757667891    2.3288057649
 O    0.6076598505   -0.4957894612    1.1920481994
 H    0.8102416207    1.9227476435    0.1394259213
 H   -0.7034577717    1.8477875138   -0.7891663112
 H   -0.7366874388    1.7174192435    0.9821462092
 H   -1.0366034674   -0.5119125366   -0.0638504656
 H    0.2801638765   -0.2412571597   -2.1773478516
 H    1.7507401961   -0.0038575155   -1.2356318815
 H   -0.3623689139   -2.9068037131    0.0999074366
 H    1.2519457079   -3.6209074314    0.2158809829