15

 N   -0.2612089319    1.3551653660    0.3376377859
 C   -0.0596548371    0.1810270722   -0.0684522572
 C   -1.0728082144   -0.9218297679    0.0647386473
 C   -1.5155168774   -1.3916555443   -1.2965784554
 C   -0.6595780094   -1.9577056074   -2.1448448779
 N    0.7011504857   -2.1362701080   -1.8720800027
 C    1.5780711898   -1.3731997001   -1.1342258931
 O    2.7253969039   -1.6891616944   -0.9696725117
 O    1.1386200850   -0.1494710474   -0.6853693367
 H    0.5404807889    1.9544121039    0.1337648655
 H   -0.6188663282   -1.7566452150    0.6181994564
 H   -1.9040920209   -0.5353648943    0.6520979600
 H   -2.5417217939   -1.2332598826   -1.6028424634
 H   -0.9685833810   -2.3390142137   -3.1123144533
 H    1.1701017211   -2.9248591070   -2.2930782438