16

 C   -0.1782682422    1.4769115255    0.0038891188
 C   -0.0338576162   -0.0131513640   -0.0006428637
 C    0.2730582552   -0.8089464018   -1.0587539281
 O    0.3121606280   -2.1221649879   -0.6897627056
 C    0.0325817927   -2.1663377280    0.6416515921
 C    0.0142403235   -3.5131783686    1.2919882212
 O   -0.7888071077   -3.5258912109    2.4584030548
 C   -0.1906638586   -0.9107675025    1.1142161045
 H    0.5286913522    1.9465230868    0.6971753709
 H    0.0030432331    1.8948852333   -0.9902304152
 H   -1.1835934582    1.7822011316    0.3158238957
 H    0.4798897890   -0.6080641970   -2.0974090427
 H   -0.3036891897   -4.2637167333    0.5510751634
 H    1.0180239047   -3.8046348460    1.6252728533
 H   -1.6639489461   -3.2119437033    2.2058163409
 H   -0.4252672496   -0.6509610141    2.1348756798