19

 C    0.1618631039    1.4399819204   -0.6023462397
 C    0.0184697368    0.2507085681    0.3329063819
 O    0.9025402066   -0.0779481092    1.0911403385
 C   -1.3045312897   -0.4581267802    0.2595169544
 N   -1.3740472032   -1.8518231341    0.7449667070
 C   -2.1127961030   -0.8325195603    1.4843488367
 C   -1.5895305646   -0.5451291513    2.8758950358
 C   -3.6227100242   -0.7858178089    1.3465633417
 H    1.1185106434    1.9333755669   -0.4287508080
 H    0.1032649085    1.1096167250   -1.6462720705
 H   -0.6574729174    2.1520325102   -0.4490193802
 H   -1.8984690313   -0.2003756064   -0.6158717157
 H   -1.9981151311   -2.3831188597    0.1411781553
 H   -0.5025554756   -0.6140284016    2.8997129116
 H   -1.8943106546    0.4532662830    3.2086184680
 H   -2.0032744240   -1.2739946470    3.5818360048
 H   -4.0860985624   -1.5382192595    1.9954618713
 H   -4.0175483611    0.1916042952    1.6436951149
 H   -3.9411639970   -0.9813436206    0.3173206424