21

 C   -0.0390325960    1.4643701398    0.0043073941
 C    0.0119903642   -0.0525108529   -0.0033531547
 C    0.6586161250   -0.7036586956   -1.2419580220
 C    0.3474196039   -2.2209377237   -1.0653040189
 C   -0.7765882064   -2.2202689830   -0.0253355856
 C   -0.4231986472   -1.8138096979    1.4429988107
 C    0.6432763434   -0.7190705849    1.2661939449
 O   -1.6396251075   -1.0036433022    1.4931320200
 C   -1.3686318508   -0.7995718435    0.0861099902
 H    0.9651624359    1.9011245967    0.0482105534
 H   -0.5274617635    1.8501224281   -0.8983572788
 H   -0.5988304051    1.8268380631    0.8729142437
 H    0.1906382411   -0.3214596310   -2.1578876619
 H    1.7291336356   -0.4875559248   -1.3142792245
 H    0.0243648645   -2.6806371683   -2.0035195238
 H    1.2207116031   -2.7857779917   -0.7224150057
 H   -1.5061956366   -3.0279513611   -0.0710300869
 H   -0.3316603302   -2.5289312271    2.2613117748
 H    1.6566160616   -1.0942516943    1.0954446583
 H    0.6520267795   -0.0573446044    2.1354295292
 H   -2.2115397745   -0.4156444413   -0.4903652164