21

 C   -0.0042981317    1.5460593348   -0.0261457499
 C    0.0382754408    0.0163082877   -0.0195025442
 C    0.6973618314   -0.5420369564    1.2498581174
 N    0.7589198520   -1.9896190567    1.2865953846
 C   -0.1648172200   -2.8141797294    1.8638583414
 C    0.1779517232   -4.1209874958    1.5931263036
 C    1.3683252099   -4.0911267732    0.8114074762
 N    2.0230630400   -5.2163047963    0.2679775962
 C    1.7028743156   -2.7642189305    0.6349667486
 H    1.0030859383    1.9738796941    0.0292322589
 H   -0.4748926032    1.9236617632   -0.9384492793
 H   -0.5743256016    1.9333538893    0.8259241930
 H   -0.9758788978   -0.3923606810   -0.0972634357
 H    0.5876117951   -0.3512368023   -0.8938362599
 H    1.7168520101   -0.1485561859    1.3441256992
 H    0.1463865835   -0.2069781069    2.1355808586
 H   -0.9907938316   -2.4049945547    2.4246647615
 H   -0.3521597017   -5.0015385631    1.9238427870
 H    1.9909748911   -6.0102757094    0.8956320077
 H    2.9923174499   -5.0252012585    0.0465218082
 H    2.5259076966   -2.3066468390    0.1091111968