18

 O    0.1487097378    1.3766384228   -0.3124570440
 C    0.0920248910   -0.0198252132   -0.0244991095
 C    0.8870813940   -0.3945319447    1.2431703766
 N    0.0899435624   -0.7906817249    2.4019980437
 C   -1.2628672128   -0.3277292817    2.6493085412
 C   -2.1332662362   -0.1566395322    1.3592342751
 C   -1.8269803249   -1.5945234891    0.9790210986
 C   -1.3466838717   -0.4616041444    0.1065903417
 C   -0.9821729305   -1.7509696210    2.2850369110
 H   -0.4240786936    1.8200291799    0.3238504651
 H    0.5512727290   -0.4930887413   -0.8981710645
 H    1.5660910574   -1.2286595683    1.0368665750
 H    1.5039055542    0.4649612248    1.5248559297
 H   -1.4989994479    0.1242644143    3.6059161934
 H   -3.0914125027    0.3452937972    1.3520395653
 H   -2.5145353664   -2.3483028672    0.6192606666
 H   -1.9279151211   -0.3388749272   -0.8037651601
 H   -0.9657850878   -2.6486983939    2.8926109350