15

 C    0.0418826834    1.4616065905   -0.0356605158
 N    0.1372542807    0.0172381115   -0.0664354481
 C    0.6192314605   -0.6209619765    0.9264115950
 C    0.7203428398   -2.0745174609    0.9065880142
 C    1.2297110804   -2.7170803808    1.9636871632
 O    1.3779082605   -4.0419162111    2.0732270403
 O    1.6677647811   -2.0612476981    3.0827151274
 C    1.5521893088   -0.6920524426    3.0525948255
 N    1.0912035641    0.0132851684    2.1165502280
 H    0.5996890758    1.8723592770   -0.8866889515
 H   -1.0056474992    1.7514890550   -0.1862251415
 H    0.4094770545    1.9246297007    0.8864530365
 H    0.3845353381   -2.6258568073    0.0404797526
 H    1.7668288383   -4.2366802539    2.9349793971
 H    1.9268087032   -0.2747457520    3.9826939470