16

 C    0.1671041301    1.4062359234   -0.1637388962
 C   -0.0633609409   -0.0525032828   -0.0013377499
 C   -1.1553846905   -0.8048383878    0.3027650521
 C   -0.7251814453   -2.1724728371    0.3044435474
 C    0.5984532772   -2.1520716346    0.0035070943
 C    1.6299245509   -3.2235876729   -0.1442876586
 C    2.1221895468   -3.3745628656   -1.5198672278
 N    2.5104721666   -3.4932116239   -2.6011476907
 O    1.0175551578   -0.8686288540   -0.1841631342
 H    0.9143930591    1.7768428091    0.5469058239
 H    0.5264187544    1.6445487993   -1.1709800729
 H   -0.7653179709    1.9488916097    0.0054028669
 H   -2.1481796400   -0.4326385311    0.5014064334
 H   -1.3235242030   -3.0489284158    0.4993107218
 H    2.4917185086   -3.0263808275    0.5056961399
 H    1.1981330090   -4.1758793284    0.1783592106