18

 C   -0.0552658108    1.5612850088    0.0586060117
 C    0.0492963117    0.0490074308   -0.0504803897
 C    0.6076873413   -0.7959887900   -1.1734853081
 C    1.6240866413   -0.3069981761   -2.1902555599
 C    2.1345312572    1.0905913190   -2.2845969991
 N    2.8570195324    0.0686895912   -1.4962101801
 C    2.6147265046   -0.0147152484   -0.0810139373
 O    3.3672028373    0.4137197495    0.7514486429
 C    1.3155279901   -0.7618924684    0.1682732688
 H    0.9164158857    2.0540625174    0.1327919000
 H   -0.6034464206    1.9932491600   -0.7852650758
 H   -0.6013592661    1.8187556679    0.9711860207
 H   -0.8111201391   -0.4447283327    0.3962312092
 H    0.0224786223   -1.6553432333   -1.4788121847
 H    1.7568876625   -0.9549792141   -3.0531604735
 H    2.6556163296    1.4049903352   -3.1850360018
 H    1.6310016958    1.8890894304   -1.7578857290
 H    1.3259469249   -1.5591593571    0.9021244257