16

 O    0.1975499566    1.6681694320   -0.0460055970
 C    0.1019740063    0.2552119452    0.0704753339
 C    0.6283086458   -0.4568582573   -1.1835918614
 C   -0.0869875782    0.0189695563   -2.4295233273
 O    0.4605988230    0.4451298395   -3.4120907831
 C    0.8037834175   -0.2394984552    1.3203185796
 C    0.0826181513   -0.4516843458    2.5775807510
 O    0.4577848550   -1.5566297709    1.7462695067
 H    1.0937261885    1.8921547794   -0.3216233605
 H   -0.9689561408    0.0448590433    0.1775419127
 H    1.7050704742   -0.2944636542   -1.3113187140
 H    0.4570652509   -1.5352215848   -1.0650301297
 H   -1.1977561286   -0.0561552450   -2.3755804531
 H    1.8725612537   -0.0144476416    1.3663584934
 H    0.6134344903   -0.3816364203    3.5252255793
 H   -0.9850404853   -0.2425817507    2.6228642595