15

 C   -0.0177685149    1.5057022921    0.0900365891
 C   -0.0006571384    0.0130699567   -0.0320451381
 C   -0.0209957078   -0.6895902386   -1.1809750484
 C   -0.0013260943   -2.1618577602   -1.1878857941
 O   -0.0180414020   -2.8139913771   -2.2124868841
 N    0.0407966604   -2.7881554339    0.0777723980
 C    0.0582532628   -2.0564452420    1.1305107942
 O    0.0979554708   -2.5935363455    2.3616122753
 N    0.0401875096   -0.6943003760    1.1611385281
 H    0.8758874203    1.8688274520    0.6115392550
 H   -0.0504372567    1.9668954621   -0.8974740810
 H   -0.8918596582    1.8447343329    0.6587770338
 H   -0.0527207035   -0.1848580712   -2.1375931973
 H    0.1076352187   -3.5520049316    2.2240758216
 H    0.0570005433   -0.2236164497    2.0521416280