14

 C    0.0477533019    1.5405204511    0.0204133431
 C   -0.0303158184    0.0569829563    0.0273422373
 C   -1.0801020396   -0.7745433735   -0.0667343608
 C   -0.5975364324   -2.2052426837   -0.0056275311
 O    0.8135478695   -2.1034851653    0.1308624895
 C    1.1942554299   -0.7873199808    0.1549938061
 O    2.3323850665   -0.4342618730    0.2624439157
 C   -2.4475778841   -0.4314580580   -0.2033429549
 N   -3.5702043889   -0.1687812290   -0.3153217956
 H    0.6884604777    1.8789514132   -0.8009308650
 H   -0.9379015066    1.9982230318   -0.0803176458
 H    0.5181055080    1.8959459433    0.9435052409
 H   -1.0090675425   -2.7483112970    0.8528152233
 H   -0.8366598311   -2.7657361552   -0.9166008829