15

 O   -0.0523805576    0.1149397565   -0.4786044876
 C   -0.0302219480    1.2536514754   -0.0936884251
 C   -1.2298654735    2.0603735191    0.4097024183
 C   -0.8327034292    3.5170713498    0.1850896978
 O   -1.5664692037    4.4457861215   -0.0169256729
 C    0.7031927836    3.5816532364    0.2082174139
 O    1.1807821531    3.5321823996    1.5768772928
 C    1.8415861559    2.2686282928    1.3478968424
 C    1.2125546039    2.1456136965   -0.0631254770
 H   -2.1713183282    1.7800452645   -0.0638395897
 H   -1.3328541312    1.8930248635    1.4908965278
 H    1.1040995412    4.4313248195   -0.3505396294
 H    2.9315100493    2.3805763962    1.3364240785
 H    1.5638860895    1.5078393920    2.0853895231
 H    1.8866414747    1.9357605967   -0.8917219628