15

 C   -0.0416720728    1.4636172818   -0.0020516192
 C    0.0005818954    0.0103223983   -0.0367819742
 C    0.0114593413   -1.1964711275   -0.0723371918
 C    0.0637990564   -2.6053974321   -0.1061970630
 C    1.2006753041   -3.3996785320   -0.0176421063
 N    2.5412904279   -3.0687632489    0.0466004456
 N    0.7244043079   -4.6600598996   -0.0955761175
 N   -0.6381240814   -4.6696089449   -0.2214972550
 N   -1.0246233717   -3.4390545213   -0.2332583984
 H    0.6085402234    1.9040841656   -0.7665355187
 H   -1.0594586105    1.8239229346   -0.1875891938
 H    0.2746215028    1.8552755023    0.9716152698
 H    2.6670119243   -2.0758855365    0.2000166983
 H    3.0821319610   -3.6033868000    0.7143569781
 H    1.2306797420   -5.5304490899   -0.1078876940