21

 C   -0.2038652474    1.5399175969    0.0497953309
 C   -0.0142975391    0.0360749687   -0.0269956378
 C    0.5434317568   -0.7205910542   -1.2698069899
 C    1.2782894760   -1.6219222124   -0.2338660143
 C    2.5771530143   -0.8667859391   -0.6230590355
 C    2.3783248062   -0.0617830284    0.6856168386
 N    0.9938998692   -0.6248570515    0.8870630635
 N    1.8640157830   -0.3292080025   -1.7877131036
 C    2.1762129919    0.9529101732   -2.3783525273
 H    0.7078240458    2.1000176612   -0.1645110702
 H   -0.9663075634    1.8592760803   -0.6689970617
 H   -0.5465267975    1.8242305303    1.0507064214
 H   -0.9738806390   -0.4411044955    0.2192540090
 H   -0.1696330034   -1.0380422419   -2.0382752652
 H    1.1457510364   -2.6890076957   -0.0710653020
 H    3.5582565230   -1.3028453982   -0.8362507656
 H    3.0241987791   -0.4173365623    1.4958742298
 H    2.4528988271    1.0289111711    0.6399707423
 H    3.1510404409    0.8933512079   -2.8776266659
 H    1.4266540487    1.1884136088   -3.1412715823
 H    2.2166135813    1.7998591433   -1.6744388743