20

 C   -0.0468194478    1.6402494817    0.0351466065
 C    0.0415970309    0.1255193924    0.0130511974
 C    1.0940361367   -0.6020874397   -0.8489292273
 C    2.4966440354   -0.2356369667   -0.3470648877
 C    2.2253565235   -0.2737254610    1.1789165294
 C    0.7389093673   -0.6519133989    1.1485655685
 N    1.1088008607   -1.7759148061    0.1553524285
 C    2.5944162046   -1.5181799622    0.4258905162
 C    3.6385896733   -2.5673950085    0.5853108837
 H    0.9354099240    2.0873161084    0.2206489185
 H   -0.4187733153    2.0294334120   -0.9188649301
 H   -0.7275240900    1.9860134022    0.8206688292
 H   -0.9355986727   -0.3355355981   -0.1721880300
 H    0.9401669403   -0.8246559583   -1.9054520599
 H    3.2754389731    0.3737400640   -0.7875854982
 H    2.7994816824    0.3069079596    1.8896676110
 H    0.2324322399   -0.9239533595    2.0753495093
 H    3.7187641657   -3.1838052914   -0.3168415036
 H    4.6157342208   -2.1087285401    0.7715833920
 H    3.4072513672   -3.2285903897    1.4276716767