19

 C   -0.8096318576    1.3466850443   -0.0239981497
 C   -0.0159670872    0.0608366231   -0.0870499404
 O    1.1884145317    0.1771535680   -0.8866913689
 C    1.9819010549   -0.5355625880    0.0886536902
 C    3.1563331314    0.2951197382    0.6182083424
 C    2.5636702774    0.9852070924    1.8279877467
 C    1.3119716566    0.6030332620    2.0894766246
 C    0.8147288098   -0.4365863498    1.1210051277
 O    0.2559540392   -1.5797857379    1.7200781664
 H   -0.2013431277    2.1614828011    0.3776963324
 H   -1.1467740440    1.6284314306   -1.0264758295
 H   -1.6948458121    1.2169668781    0.6078378613
 H   -0.6416851730   -0.7653248767   -0.4546361832
 H    2.2454865658   -1.5409858149   -0.2567573594
 H    4.0308155127   -0.3135826645    0.8834932685
 H    3.4831733766    1.0067039934   -0.1488108991
 H    3.1180313850    1.7189978896    2.4042527921
 H    0.6942573005    0.9717976052    2.9014407087
 H    0.7848172800   -1.7988578642    2.4949077590