22

 C   -0.0963773882    1.5602343331   -0.2054157394
 C   -0.0152884680    0.0322408286   -0.1677261129
 O    0.9833355980   -0.3855147333    0.7543117144
 C   -1.3914269221   -0.6220191442    0.1178009131
 O   -2.3769160030   -0.0523572533   -0.7429386647
 C   -1.4064246859   -2.1596239160    0.0558637285
 C   -0.5602474330   -2.8995190986    1.0746058389
 C   -2.6641232377   -2.8058349180   -0.4001083200
 N   -1.4642551430   -2.8120545694   -1.2677630969
 H    0.8990627212    1.9726984542   -0.3894332245
 H   -0.7796006571    1.9222612670   -0.9761987031
 H   -0.4579726200    1.9461562206    0.7562350000
 H    0.3399792965   -0.3395651918   -1.1397269560
 H    0.7637353936   -0.0122879639    1.6155092503
 H   -1.6988237596   -0.3267062988    1.1320330093
 H   -2.0151865216   -0.0093715100   -1.6346881046
 H   -0.8328646878   -2.5990512631    2.0937578631
 H   -0.7334105122   -3.9746385065    0.9812737889
 H    0.5026960324   -2.7008874086    0.9382950016
 H   -2.9357391207   -3.7778128558    0.0028867411
 H   -3.4925569982   -2.1672009887   -0.6834015749
 H   -1.5961916036   -2.1172512036   -2.0005080521