19

 C    0.1802693604    1.5354506195   -0.1286417549
 C    0.0087166086    0.0270222187    0.0611497884
 O    0.5383230959   -0.6734209665   -1.0644152186
 C    1.4359521278   -1.7178803781   -0.6573263703
 C    2.7486916818   -1.6096061840   -1.4269116795
 C    1.5520437489   -1.5351280421    0.8401728976
 C    2.3853862480   -2.3511682344    1.7258210948
 O    3.0845324370   -3.2696287989    1.3569771844
 C    0.7424770311   -0.5489012142    1.2375528927
 H    1.2405129155    1.7975937078   -0.1832799384
 H   -0.3026023468    1.8453834354   -1.0590507926
 H   -0.2796505589    2.0851074060    0.6991005287
 H   -1.0703971731   -0.1918455426    0.1547030666
 H    0.9750974457   -2.6937249567   -0.8792569718
 H    3.2448123206   -0.6594447377   -1.2070218461
 H    3.4112252972   -2.4318260437   -1.1464983322
 H    2.5525293962   -1.6574152142   -2.5014643506
 H    2.3280197370   -2.0684278889    2.8002491991
 H    0.6036490970   -0.2043203053    2.2561740926