21

 C    0.0399139085    1.5646923026    0.0396564052
 C   -0.0044337876    0.0571943305   -0.1174135381
 C   -1.2121949068   -0.5939025164   -0.0939721984
 C   -2.4908277750    0.2003865450    0.0887941682
 C   -1.3561661086   -2.0377550405   -0.0939173575
 C   -0.5571721243   -2.9342308345   -0.7003058582
 C    0.5706845886   -2.5093068210   -1.6022722769
 C    1.5721166206   -1.7863428204   -0.7416843326
 C    1.2804756582   -0.6163637103   -0.1451394689
 H    1.0694150956    1.9304575988    0.0431869159
 H   -0.4830481605    2.0680324666   -0.7821994981
 H   -0.4394891484    1.9022318349    0.9670992368
 H   -2.6479345194    0.9016478553   -0.7393423362
 H   -3.3617303849   -0.4581571176    0.1277345335
 H   -2.4821306804    0.8001767284    1.0075499798
 H   -2.2110393285   -2.4170103283    0.4646354326
 H   -0.7236621594   -3.9956833322   -0.5378253933
 H    1.0232847244   -3.3669838707   -2.1049872626
 H    0.1886316871   -1.8285246837   -2.3764265952
 H    2.5549188966   -2.2282219625   -0.6015309327
 H    2.0835158140   -0.1018749440    0.3812146566