27

 C   -1.0841173453    1.2292261004   -0.4956259606
 C   -0.4129216315   -0.1395723741   -0.3583421181
 C    0.1302875973   -0.6573340282   -1.6838654934
 O    0.7293691935   -1.9194176158   -1.4611177679
 C    1.2947663925   -2.5548014091   -2.6108145552
 C    2.7988621822   -2.7520597318   -2.3872208193
 C    3.5678857711   -1.4461205489   -2.1776395099
 C    0.5755037035   -3.8870102505   -2.8539205453
 C   -0.9239927937   -3.7392490862   -3.1193939747
 H   -0.3816631126    1.9833741444   -0.8676493827
 H   -1.9287392985    1.1921775942   -1.1926382828
 H   -1.4654676974    1.5790728134    0.4680206444
 H    0.4130798846   -0.0882725644    0.3605182138
 H   -1.1236312648   -0.8741848355    0.0377725645
 H   -0.6865301908   -0.7381566993   -2.4201463808
 H    0.8645628416    0.0554769310   -2.0944999052
 H    1.1479594933   -1.9058783791   -3.4894194508
 H    2.9302921399   -3.4015864832   -1.5126297075
 H    3.2098984412   -3.2962651925   -3.2467759159
 H    4.6314080899   -1.6375251006   -2.0047514330
 H    3.4872743702   -0.7894468763   -3.0515831974
 H    3.1781294083   -0.9057742086   -1.3106238981
 H    1.0584256019   -4.3938197247   -3.6988323791
 H    0.7330193052   -4.5239549014   -1.9743948568
 H   -1.4177369559   -3.2530248043   -2.2735820504
 H   -1.1144872346   -3.1376344754   -4.0156448736
 H   -1.3964337809   -4.7149027437   -3.2694162843