13

 C    0.0216771305    1.3767548373   -0.0320706527
 O    0.0072195648   -0.0597802342   -0.0494619317
 C    0.5836921263   -0.6532878021   -1.0732945509
 N    0.6593565294   -1.9384044453   -1.2483470135
 C    1.3417625219   -1.9970100432   -2.4408362223
 N    1.5952298165   -3.1983279902   -3.0459950859
 N    1.6816585846   -0.8424359108   -2.9748833618
 O    1.1447909860    0.0885999589   -2.0265061456
 H    1.0480573081    1.7521066334   -0.0167238935
 H   -0.5006146750    1.7780821818   -0.9042279647
 H   -0.4979556655    1.6583395013    0.8827776289
 H    1.6470268003   -3.9779085191   -2.4086833873
 H    2.3224817420   -3.1808745677   -3.7447828590