11

 N   -0.1557751057    1.3813635039   -0.0862621912
 C    0.1795452363    0.0305142073   -0.0147657383
 O    1.3125311404   -0.3708713887    0.0564007595
 N   -0.9700145861   -0.7744989619    0.0339927446
 C   -1.0479648902   -2.1625501724    0.0026474195
 N   -0.0818379123   -2.9332642801   -0.2734104313
 H    0.6525596041    1.9600639668   -0.2612870531
 H   -0.9623114342    1.6367385393   -0.6372449843
 H   -1.8334408677   -0.3002717920    0.2432861511
 H   -2.0723159705   -2.4850843965    0.2326925505
 H   -0.3967882839   -3.9012099558   -0.2360588770