18

 C    0.1161244564    1.4357580389   -0.3622823549
 C    1.3976131816    1.9976073276    0.3058416463
 C    2.1397439890    0.7489447506    0.7229769370
 C    3.4633268494    0.5710374776    1.0995961595
 C    3.8684292436   -0.7184570827    1.4471405698
 N    3.0642344227   -1.7853330772    1.4423168417
 C    1.7887218972   -1.5962860571    1.0822659684
 C    1.2837467711   -0.3558056175    0.7152188312
 C   -0.1111260692    0.0491863584    0.2945053162
 H   -0.7435838765    2.1017617467   -0.2580502787
 H    0.2985140212    1.3016569240   -1.4337062790
 H    1.9791894708    2.6439460847   -0.3583320171
 H    1.1500456259    2.5981383000    1.1918699080
 H    4.1714688637    1.3932303302    1.1199929445
 H    4.8995032605   -0.9022560862    1.7410043203
 H    1.1545475823   -2.4810866752    1.0834766023
 H   -0.7649129939    0.1340162982    1.1732255572
 H   -0.5863531757   -0.6674565810   -0.3819692928