24

 C   -0.1338815887    1.5812860735   -0.0089828463
 C    0.0610083172    0.0564893847   -0.0115907475
 C    0.7594904853   -0.3697748701   -1.3325310731
 C   -0.0622970436   -0.1005597058   -2.5105746116
 N   -0.7254642171    0.1127828360   -3.4330726721
 C    0.7888343819   -0.5108170215    1.2534445739
 C    0.0682767126   -0.0089637770    2.5219713632
 C    0.7130262604   -2.0520596712    1.2554510420
 C    2.2675252588   -0.0815072418    1.3176734332
 H    0.8220011563    2.1121429030    0.0579666070
 H   -0.6245647796    1.9018230865   -0.9326614674
 H   -0.7605799866    1.9081556096    0.8228192396
 H   -0.9361328272   -0.4029764677   -0.0219897601
 H    1.7087262276    0.1648271014   -1.4512034018
 H    0.9951743707   -1.4376189808   -1.3307805459
 H   -1.0038119637   -0.2332484308    2.4865253776
 H    0.4805094963   -0.5007766799    3.4090576299
 H    0.1834886836    1.0688520040    2.6628534419
 H    1.2727483799   -2.5051467758    0.4316208993
 H    1.1368373310   -2.4505848707    2.1828992685
 H   -0.3241691284   -2.3983190851    1.1893759802
 H    2.3798330036    1.0070040884    1.3164366555
 H    2.7273484028   -0.4542970741    2.2389771410
 H    2.8508535468   -0.4829039547    0.4827180629