20

 C   -0.2541757263    1.4987491039    0.0290637062
 C    0.0783248519   -0.0112139242    0.0019563546
 C    0.7887155446   -0.3218578444   -1.3173051571
 O    0.2397386477   -0.1166794591   -2.3867613561
 N    2.0573478955   -0.8127114786   -1.2525607575
 C    2.8299676683   -1.1374334882   -0.0709046836
 C    2.0401888640   -0.9694911143    1.1880764349
 C    0.8033463668   -0.4784643168    1.2448269926
 C    0.0542428287   -0.3708690644    2.5470875580
 H    0.6564771154    2.0954025332    0.1461589065
 H   -0.7352215207    1.7757593101   -0.9107800787
 H   -0.9294621337    1.7411275413    0.8533647207
 H   -0.8810405075   -0.5437381684   -0.0654476289
 H    2.4729351775   -0.9815971806   -2.1572869990
 H    3.1854404747   -2.1772484521   -0.1406401730
 H    3.7393521095   -0.5154770818   -0.0271408821
 H    2.5444947759   -1.2900841461    2.0957616608
 H    0.6259532241   -0.8015369656    3.3730941147
 H   -0.1717972701    0.6711088350    2.8009862632
 H   -0.9088452864   -0.8939112788    2.4883467038