17

 O    0.0284244784    1.4801497718    0.1339609166
 C    1.4298316474    1.5064275147   -0.0918757350
 C    2.1848920676    0.8371304983    1.0440444595
 C    1.7861283197    0.8683461536    2.4634873854
 C    0.7277116504    0.2978820941    3.0634169313
 C   -0.3211490957   -0.5302350183    2.4821773955
 C   -0.6413324975   -0.6863913096    1.1888780150
 C    0.0334858272    0.0076984280    0.0512465104
 C    1.5626750379    0.0115812699   -0.0693535974
 H    1.8405739259    2.2747659739   -0.7365889854
 H    3.2578535107    0.9447785166    0.8912308482
 H    2.4631756598    1.4359180084    3.0992738732
 H    0.6415831082    0.4452735532    4.1376280764
 H   -0.9259531065   -1.0686347729    3.2093882566
 H   -1.4598846122   -1.3533336684    0.9329364946
 H   -0.4226747266   -0.2827497510   -0.9016444734
 H    2.1364870953   -0.6707917624   -0.6806698315