19

 C   -0.0136287493    1.3822674993   -0.0601266366
 C    1.3985163869    1.9880695423    0.0224704193
 C    2.1947556628    1.4834584597    1.2569235745
 O    1.3053782064    1.0885356005    2.3078712165
 C    1.0944997353   -0.3221741618    2.1800218637
 C   -0.1641769057   -0.5664113414    1.3216177165
 O   -0.0544575276   -0.0363043122    0.0176777904
 C    2.3522016534   -0.8158711010    1.5082647003
 C    2.9743252067    0.2203191115    0.9615265805
 H   -0.6414705372    1.8160932404    0.7291398316
 H   -0.4561507704    1.6472996924   -1.0268998976
 H    1.9597152091    1.7587477892   -0.8901922214
 H    1.2841890784    3.0785166927    0.0614520448
 H    2.8283458403    2.2876193347    1.6487913995
 H    0.9299084150   -0.7356076643    3.1835546767
 H   -0.3410945542   -1.6418954083    1.2038015676
 H   -1.0283156199   -0.1299604309    1.8467158858
 H    2.6188543420   -1.8618447812    1.4321571966
 H    3.8667664983    0.2070466684    0.3489180913