20

 C    0.0302579485    1.6253506214    0.1256564675
 C    0.0134515715    0.0939207414    0.0560433452
 C    0.7355808420   -0.5237318119    1.2679761673
 O    2.0932707855   -0.1139447456    1.3617778970
 C   -1.4083340364   -0.4635807300   -0.0387916615
 C   -2.2351250412   -0.1890190985   -1.3351187139
 N   -2.3143795915   -1.6413803573   -1.5126811300
 C   -1.5425438426   -1.9627905195   -0.4250916543
 O   -1.1304304008   -3.0085323723    0.0064431578
 H    1.0544753783    1.9803747917    0.2622563125
 H   -0.3772412800    2.0803969109   -0.7827135516
 H   -0.5645760396    1.9806980271    0.9757023038
 H    0.5607471530   -0.2221791371   -0.8462966792
 H    0.2566911829   -0.1756323626    2.1916684410
 H    0.6423106277   -1.6164740180    1.2393049405
 H    2.5860493350   -0.5786662204    0.6783145184
 H   -1.9722986450   -0.2305309863    0.8709923735
 H   -3.2027055543    0.3006809522   -1.1900703890
 H   -1.6783953569    0.3253051153   -2.1256038200
 H   -2.6864465062   -2.2119135003   -2.2572969249