19

 C    0.0532924013    1.5235935620   -0.0131968092
 C   -0.0218672497    0.0030281842    0.0042682655
 O    0.5413007253   -0.4330130135   -1.2241663685
 C    0.7320726961   -1.8268290139   -1.3819207155
 C    1.2696355180   -2.5413649925   -0.1559465940
 C    2.2240222477   -1.9684557547    0.8654316159
 O    2.1800447442   -0.5453663964    0.9472725216
 C    0.7403847275   -0.6069982455    1.1823741408
 C    0.7673138002   -2.1425642302    1.2103842383
 H    1.0997708168    1.8403822297   -0.0130858375
 H   -0.4280676647    1.9142109038   -0.9132900986
 H   -0.4468611034    1.9463486274    0.8635369783
 H   -1.0751187228   -0.3244996804    0.0850182317
 H   -0.2199918935   -2.3129903223   -1.6612720861
 H    1.4161119215   -1.9315544354   -2.2312253746
 H    1.3834649230   -3.6152122723   -0.2890483198
 H    3.1222177529   -2.4642924731    1.2149608168
 H    0.4796181344   -0.1292968192    2.1316684409
 H    0.2577062954   -2.7863905875    1.9141211139