22

 C   -0.0004102365    1.5269843762    0.3853180243
 O    0.0199275989    0.1183321033    0.4140742895
 C   -1.1523370292   -0.5503578731   -0.0394113734
 C   -2.3415911975   -0.2922432848    0.8990715161
 C   -1.5050640761   -0.2484950374   -1.5265059786
 C   -2.1224072569   -1.5525030954   -2.0852048844
 C   -1.4547335250   -2.6471191512   -1.2703227880
 N    0.0094708610   -2.4623021642   -1.1816508635
 C   -0.8520053328   -2.0430860682   -0.0587454793
 H    0.9966722562    1.8592198732    0.6863062653
 H   -0.2081096301    1.9232461460   -0.6188763349
 H   -0.7312096860    1.9589588407    1.0847330042
 H   -2.6462940743    0.7579996176    0.8847311988
 H   -3.2077704909   -0.8894090899    0.5976723539
 H   -2.0811658428   -0.5600674932    1.9279883568
 H   -2.1746432986    0.6081962474   -1.6378401601
 H   -0.5734434082   -0.0285510291   -2.0514492146
 H   -3.2054259543   -1.5829684936   -1.9170497630
 H   -1.9545575811   -1.6614656946   -3.1615112483
 H   -1.8612812576   -3.6536621988   -1.2667691796
 H    0.4470380554   -3.3486957175   -0.9433635986
 H   -0.7848247936   -2.5724306335    0.8866515375