20

 C    0.0314463129    1.4621420367    0.2556632847
 C    0.1431529681   -0.0532106269    0.2386937667
 O    1.1944117537   -0.6166318057    0.4436496911
 C   -1.1411001150   -0.8225025677   -0.0535240024
 C   -1.0016901633   -2.3285152023    0.0886376090
 C   -0.8717150340   -2.9510305977    1.5069998595
 C   -1.7727567135   -4.1225892758    1.0316847576
 C   -2.2508485429   -3.2251360337   -0.1424473385
 H    1.0206324670    1.9067402655    0.3711709942
 H   -0.4386457413    1.8291160834   -0.6632473519
 H   -0.6086549772    1.7796013899    1.0871369095
 H   -1.9359182974   -0.4366686123    0.6013188456
 H   -1.4587018734   -0.5539733760   -1.0729151082
 H   -0.1692507740   -2.6709287152   -0.5330806491
 H    0.1334154726   -3.1794040609    1.8650449101
 H   -1.3780635879   -2.3360082239    2.2596409606
 H   -1.1800406865   -4.9704344057    0.6764154008
 H   -2.5299575754   -4.4972118122    1.7243493316
 H   -3.1757483579   -2.6947680863    0.1099608896
 H   -2.3748182445   -3.6844297633   -1.1267497406