19

 O    0.0397884313    0.2788789285    0.9755571906
 C   -0.0399911881    1.2948266105    0.3041291889
 C   -1.3881033171    1.7135373080   -0.1698319365
 C   -1.7669628766    2.5578289928   -1.1371698774
 C   -0.9537439879    3.3861237137   -2.0901826941
 C    0.4784822605    2.9297386272   -2.3867290780
 C    1.4432337875    2.9052170324   -1.2159458451
 C    1.1954410866    3.6114384873    0.0785997153
 C    1.1949905727    2.0866970481    0.0408281066
 H   -2.1632990738    1.1780697673    0.3725601075
 H   -2.8421771307    2.6677630376   -1.2758766409
 H   -1.5000697647    3.4280426413   -3.0407889983
 H   -0.9450361259    4.4261261768   -1.7310657393
 H    0.4501542913    1.9339883583   -2.8472203839
 H    0.8857601461    3.6064083935   -3.1477484647
 H    2.4825743425    2.8706594634   -1.5317594237
 H    2.0234426371    4.0926491059    0.5865885347
 H    0.2374914323    4.0945175730    0.2330305667
 H    2.0595497071    1.5938106745    0.4710138017