19

 C   -0.2742473899    1.5919949449   -0.1169842432
 C   -0.0060764118    0.0973184216    0.0025125984
 O    0.7263166151   -0.3541708861   -1.1817613945
 C    1.9491524320   -1.0290550302   -0.8707308468
 C    2.1890710492   -0.6377899279    0.5547616823
 C    2.8139919797   -0.9175643392    1.9415268865
 C    1.9010698463    0.3540348099    2.0076336786
 O    2.5112492761    0.8098269036    0.7514800777
 C    0.8117201687   -0.4102916910    1.1976217882
 H    0.6618707016    2.1496891104   -0.1125739911
 H   -0.8107198122    1.7982221234   -1.0476363632
 H   -0.8989606810    1.9300258493    0.7174890011
 H   -0.9652000710   -0.4366934338   -0.0059816253
 H    1.8443580787   -2.1201963457   -0.9679382626
 H    2.7239331612   -0.6797828362   -1.5601232861
 H    2.4996473269   -1.8188731618    2.4731090154
 H    3.8807254842   -0.7118277482    2.0289093222
 H    1.8032786666    1.0785304839    2.8167928651
 H    0.3639213694   -1.2692438068    1.7034485572