17

 C   -0.1704956763    1.7631877882   -0.0758072444
 C    0.0346053929    0.2625991181    0.0243815311
 N    1.2900656119   -0.2379316430   -0.6153281359
 C    1.5555652613   -1.1532699214    0.5199322515
 C    0.4964126917   -0.3881525241    1.3716829001
 C    1.0362660517    0.5255258865    2.3607429152
 N    1.4654626726    1.2545080348    3.1488993551
 C   -1.1471254313   -0.5063055166   -0.5525009110
 O   -1.7389250263   -1.4003571295   -0.0038221376
 H    0.7278508783    2.2871763557    0.2566885027
 H   -0.3698828901    2.0490228899   -1.1144922261
 H   -1.0174695822    2.0878569437    0.5378793552
 H    1.1811439303   -0.6744900807   -1.5273074431
 H    1.2613521798   -2.1962614185    0.3607043851
 H    2.5863146271   -1.1136760392    0.8789350607
 H   -0.2743987038   -1.0189457786    1.8170181908
 H   -1.3958794476   -0.2052432553   -1.5972106594