25

 C    0.1246812336    1.4279065693    0.0064980654
 C    0.0941253233   -0.1005323249    0.1338243749
 C   -1.3059371213   -0.6636513183    0.2590750575
 C   -2.1313638572   -0.9400971268   -0.9733816979
 C   -1.6044537898   -2.0852994008   -0.1418888258
 C    1.5424067318    1.9993133352   -0.1231877829
 C    1.5714974030    3.5082850252   -0.2461691719
 C    1.5396383144    4.3761713773    0.9877113084
 C    2.7954443911    4.2914606378    0.1532779394
 H   -0.4724790028    1.7286060602   -0.8646737273
 H   -0.3664295495    1.8780201472    0.8795203854
 H    0.5848425337   -0.5496522642   -0.7409648689
 H    0.6918057800   -0.4048482197    1.0047375248
 H   -1.8592101645   -0.2921633662    1.1190298573
 H   -3.1950739113   -0.7304596661   -0.9479231480
 H   -1.6693174638   -0.7643318975   -1.9399054780
 H   -0.7914695179   -2.6757481676   -0.5524258487
 H   -2.3082247367   -2.6563950420    0.4537787763
 H    2.1384907567    1.6986627428    0.7497729334
 H    2.0370932171    1.5499587087   -0.9959341150
 H    1.0258608697    3.8949554583   -1.1043082177
 H    0.9659571886    5.2961971583    0.9649567246
 H    1.5415198656    3.8803283693    1.9534669883
 H    3.6369725603    3.7404247564    0.5610815510
 H    3.0781519358    5.1530649180   -0.4416824248