19

 C   -0.0115036962    1.5833809968   -0.0839072835
 C   -0.2008995360    0.0747566649    0.1018593856
 C    0.6645593265   -0.5305221323    1.2111688726
 C    0.3450967859    0.0116880447    2.5978288026
 C    0.8278074568   -2.0724842861    1.1233096633
 C    2.2927386949   -1.7634930436    0.7651645558
 O    2.0834562700   -0.3456745296    0.9054757159
 H    1.0494775837    1.8157430567   -0.2132885945
 H   -0.5486446041    1.9353251949   -0.9697300346
 H   -0.3828789126    2.1536341665    0.7729396199
 H   -1.2532587225   -0.1594575585    0.3114257270
 H    0.0513192008   -0.4357167387   -0.8354197487
 H   -0.7028682047   -0.1778649310    2.8561394927
 H    0.9787130646   -0.4671719011    3.3497067280
 H    0.5220851434    1.0896894607    2.6474191690
 H    0.6816814219   -2.6028055515    2.0662242053
 H    0.2386302351   -2.5584952563    0.3432346556
 H    3.0476018098   -2.1374460599    1.4676821499
 H    2.5991224728   -2.0355426568   -0.2528790121