18

 N    0.4848145202    1.4260666889   -0.0721925255
 C    0.1812337920    0.0699826473   -0.0386827268
 C   -1.0475166310   -0.5673123546    0.0236145637
 C   -0.7396824524   -1.9395682175   -0.0362667935
 N    0.5643562634   -2.1634914510   -0.1358150448
 N    1.1231423401   -0.9173279948   -0.1201641616
 C    2.5676246378   -0.8101964320   -0.1033702688
 C    3.1916029594   -0.3680004977   -1.4226749829
 O    2.9949533474    1.0373432255   -1.5690805549
 H    1.4396583913    1.6346939786   -0.3339410746
 H    0.1586544728    1.9532654200    0.7245470917
 H   -2.0142227737   -0.0933751240    0.0704054569
 H   -1.4219530707   -2.7779303384   -0.0244249209
 H    2.8765671115   -0.1095255676    0.6820909661
 H    2.9337830019   -1.8040615888    0.1592248743
 H    4.2669131423   -0.5995704441   -1.4035510420
 H    2.7330468595   -0.9274363712   -2.2471250638
 H    2.9810867582    1.2589584915   -2.5037764326