18

 O    0.0101929527    1.3595681377    0.4001405379
 C    0.0394103347    0.0096475868   -0.0291082421
 C   -1.3660218479   -0.5555231765    0.1328098934
 C   -1.4569816873   -2.0242716315   -0.2962758136
 C   -2.8477629571   -2.6014910157   -0.1149340144
 C   -3.0636549203   -3.9887507461    0.3450822637
 O   -3.2459798703   -2.8875996540    1.2305588056
 C   -3.8906198182   -1.9970969502   -0.9326961914
 N   -4.6934972147   -1.5107731820   -1.6068744508
 H    0.8908078316    1.7307188875    0.2940356012
 H    0.3532576086   -0.0699010295   -1.0834251405
 H    0.7514556584   -0.5856188567    0.5669660333
 H   -1.6680721043   -0.4590680212    1.1811672148
 H   -2.0585656018    0.0551699011   -0.4572279431
 H   -1.1671529098   -2.1355562513   -1.3487291294
 H   -0.7688871339   -2.6369866976    0.2965978297
 H   -3.9706436630   -4.5164933067    0.0582541783
 H   -2.1900418074   -4.6097256040    0.5361749875