14

 C    0.1759053831    1.2445056142   -0.3796890141
 C   -0.1353083128   -0.2073137533    0.0800356135
 C    0.6145248583   -0.5723551715    1.2726892699
 C    1.2463838638   -0.8597266901    2.2525773541
 C   -1.6445576548   -0.3337164890    0.2891121540
 O   -2.2164215962   -0.2786771561    1.3483657261
 C   -2.4937588782   -0.5251886823   -0.9791333844
 O   -2.0319628209   -0.6440979915   -2.0831432715
 H    1.2466498290    1.3428313635   -0.5693697100
 H   -0.3643394319    1.4777915305   -1.3002040879
 H   -0.1061003398    1.9585012248    0.3979757680
 H    0.1255693431   -0.8743328713   -0.7506915882
 H    1.8006614334   -1.1224229866    3.1194886477
 H   -3.5814436861   -0.5562738211   -0.7599277274