16

 O   -0.3707892466    1.3153861610    0.0431258942
 C   -0.0180798097   -0.0602887183    0.0086502784
 C    0.7753239693   -0.3934972068   -1.1818769883
 C    1.4753227914   -0.6475930115   -2.1267862711
 C    0.7214947217   -0.5231058153    1.2718713609
 O    0.9975771208   -1.8938569079    1.2573361538
 C    1.6811273191    0.3986669128    1.9782997325
 C    0.3408131048    0.0394285390    2.5989035759
 H    0.4024609683    1.8225942129   -0.2261974998
 H   -0.9666860754   -0.6093716854   -0.0321979497
 H    2.0668430168   -0.8724253332   -2.9803198510
 H    1.5998924912   -2.0583107640    0.5207246129
 H    2.5690628108   -0.0599301965    2.3977717883
 H    1.8150299451    1.4126063411    1.6169489507
 H   -0.4225406188    0.8079171289    2.6198881248
 H    0.3399616812   -0.6519832769    3.4333554974