17

 O    0.0612754115    1.3781635404   -0.1339217910
 C    0.0133836325   -0.0310419415   -0.0060382005
 C    0.6975415501   -0.5511163233    1.2912117173
 C   -0.3858632768   -0.6205043243    2.3585741203
 O   -1.1899429018    0.6131953543    2.2657753932
 C   -2.1015594393   -0.0877285982    1.4048977407
 C   -1.6079198881   -1.4657684958    1.8271129450
 O   -1.4300165414   -1.9211951646    0.4841195093
 C   -1.4417223733   -0.5234516512    0.0438177176
 H   -0.2856747647    1.7251048130    0.6993161412
 H    0.5134141858   -0.4371909641   -0.8894957728
 H    1.1326951418   -1.5426113090    1.1361331159
 H    1.4974405054    0.1374389087    1.5778310316
 H   -0.0379561092   -0.7881736739    3.3795247227
 H   -3.1181222429    0.3044790368    1.4137182184
 H   -2.0863568162   -2.1867841592    2.4893781279
 H   -1.9981616833   -0.3832817880   -0.8842200868