18

 C    0.0897604618    1.4636492663    0.0206463568
 C    0.0356084477   -0.0313302114   -0.0159721918
 C   -0.0164408794   -0.8210788017   -1.0992506114
 C    0.0000703702   -2.2708557197   -0.7571170078
 C    1.2451354583   -2.7458880377   -0.0281694894
 O    2.4426382472   -2.0333565995   -0.0370369610
 C    0.0508210806   -2.3098953232    0.7786820325
 C    0.0357994911   -0.8600647508    1.2594559561
 H    1.0007846113    1.8217018555    0.5165989437
 H    0.0598564263    1.8943016583   -0.9839121642
 H   -0.7529339768    1.8725310160    0.5930135521
 H   -0.0362472111   -0.4609151644   -2.1226880948
 H   -0.5694753785   -2.9770292191   -1.3519257286
 H    1.4425074366   -3.8130993166   -0.0609807820
 H    2.2529795931   -1.1619904512   -0.4090189693
 H   -0.4963963054   -3.0571712664    1.3419513685
 H    0.9126310704   -0.6318577469    1.8813688013
 H   -0.8472623134   -0.6384156075    1.8728559993