19

 C   -0.0465252377    1.5741754728   -0.0747373802
 C    0.0670457657    0.0590996569    0.0114408997
 C    1.0693610284   -0.6783907879   -0.9207626035
 C    1.3437613944   -1.6644326962    0.2439891629
 O    2.6685654160   -2.0627740158    0.5158707148
 C    0.7658584168   -0.6220230762    1.2397756778
 C    1.8290360856    0.2115010505    1.9518298109
 H    0.9276887363    2.0617623790    0.0302047842
 H   -0.4631480168    1.8756858403   -1.0424424695
 H   -0.7048773894    1.9720397740    0.7058677902
 H   -0.9295475918   -0.3799148827   -0.1115528697
 H    0.6984160085   -1.0806246007   -1.8676234503
 H    1.9563120504   -0.0671577661   -1.1161712831
 H    0.6788913992   -2.5380989552    0.1743965609
 H    2.9566733749   -2.6512485552   -0.1888233178
 H    0.0787330240   -1.0362389883    1.9843600526
 H    2.5545368406    0.6435640790    1.2568046572
 H    1.3679749180    1.0303791672    2.5135921749
 H    2.3899151768   -0.4111667753    2.6541160982