20

 C    0.1308293412    1.4730502044   -0.0595439007
 N    0.0093618493    0.0318660581    0.1399582749
 C   -1.3500478373   -0.4884578791    0.0441842492
 C   -1.9623508396   -0.5796694253   -1.4014277759
 O   -1.6867225946   -1.9912200916   -1.4657363538
 C   -1.3430702351   -2.0398540455   -0.0695405278
 C   -2.2164945637    0.0884679845    1.0617949090
 C   -2.9670936654    0.5437996603    1.8863923132
 C   -3.8655709634    1.0946730492    2.8907917430
 H    1.1879975675    1.7489850528   -0.0170092124
 H   -0.2806072287    1.8382300616   -1.0165049250
 H   -0.3899984956    1.9941103211    0.7483026944
 H    0.5824698931   -0.4558870769   -0.5420952343
 H   -3.0362441839   -0.3654080796   -1.4578208773
 H   -1.4312845933   -0.0154779740   -2.1776160917
 H   -0.3683379409   -2.5074714882    0.1121455766
 H   -2.1110851784   -2.5381956986    0.5327095329
 H   -4.7111425775    0.4232509601    3.0762999241
 H   -3.3484055608    1.2480281490    3.8442139607
 H   -4.2733113629    2.0610185277    2.5741824607