16

 O   -0.0209502231    1.5090884337    0.1144781721
 C   -0.0346367702    0.1039171123    0.0794968851
 C    0.1649773240   -0.7121609876    1.3790680952
 C   -0.8531333013   -0.1484646493    2.3891154021
 C   -1.8724122439   -0.7581717224    1.4435293837
 N   -0.9054908082   -1.7311840454    0.8719190963
 C   -1.3986528779   -0.5413866291    0.0317433258
 C   -2.2875775107   -0.7500361074   -1.1321826566
 O   -3.3214778615   -1.3711036633   -1.0865876710
 H    0.8851840882    1.8138214020    0.0024675224
 H    0.5994561918   -0.2952070407   -0.7234257780
 H    1.1448874913   -1.0781063555    1.6786096977
 H   -0.8236791883   -0.6951663544    3.3341109000
 H   -0.8596962171    0.9298930099    2.5620104223
 H   -2.9059450786   -1.0356190780    1.6128287571
 H   -1.9296480946   -0.2852155750   -2.0775403240