19

 C   -0.0136972267    1.5283185483    0.0483382018
 C   -0.0300763979    0.0186983585    0.0730418506
 C   -1.2444116426   -0.6568672056   -0.5445312635
 C   -1.1011635748   -2.1885509357   -0.6363436096
 C   -0.6945973217   -2.8137129919    0.6903535872
 O    0.6735445096   -3.2189267043    0.8298727799
 C    0.2355342695   -2.0755604761    1.5591074506
 C    0.7207690632   -0.7223715514    1.1095398236
 O    1.2230048847   -0.6162794639   -0.2235932921
 H    0.8889130149    1.9137153781    0.5291407948
 H   -0.0351933030    1.8965737814   -0.9832481862
 H   -0.8881433649    1.9356160435    0.5672107591
 H   -2.1258412481   -0.3888398161    0.0537528343
 H   -1.4160471617   -0.2454904619   -1.5465397751
 H   -2.0457859254   -2.6200039720   -0.9804617986
 H   -0.3352865749   -2.4370830164   -1.3752384881
 H   -1.4019232884   -3.5006450054    1.1536194533
 H    0.1932006376   -2.2096887052    2.6403233234
 H    1.2884680606   -0.1562752838    1.8485713747