19

 C   -0.0312618002    1.5708848744    0.0810319688
 C    1.5065390309    1.4405368290   -0.0220524867
 C    2.0375745380    1.2804714083    1.4219852275
 N    1.8597831414   -0.1108873961    1.8601560789
 C    2.8410680395   -0.9266726179    1.0577851126
 C    1.7691128685   -1.1480873036    0.0189237872
 C    0.7066445647   -0.7911786190    1.0922602683
 C   -0.0067284273    0.0459615279    0.0071328221
 N    1.3135707752    0.0917189514   -0.7438403986
 H   -0.4372376636    2.0690570669    0.9642627996
 H   -0.4877542754    1.9814753942   -0.8224421458
 H    2.0565031774    2.1730506106   -0.6162512503
 H    3.0996243251    1.5281384089    1.5106248336
 H    1.4977889293    1.9642545610    2.0885413086
 H    3.7590306006   -0.4019240268    0.7734981918
 H    3.1033799544   -1.8477560086    1.5904399208
 H    1.7517653751   -2.0231275343   -0.6351221914
 H    0.1561911097   -1.4876659870    1.7282838618
 H   -0.8334612033   -0.4975655092   -0.4641397687