25

 C    0.1103136171    1.5530246610   -0.2258315044
 C    0.0145869455    0.0484787256   -0.0218632900
 O    0.6425740482   -0.5722594733   -1.1269356737
 C    0.6828573868   -2.0035807145   -1.1665285138
 C    1.4865981502   -2.5854976312    0.0045983330
 C   -0.7240821387   -2.6133949652   -1.2359205649
 C    1.4278411672   -2.2550216692   -2.4884751261
 O    1.5628452864   -3.6434068555   -2.6978519699
 C    2.2369660913   -3.9550930664   -3.8924255059
 H    1.1567590192    1.8652834417   -0.2873834428
 H   -0.3879281976    1.8460264935   -1.1544043980
 H   -0.3633870787    2.0827506243    0.6063457626
 H    0.5039630015   -0.2344341862    0.9221233982
 H   -1.0405885239   -0.2536941535    0.0552059928
 H    0.9462707997   -2.5025976176    0.9517044213
 H    1.6888165318   -3.6428134763   -0.1810163579
 H    2.4428306663   -2.0619383008    0.1029137777
 H   -1.3160884375   -2.1093871291   -2.0064176107
 H   -0.6507145642   -3.6723448913   -1.4938061014
 H   -1.2525288379   -2.5303110253   -0.2821502738
 H    0.8646399377   -1.7865611453   -3.3113165284
 H    2.4144364089   -1.7670089432   -2.4416456910
 H    3.2596559899   -3.5459996108   -3.9027425377
 H    2.2911966565   -5.0442114784   -3.9644783764
 H    1.7050256142   -3.5657059931   -4.7749082090