15

 N    0.2303237359    1.0143306641   -0.5013521907
 C    0.0593377034   -0.1324309343   -0.0316288177
 O    0.9299573656   -0.9876234583    0.6176212070
 C   -0.1076912036   -2.0217117558    0.7177588019
 C   -1.1209451372   -1.0861544149    0.0330085755
 C   -1.5154067094   -1.7598562244   -1.2968312358
 N   -0.5780335742   -2.8684318940   -1.3950473191
 C    0.1594904807   -3.1576877955   -0.2786632078
 O    0.8921830135   -4.1062525231   -0.1195585258
 H    1.1895429696    1.3395129923   -0.3701273319
 H   -0.2369990132   -2.3587181234    1.7449676140
 H   -1.9705512603   -0.7231786290    0.6083802781
 H   -2.5529016167   -2.1151939480   -1.2652301349
 H   -1.4179892475   -1.0668440529   -2.1382773865
 H   -0.5520239368   -3.4911168328   -2.1874934263