15

 C   -0.0055449517    1.5539898997    0.0772680710
 C    0.0846224305    0.0313107549   -0.0073889866
 C    0.7089568689   -0.5010751460   -1.2646548613
 N    1.1150907315    0.3335528171   -2.1587039046
 O    1.6859679591   -0.1698863737   -3.3073349069
 N    1.8368173058   -1.5721695517   -3.5286983919
 N    1.4487493304   -2.3670781410   -2.6747169135
 C    0.8446741507   -1.9415541968   -1.4527157370
 N    0.4526857968   -2.7878094443   -0.5878425607
 H    0.9835566896    2.0160973009    0.0249881024
 H   -0.6024853160    1.9647209419   -0.7410068115
 H   -0.4714949554    1.8435236147    1.0226203280
 H    0.6533126605   -0.3818498493    0.8355272966
 H   -0.9060147867   -0.4324673593    0.0826821331
 H    0.6446891159   -3.7357377671   -0.9240774072