21

 C   -0.0672169191    1.5401926168    0.1487108220
 C   -0.0090627382    0.0210437112   -0.0409040632
 C    0.7656277631   -0.4922959641   -1.2858176767
 C    2.2080125088    0.0333179177   -1.3164252037
 C    0.6928932231   -2.0426447780   -1.3436118779
 C   -0.1443234353   -2.3531933606   -2.5559456659
 C   -0.5146953438   -1.2597537741   -3.2313420492
 C    0.0305378122   -0.0512878163   -2.5769613455
 O   -0.0611284869    1.0903527578   -2.9740904489
 H    0.9255503597    1.9620955477    0.3323474426
 H   -0.4829151975    2.0380058826   -0.7295580562
 H   -0.6916156567    1.7840723048    1.0141385240
 H    0.4533458327   -0.4378090259    0.8432165911
 H   -1.0313070651   -0.3776168871   -0.0883726829
 H    2.7263658775   -0.1902923948   -0.3775049843
 H    2.7750627418   -0.4264211318   -2.1327976137
 H    2.2188865377    1.1142060659   -1.4742529964
 H    1.6869832451   -2.4992930287   -1.4346957360
 H    0.2468397891   -2.4733891035   -0.4385931415
 H   -0.3975192682   -3.3725198132   -2.8298598011
 H   -1.1066492799   -1.2143797063   -4.1365097066