16

 C    0.0216179060    1.4996315153   -0.1953802158
 C    1.4063571040    2.1114613464    0.1639306932
 C    2.3023695143    1.0168842575    0.7393776879
 O    1.6754805802    0.4457536342    1.8837576209
 C    0.7578801751   -0.4790014488    1.3411003114
 C   -0.0177082651    0.0133503056    0.1323182376
 C    1.2556024777   -0.7960434150   -0.0369898835
 O    2.4320213763   -0.0361611131   -0.2109225272
 H   -0.7755866971    2.0118533898    0.3527864513
 H   -0.1934026880    1.6410024115   -1.2594160101
 H    1.8949757559    2.5359406159   -0.7179645946
 H    1.3086015419    2.9095459117    0.9056681408
 H    3.2989209414    1.3657118490    1.0190521359
 H    0.3762030134   -1.1815307907    2.0697244453
 H   -0.9460512892   -0.5077026113   -0.0831007850
 H    1.3041596931   -1.7726332079   -0.4996263383