23

 C   -0.1414497690    1.5282905715    0.3924868630
 C   -0.0688889292    0.0678117275   -0.0081031352
 C   -1.3710226391   -0.5180281036   -0.4975879508
 O   -1.7734235239    0.1598165362   -1.6755043083
 C   -3.0088608423   -0.2856066352   -2.2024284488
 C   -3.1957799950    0.4279896757   -3.5324332441
 O   -2.1313705968    0.1447509391   -4.4181946915
 C    1.2009587213   -0.4503776627   -0.6398560047
 C    0.8391225392   -0.8552730169    0.7688373796
 H    0.8369611958    1.9001089637    0.7115883539
 H   -0.4840007596    2.1422927734   -0.4456009260
 H   -0.8416068726    1.6746343251    1.2239580029
 H   -1.2570744672   -1.5952762978   -0.7026143275
 H   -2.1523179424   -0.4128588793    0.2749255975
 H   -2.9838928296   -1.3758569407   -2.3618483794
 H   -3.8386313839   -0.0585544313   -1.5126325402
 H   -4.1200485046    0.0873139114   -4.0106784784
 H   -3.2895726937    1.5104094131   -3.3477566379
 H   -1.3271511513    0.2793945912   -3.9023728046
 H    1.1175354633   -1.1960970103   -1.4233220377
 H    2.0205445873    0.2466794032   -0.7772350251
 H    1.4076917323   -0.4277021026    1.5878076186
 H    0.5179099311   -1.8774589807    0.9412929746