20

 C   -0.3324967020    1.6437861001    0.0997957077
 N   -0.1824018906    0.1991819304    0.1258352786
 C   -0.9516832853   -0.5746363066    1.1322477539
 C   -2.1778627659   -1.2684351204    0.5520914099
 O   -3.0470407078   -0.3448955551   -0.0819382255
 C    0.3104776733   -1.4281178715    1.4109377111
 C    1.0994010667   -0.3389925018    0.6210988949
 C    2.0309728087   -0.8521574399   -0.4544712828
 O    3.2318310746   -0.8586779886   -0.3753992335
 H    0.3119457532    2.0732996947   -0.6744597687
 H   -1.3695253199    1.8999631333   -0.1327584316
 H   -0.0748419591    2.1188753636    1.0636081238
 H   -1.2416655397    0.0435152234    1.9955235011
 H   -1.8527709045   -2.0507708207   -0.1512060698
 H   -2.7552568975   -1.7517932368    1.3479595808
 H   -2.5751100151   -0.0230711679   -0.8579740004
 H    0.6084628810   -1.5687222339    2.4486990386
 H    0.2906629563   -2.3977857815    0.9058979116
 H    1.6512618707    0.3409710247    1.2854966183
 H    1.4920444828   -1.2606285954   -1.3409507781