15

 C   -0.1092130881    0.5211512642    0.3615155409
 O    0.9615014286    0.3829024911   -0.5557583976
 C    0.6781261152   -0.4632782447   -1.6341973935
 C    0.5646988964   -1.9162257501   -1.2557730548
 N   -0.1973020155   -2.8187931583   -1.8009450857
 C    0.1559743968   -3.9404326485   -1.0907933341
 O   -0.3889256574   -5.1326516719   -1.3235052793
 N    1.0590667077   -3.7660680524   -0.1598244808
 O    1.3380027528   -2.3875701631   -0.2791177387
 H   -1.0160865299    0.8968657910   -0.1352956791
 H   -0.3462592588   -0.4273049463    0.8622995860
 H    0.2125509301    1.2448436690    1.1125974311
 H   -0.2502393025   -0.1900433382   -2.1573328850
 H    1.5077430412   -0.3509929317   -2.3418323885
 H   -1.0224864466   -5.0204745002   -2.0427962510