19

 O    0.5651652574    1.2264013532   -0.8279844982
 C    0.1822579167    0.0487946733   -0.1860756418
 C    0.4805231367   -1.2027117398   -1.0500612109
 C   -1.0181598519   -1.6297736859   -0.9709238061
 C   -1.3029916433   -0.4675348297    0.0049619321
 C   -0.9479407730   -0.7973097108    1.5000963738
 C    0.4486734653   -0.0988167758    1.3261878957
 C   -1.8193337089   -0.2288319631    2.5072570254
 C   -2.5413292201    0.2720332484    3.3292318760
 H    0.3124369398    1.9725749633   -0.2734768512
 H    0.8148456843   -0.9298280269   -2.0523855963
 H    1.2028246608   -1.9001742580   -0.6173030712
 H   -1.5349764912   -1.5137519529   -1.9263461166
 H   -1.2233678571   -2.6342660347   -0.5901320797
 H   -2.1904481820    0.1470842855   -0.1428372353
 H   -0.8540857085   -1.8763186402    1.6614867374
 H    1.3313839882   -0.6651962504    1.6359278392
 H    0.4599986136    0.8732314409    1.8287049709
 H   -3.1809384569    0.6993894737    4.0609098669