16

 C   -0.0194973365    1.4902298875    0.0830469661
 C    1.3741056058    2.1535244515   -0.0461808521
 C    2.1870032221    1.4162139881   -1.0609424832
 N    3.2118049226    1.8462314632   -1.7875139625
 N    3.5853959460    0.7467536388   -2.4480921943
 N    2.8901776280   -0.3636663529   -2.2137778293
 C    1.9834401435    0.0452174115   -1.3230046124
 C    0.9264357981   -0.7072158966   -0.6763228187
 C    0.0007260122   -0.0247100767    0.0128579099
 H   -0.4924347167    1.8164722804    1.0146447012
 H   -0.6718132218    1.8562854086   -0.7248114890
 H    1.2768439866    3.2130716885   -0.2971647629
 H    1.8898949688    2.1056653754    0.9230606313
 H    4.3445394859    0.7633968393   -3.1085873303
 H    0.9019068713   -1.7873216699   -0.7673837762
 H   -0.8154180259   -0.5531509266    0.4965355725