18

 C    0.2378257535    1.5216336845   -0.0914396805
 C    0.0472835134    0.0032446810    0.0001925116
 N    0.4133431077   -0.6212424930   -1.2756713714
 C    0.9579055271   -1.7653881942   -1.2864102872
 O    1.3776968610   -2.5334796423   -0.2570777512
 C    1.3847371427   -1.9539669227    1.0298347023
 C    2.2542675490   -0.7315075825    1.2468114385
 O    3.0899332493   -0.2377607593    0.2484632178
 C    0.7452077503   -0.5986084123    1.2145807551
 H    1.2973164129    1.7800667604   -0.1736224591
 H   -0.2848239151    1.9112646048   -0.9687594370
 H   -0.1600466316    2.0112057641    0.8032498198
 H   -1.0279620202   -0.1896608345    0.1221323871
 H    1.1630004209   -2.2740322284   -2.2266732521
 H    1.3089880496   -2.7307786096    1.7811458690
 H    2.7427516554   -0.6447879529    2.2122941241
 H    2.5921300914   -0.1347348191   -0.5708323173
 H    0.2496716727   -0.4082412940    2.1629737405