20

 C    0.4148432346    1.8140589215    0.2432690284
 C    0.0927041221    0.3278408225    0.1726856346
 C    0.7993950717   -0.5417494394   -0.9345626154
 C    1.3803326041   -1.4300237614    0.1676626606
 N    2.1873737126   -0.5801298578    1.0310343455
 C    0.7185852671   -0.5900771402    1.2415035422
 C    0.1906216870   -1.1338756334    2.5135301648
 C   -1.2493356659   -0.8200464247    2.8648799329
 O    0.8966861930   -1.8196517565    3.2305679864
 H    1.4928770120    1.9636072121    0.3432492409
 H    0.0756624587    2.3302410194   -0.6611493978
 H   -0.0775528283    2.2875879473    1.1002465155
 H   -0.9887821271    0.1691267382    0.1252178673
 H    0.0906174448   -1.0559380776   -1.5863908082
 H    1.5495300131   -0.0264254379   -1.5399674651
 H    1.5020077800   -2.5068905571    0.1685041721
 H    2.5586041167   -1.1671739235    1.7813666871
 H   -1.9266319264   -1.1956784963    2.0898916298
 H   -1.4984842727   -1.2780630697    3.8224348114
 H   -1.4006683174    0.2638633743    2.9213607371