21

 C    0.1276212743    1.5235112355   -0.1835923260
 C   -0.0534924941    0.0140005002    0.0574675391
 C    0.6577808208   -0.4809062316    1.2814678405
 C    0.1195966538   -1.0039044239    2.3898895798
 C    1.1534969913   -1.3836492478    3.4274519793
 C    2.4823307041   -1.0541817102    2.7408037503
 C    3.7068909834   -0.7254953134    3.5496106088
 O    2.6967159979   -1.8297773447    1.5529142921
 C    2.1524223187   -0.4926773245    1.4178336633
 H    1.1829867979    1.7871637354   -0.3088699623
 H   -0.4011732228    1.8382887180   -1.0884094147
 H   -0.2626201918    2.1026980845    0.6590276660
 H   -1.1214139114   -0.2151999593    0.1445335436
 H    0.3129283134   -0.5322347580   -0.8225098776
 H   -0.9410024024   -1.1825454754    2.5350651949
 H    1.0334885591   -0.8099085514    4.3563282792
 H    1.1013901048   -2.4447036695    3.7013497502
 H    4.0115957600   -1.5848263852    4.1577448855
 H    4.5408363365   -0.4633879631    2.8937603925
 H    3.5145090797    0.1127065400    4.2276829632
 H    2.7922538669    0.2055914345    0.8843587425