18

 C   -0.3905890106    1.2573103485   -0.3218802115
 O    0.8154774153    1.3825644846    0.4351155463
 C    0.3114577992    0.0649897105    0.1729124607
 C   -0.1880054375   -0.6912189769    1.3283331715
 C    0.4489568534   -1.4425512053    2.4681382370
 C   -0.3245923915   -0.5572583165    3.4296927649
 N   -1.2961752733   -0.2332131102    2.3103844062
 C   -1.9481841778   -1.5840341950    2.0782888519
 C   -0.6157062049   -2.1124611619    1.5772199172
 H   -1.2935102680    1.5765345103    0.1941276854
 H   -0.3160459869    1.5293759343   -1.3740211932
 H    0.9166090611   -0.5142613971   -0.5261876980
 H    1.4590903462   -1.8283699952    2.5267945197
 H   -0.7902408084   -0.9942707930    4.3202426241
 H    0.2245453977    0.3472227113    3.6997168419
 H   -2.4075589809   -2.0249124141    2.9701282707
 H   -2.6941435256   -1.4949948972    1.2845790706
 H   -0.3856571574   -2.9922684273    0.9884838148