18

 C   -0.3911660892    1.4141695205    0.0554480930
 N    0.0970712298    0.0455680623    0.0015892464
 C    1.1168936618   -0.3755234546   -0.9973216980
 C    1.8902179526   -1.0863164378    0.1273770562
 N    2.3937696222   -2.4084610851    0.0033004557
 C    2.3440187916   -0.0384491190    1.1639369981
 C    2.8170191174    1.2683499591    0.8185922037
 N    3.2221323428    2.3106715816    0.5143637065
 C    0.8741001548   -0.5174600709    1.0779382798
 H    0.3968667884    2.1743963470    0.1470041608
 H   -0.9679964718    1.6206266008   -0.8517109791
 H   -1.0694942037    1.5129547696    0.9093538020
 H    0.7114112548   -1.0703931180   -1.7376437485
 H    1.6496218310    0.4410782657   -1.4988412917
 H    3.3236892445   -2.4123680725   -0.4060993724
 H    2.4558430647   -2.8725769905    0.9030561606
 H    2.8709942631   -0.4880232097    2.0019537861
 H    0.4051137852   -0.9368669887    1.9636672509