15

 O    0.0460591694    1.3595773362   -0.0298361767
 C    0.0245028834   -0.0165636944    0.0937550151
 C   -0.3878709713   -0.7190062007    1.3609084466
 N   -1.1488804891   -0.0165732407    2.3333840118
 C   -2.2295626575    0.3967803842    1.7814135329
 N   -2.4039631173    0.0900736455    0.4356603351
 C   -1.3021145259   -0.7423756404    0.0390569772
 C   -1.6033823302   -1.8887201243   -0.8202562106
 O   -2.7264178322   -2.1656724392   -1.1820788825
 H   -0.8647464500    1.6562333189   -0.1615882988
 H    0.8366875240   -0.5016128971   -0.4437131518
 H    0.1864261723   -1.5761090165    1.6960457587
 H   -2.9772348202    0.9917990963    2.2941581918
 H   -3.3102981179   -0.1959355229    0.0836920810
 H   -0.7219892476   -2.4912392949   -1.1246766298