16

 N    0.0872915175   -1.1148265538    0.0132255737
 C    0.0588011742    0.0397421097   -0.0016107620
 C   -0.0382705485    1.4901290977   -0.0188883406
 C   -1.0198834267    2.1682386299    1.0061809714
 C   -1.4798677597    3.0797660800   -0.1332453153
 C   -0.2824568993    3.5664228602   -0.9350963579
 C    1.1023292517    3.4538757069   -0.3110717175
 O    1.2555516615    2.0674114613    0.0342727263
 C   -0.8177356193    2.1887730868   -1.1729278718
 H   -1.8105071027    1.4818442566    1.3163221232
 H   -0.5411852941    2.6053929399    1.8872414652
 H   -2.4376981436    3.5803237102   -0.1954674457
 H   -0.4686606805    4.3352470154   -1.6751539475
 H    1.8934230732    3.7198390403   -1.0200331732
 H    1.2162335407    4.0760249394    0.5858238159
 H   -1.1591507745    1.7609303696   -2.1042624141