22

 C    1.7055129687    0.4605402413   -0.9326744569
 C    0.4498645103    0.2778560977   -0.0701156877
 C    0.6530795890   -0.6101999099    1.1502173005
 C    1.6890825412   -0.1425512278    2.1616893008
 N    1.3774197754    1.1518900783    2.7533395963
 C    2.0960078530    2.2789176410    2.5105020469
 O    3.0860899081    2.3483557810    1.8106143554
 C   -0.5519818760   -1.3434348700    1.6985109009
 C    0.5297109722   -2.1034586801    0.9686023315
 H    2.1174995508   -0.5073311507   -1.2386879385
 H    1.4687641768    1.0250538216   -1.8399218941
 H    2.4820336993    1.0114438547   -0.3944090284
 H    0.0859132335    1.2610449748    0.2550747182
 H   -0.3538410005   -0.1556519413   -0.6777059602
 H    1.7818748803   -0.8888513933    2.9602268753
 H    2.6719085253   -0.0324944641    1.6986226765
 H    0.5408291505    1.2364617391    3.3092519536
 H    1.6751470616    3.1555414352    3.0422899598
 H   -0.6319738431   -1.4849630231    2.7722640128
 H   -1.5052138346   -1.2035807935    1.1999020253
 H    0.3107291153   -2.4758784985   -0.0264167392
 H    1.1769815728   -2.7532559322    1.5488211511