20

 C   -0.0787940845    1.5827550400   -0.0959180232
 C    0.0755881778    0.0655691296   -0.0130923063
 C    0.9538386173   -0.5542501889   -1.1141502560
 O    1.2954188894   -1.8538836767   -0.6495706875
 C    1.4436579953   -1.7981654177    0.7611845975
 C    2.8056030178   -1.2512520209    1.2763615064
 C    2.1131041108    0.0750889389    1.7009540506
 C    0.7307400690   -0.5004960380    1.2592316843
 H    0.8862703441    2.0945144759   -0.0250292879
 H   -0.5382564205    1.8778686850   -1.0455478139
 H   -0.7161250500    1.9608213782    0.7098007820
 H   -0.9180494849   -0.3937877597   -0.0931428794
 H    0.4418020716   -0.6652695967   -2.0743794882
 H    1.8556536687    0.0595712654   -1.2812803276
 H    1.1325223543   -2.7661302360    1.1613343358
 H    3.2224615390   -1.8260147511    2.1073220095
 H    3.5672392828   -1.1677947040    0.4971665966
 H    2.1805638859    0.3092446604    2.7655721319
 H    2.4427843486    0.9563832958    1.1448815910
 H    0.0155138776   -0.6199430496    2.0751214844