17

 C   -0.1172714889    1.4004706016    0.1643022726
 O   -0.0510419137    0.0013514021   -0.0581490754
 C   -1.3117255886   -0.6496286143   -0.0950956804
 C   -1.1083590784   -2.0278154292   -0.7273412569
 N   -0.4720481657   -3.0251314039    0.1258605115
 C   -0.6492348531   -2.9000711966    1.3730316892
 N   -1.3729615809   -1.8827723788    1.9987188359
 C   -1.8274006181   -0.7540175830    1.3445709491
 O   -2.4855899298    0.0986881652    1.9008698253
 H    0.9106296531    1.7684847023    0.1320016288
 H   -0.7034476442    1.8981464374   -0.6225241066
 H   -0.5638419369    1.6464255395    1.1350270352
 H   -2.0359351929   -0.0572548945   -0.6716836313
 H   -2.0833380713   -2.4249712355   -1.0451437492
 H   -0.5054118400   -1.9011112181   -1.6315847775
 H   -0.2335841649   -3.6327050589    2.0633000558
 H   -1.5519681557   -1.9275626855    2.9922885238