19

 C   -0.2463282473    1.4998249604    0.0255411948
 C    0.0598946995   -0.0035310807   -0.0344310521
 O    0.7586718330   -0.3879823229   -1.2126749761
 C    2.1124297693    0.0048426941   -1.2609694009
 C    2.8648503113   -0.2870764985    0.0007834783
 C    2.2632392248   -0.5545894015    1.1691748336
 C    2.9853133000   -0.8985372217    2.4405967493
 C    0.7855696849   -0.4482825217    1.2389143767
 O    0.1687254274   -0.6300140628    2.2704801044
 H    0.6674270874    2.0969167859    0.1114411545
 H   -0.7801444954    1.8069293146   -0.8777595388
 H   -0.8705385853    1.7105333920    0.8977329318
 H   -0.8829151880   -0.5565694628   -0.0726317411
 H    2.5566082225   -0.5487792580   -2.0967151540
 H    2.2174968448    1.0768245644   -1.5125375595
 H    3.9512873961   -0.2693385686   -0.0700754361
 H    4.0683088181   -0.8965947690    2.2943063052
 H    2.7304281720   -0.1916107571    3.2364050563
 H    2.6816777349   -1.8867589062    2.8014979735