21

 O   -0.2553972434    0.0351930117   -0.4010092427
 C    0.0911114232    1.1418473542   -0.0796878754
 C    1.4406334718    1.7528992186   -0.3820920382
 C    1.3063637424    3.1082169308   -1.0942959105
 C    2.6540742964    3.7861296066   -1.3028711163
 O    2.4295211151    5.0238180305   -1.9518245430
 C    3.6015750783    5.7292572596   -2.2158928406
 C    4.3949810006    5.4012910722   -3.4561198692
 C    3.5649705700    6.6686184566   -3.3752008507
 H   -0.5964663691    1.8157903977    0.4849921524
 H    1.9545804098    1.8991490770    0.5800746761
 H    2.0230643914    1.0368829922   -0.9694381651
 H    0.8239233995    2.9747434625   -2.0689739243
 H    0.6627083256    3.7789992879   -0.5126426102
 H    3.1547399638    3.9468852271   -0.3326338822
 H    3.3191799330    3.1504365752   -1.9085444768
 H    4.1540677020    6.0282029640   -1.3236182289
 H    5.4762033530    5.4773319522   -3.4228208961
 H    4.0117935251    4.6055201854   -4.0851335634
 H    2.6439236627    6.6916016466   -3.9461398152
 H    4.0698688888    7.6235467815   -3.2843813396