21

 C   -0.3177778049    1.5364873366   -0.0995291996
 C    0.0333151325    0.0534737456   -0.0482324815
 O   -1.1688467001   -0.7330357289   -0.0260056236
 C    0.9339666689   -0.4186647992   -1.2070974820
 C    1.4926749889   -1.7565698470   -0.7114016014
 C    1.8742621059   -1.4453700777    0.7453254199
 C    0.8014903572   -0.4206427746    1.2445514049
 C    1.3852726456    0.6424893720    2.0486343429
 C    1.8916926336    1.5028830142    2.7198105121
 H    0.5768597774    2.1620041953   -0.0569540540
 H   -0.8484244896    1.7639157739   -1.0322990725
 H   -0.9658207892    1.8071768483    0.7383155288
 H   -1.6720734186   -0.5160790000   -0.8185377789
 H    0.3772036663   -0.4870953377   -2.1481012939
 H    1.7482309923    0.3015269798   -1.3569940433
 H    0.7039378122   -2.5141079467   -0.7466562172
 H    2.3392137955   -2.1205674211   -1.2995820701
 H    1.9141772912   -2.3312368043    1.3833645582
 H    2.8611889134   -0.9744687913    0.7808442721
 H    0.0492543884   -0.9364613193    1.8493004098
 H    2.3295747931    2.2630343320    3.3177815693