19

 C   -0.1017451810    1.5356144542    0.0585993359
 C    0.1228044219    0.0517282764   -0.0321325662
 O   -0.7551094912   -0.7764080957    0.7760265144
 C    0.6515886881   -0.8080221868    1.0427082510
 C    1.3865520772   -1.9829401185    0.4113525406
 C    1.1676802915   -1.7583238728   -1.0704236012
 C    0.4909665376   -0.6336724257   -1.3248417638
 C    0.0765260971   -0.1107133206   -2.6688457946
 O    0.3650537085   -0.9906827073   -3.7389540023
 H    0.7738009400    2.0864401578   -0.3015391652
 H   -0.9633116994    1.8422151260   -0.5446806806
 H   -0.2966675049    1.8257969196    1.0936882638
 H    0.9468089940   -0.4232948716    2.0160649493
 H    2.4516476285   -1.9716239396    0.6772629518
 H    0.9836459054   -2.9445874469    0.7524014906
 H    1.5058851400   -2.4578044948   -1.8256916101
 H   -0.9948161477    0.1546433931   -2.6441204017
 H    0.6115911933    0.8204761343   -2.8976861881
 H   -0.1180728789   -1.8075684610   -3.5743960535