23

 C   -0.0690088379    1.5006991659    0.1099127180
 C   -0.2754972986    0.0280298225   -0.1987975651
 O    0.9001774535   -0.4715225727   -0.8126111421
 C    0.8408485164   -1.8366965792   -1.1153586383
 C    0.1075747579   -2.2522920449   -2.4125709359
 O    1.3178789124   -2.8072592090   -2.9627680345
 C    2.1068633965   -2.3784082964   -1.8202965558
 C    3.1932456992   -1.3839494929   -2.1952120780
 C    4.2147200033   -1.9981846742   -3.1567826310
 H    0.7842133779    1.6352517153    0.7806308125
 H    0.1256183120    2.0615030205   -0.8085510162
 H   -0.9592057810    1.9177675702    0.5899769368
 H   -0.4850169216   -0.5387930454    0.7239620545
 H   -1.1433003857   -0.1080709446   -0.8645529846
 H    0.5377723226   -2.4139538601   -0.2301725152
 H   -0.6830856984   -3.0059539748   -2.3149526897
 H   -0.2667148590   -1.4032367274   -2.9996083936
 H    2.5504027200   -3.2516873244   -1.3211810035
 H    2.7279796107   -0.5006866823   -2.6433225578
 H    3.6839673684   -1.0453530965   -1.2743652159
 H    3.7175286692   -2.3592959982   -4.0615299578
 H    4.9703569204   -1.2638398083   -3.4511423851
 H    4.7339447616   -2.8473006131   -2.6978672118