16

 C   -0.1138944535    1.5052515765   -0.1333183153
 C    1.4438000051    1.7498458844    0.0484179091
 C    2.0613250136    2.2857962526    1.3167785101
 C    2.1282130018    1.3151735042    2.2677114407
 C    1.4795449505    0.0996524798    1.7600632012
 C    1.3147094247    0.3037138018    0.4113380534
 N    0.0134581557   -0.0462183189   -0.0248626812
 C   -0.5238253461   -0.7342143704    1.0854173718
 C    0.3456692459   -0.7178596574    2.1461330240
 H   -0.6955022167    1.8870176922    0.7020141553
 H   -0.5210416286    1.7982751227   -1.0996555536
 H    1.9337059770    2.0692692580   -0.8717581386
 H    2.5295713975    3.2616825315    1.3846219930
 H    2.5504407212    1.4454536525    3.2573309382
 H   -1.4700630147   -1.2519930181    1.0001753468
 H    0.1750449866   -1.2001896414    3.0993538653