23

 C   -0.0544410903    1.6288223430   -0.1535620629
 C   -0.0409557847    0.0992908519   -0.2179045897
 C   -1.3657676885   -0.5301477841    0.2380259130
 C   -1.3798991580   -2.0431972854    0.1759054588
 C   -1.6420114864   -2.7554530554   -1.1409339705
 C   -2.6428744043   -2.8748148321   -0.0184675963
 C   -2.5592530917   -4.0926505027    0.9005853226
 C   -1.1786309832   -3.9719869538    1.5131248853
 C   -0.5600046059   -2.8513567939    1.1352650531
 H    0.8989737021    2.0520526608   -0.4850743305
 H   -0.8429106880    2.0451635666   -0.7908133680
 H   -0.2377720821    1.9807829979    0.8678923104
 H    0.1763472439   -0.2279941428   -1.2424409893
 H    0.7797317084   -0.2832763044    0.4022482784
 H   -1.5886966831   -0.2033046174    1.2633438184
 H   -2.1787861608   -0.1406957753   -0.3890731463
 H   -1.9340412278   -2.1427037071   -1.9890899057
 H   -1.0277035219   -3.6138713708   -1.3941928614
 H   -3.6011395373   -2.3843321061   -0.1489195292
 H   -3.3418115865   -4.0724579534    1.6715378417
 H   -2.6894861461   -5.0381382425    0.3574755412
 H   -0.7584293842   -4.7331869510    2.1611220611
 H    0.4327886866   -2.5491314922    1.4507364757