13

 O   -0.1251837045   -0.0388714410    0.2156933793
 C    0.0123783863    1.1031355244   -0.1318047102
 C    1.3528688399    1.8219186183   -0.1782592692
 N    1.3532295507    2.8364570622   -1.2217508918
 C    2.5193785383    3.7119388607   -1.1736392874
 C    2.4756816017    4.7017508505   -2.2536439810
 N    2.4539371658    5.4668844109   -3.1182174649
 H   -0.8458435161    1.7413224530   -0.4383077050
 H    1.4646476185    2.3300275368    0.7918724850
 H    2.1583226338    1.0725964598   -0.2417444924
 H    1.2954901419    2.4022225479   -2.1374190515
 H    2.5183459531    4.2453718660   -0.2148861481
 H    3.4868142607    3.1825167005   -1.2368075829