18

 C   -0.2184193029    1.3863588905    0.0496008206
 N   -0.1050078929   -0.0607812162   -0.0641079116
 C    0.6838247292   -0.6331616343   -1.0296923636
 O    1.4245620470    0.0111566265   -1.7464696146
 C    0.6264868490   -2.1649985837   -1.0940922286
 N    0.7916175723   -2.5999708918   -2.4649816097
 C    1.6897858782   -2.8048262808   -0.1463164361
 N    1.7343839196   -2.3096330591    1.1205027608
 O    2.3678946081   -3.7387115882   -0.5228707621
 H    0.7398005388    1.8253035325   -0.2286509206
 H   -0.9877816072    1.7926064880   -0.6178259832
 H   -0.4615190671    1.6588106039    1.0794308349
 H   -0.8685088696   -0.6159921202    0.2910744979
 H   -0.3470351193   -2.5013491400   -0.7023334469
 H    1.3888677475   -1.9154654474   -2.9247332213
 H    1.3202750137   -3.4703595997   -2.4389202233
 H    1.3129789739   -1.4208840264    1.3373683555
 H    2.4533355318   -2.6636137636    1.7316061319