18

 C   -0.0144544120    1.5601075330    0.0674954815
 C    0.1102867778    0.0501284996    0.0499623876
 C    1.3575635315   -0.7340756890   -0.2519211451
 C    0.7088300311   -0.8087463757    1.1332176508
 C    1.9280821487   -0.1087408240    1.7710084091
 C    2.6714423169   -0.8924060042    2.7388948803
 N    3.2883708400   -1.4911971683    3.5124116550
 C    2.6143000772   -0.0906775476    0.3337260516
 O    3.6851059087   -0.9811524281    0.1888098884
 H    0.8672681939    2.0583352660    0.4789449340
 H   -0.1567227588    1.9429257912   -0.9483959548
 H   -0.8780506929    1.8707650284    0.6649535221
 H   -0.7643876068   -0.4357988005   -0.3790565879
 H    1.4104941648   -1.4878968184   -1.0272112308
 H    0.1715200480   -1.6239482657    1.6005149339
 H    1.7215270489    0.8741876785    2.2076666759
 H    2.8743544669    0.9163490008   -0.0227101156
 H    4.4003454262   -0.7177169659    0.7790581138