19

 C   -1.4454719299   -0.0435885877   -0.0830791479
 O   -0.0356314485   -0.0189946811    0.0236714644
 C    0.6640577782   -0.6779994249   -0.9955986090
 C    0.4039859376   -0.1108015570   -2.4058961652
 C    0.6812011647    1.3152875207   -2.5115968050
 C    0.9148463267    2.4915953851   -2.5874160746
 C    2.1575443919   -0.8275243144   -0.6530398942
 O    2.1096122394   -2.2468694302   -0.9193251738
 C    0.6694408968   -2.2323341457   -0.9664965139
 H   -1.8113846718    0.5815196763   -0.9084064263
 H   -1.8296752080   -1.0661081343   -0.2143530200
 H   -1.8369783715    0.3571962281    0.8543757878
 H    1.0345602561   -0.6696163952   -3.1079440846
 H   -0.6325077437   -0.3154957717   -2.7018360943
 H    1.1207049970    3.5309475476   -2.6568554641
 H    2.8760806817   -0.3056318834   -1.2928495763
 H    2.3625815969   -0.6075547245    0.4012485506
 H    0.2194514723   -2.6407626371   -0.0518918344
 H    0.2801874142   -2.7657011406   -1.8415600793