16

 C    0.2710492917    1.6312844890   -0.0339814182
 C    0.1206640969    0.1143916433   -0.0196283457
 C    0.7032853797   -0.7546842086   -1.1718861108
 O    1.7385479104   -0.1138034788   -1.9446412736
 C    2.9128942336   -0.5559223961   -1.4244964670
 N    2.9161289394   -1.3964462360   -0.4722153316
 C    1.5049505556   -1.6409437441   -0.1571835751
 C    0.9777965071   -0.7073298034    0.9746383045
 O    1.1770754331   -0.6274326608    2.1475637354
 H    1.2951221871    1.9255086052   -0.2752348267
 H   -0.3948589685    2.0868059388   -0.7725074017
 H    0.0218558635    2.0351728996    0.9511030776
 H   -0.9315233694   -0.1594904818    0.1382371382
 H   -0.0106874741   -1.2000430133   -1.8634857190
 H    3.7960752276   -0.1440906234   -1.8993642053
 H    1.2866588563   -2.7057120796   -0.0511835808