17

 N   -0.4412128717   -0.8596692142   -0.8014381662
 C   -0.2647224148    0.1794471704   -0.3270832010
 C   -0.0210811568    1.5027506377    0.2477545545
 N    0.2501151309    1.5244898133    1.6994374804
 C    1.3145535214    2.5379464001    1.5113921318
 C    1.3685761569    2.1716563779    0.0127094739
 C    2.5542947666    1.3889461876   -0.5802545597
 O    2.7615758491    2.3957949374   -1.5942030009
 C    1.6473750027    3.1709830767   -1.1167792180
 H   -0.8296579635    2.1739655561   -0.0797961720
 H   -0.5347306801    1.7914667240    2.2828607881
 H    0.9924589889    3.5776588003    1.6685512453
 H    2.2187614480    2.3538734138    2.1002594122
 H    3.4214416949    1.2852749270    0.0834619757
 H    2.3068778330    0.4120281042   -1.0116199051
 H    0.8521508914    3.2644194919   -1.8688310473
 H    1.9473108832    4.1753331258   -0.7889588518