19

 O   -0.2481810890    1.4381114729   -0.2237941223
 C   -0.1332870245    0.0385736511   -0.0837493790
 C    0.4727866132   -0.5347471665    1.2483014214
 C   -0.8617920183   -1.2460135923    1.5120736494
 C   -1.9677924514   -0.2373058397    1.5740937179
 C   -1.4539468307   -0.6536594176    0.2205401777
 C   -0.9857212650   -2.6286331231    2.0381543350
 C   -1.5399277156   -2.9250163419    3.3692727323
 O   -2.3102184067   -3.1471570829    2.1859803511
 H    0.6297090751    1.7976110584   -0.3870935210
 H    0.3620121046   -0.4050470346   -0.9576847286
 H    1.3085280856   -1.2170144187    1.0685473276
 H    0.7699452996    0.2094849482    1.9942655157
 H   -2.9385719332   -0.6509193106    1.8248433982
 H   -1.7797886226    0.7676846547    1.9404936807
 H   -2.1004680644   -1.1233546305   -0.5103619439
 H   -0.2767112049   -3.3474592098    1.6209120879
 H   -1.2303889408   -3.8247494788    3.8991993747
 H   -1.8785307611   -2.1013223883    3.9953786953