17

 O    0.0269032603    1.3349615799   -0.5091834185
 C    0.0269022904    0.1443743326    0.2546816847
 C   -1.3471920036   -0.4828696668    0.2912264336
 N   -1.7496498367   -1.1294211247   -0.9737354881
 C   -1.5436037469   -1.9479953678    0.2113317677
 C   -0.6234558139   -3.1564666786    0.3678299453
 O   -1.7026273144   -3.8408808582    1.0923419339
 C   -2.5663518054   -2.7759361953    0.9188836142
 N   -3.7701242622   -2.6119009771    1.2252851098
 H   -0.2875475306    1.0931139988   -1.3882918389
 H    0.7515016629   -0.5864222872   -0.1371693137
 H    0.3437275610    0.4229075097    1.2649831855
 H   -2.1103607677    0.0727783729    0.8319745285
 H   -2.7501447468   -1.0236566765   -1.1326499240
 H   -0.3748904427   -3.6815309449   -0.5569796407
 H    0.2576986181   -3.0377202145    1.0022354016
 H   -4.1652999618   -3.4278455322    1.6934769790