23

 C   -0.2848885012    1.5063175796   -0.0974974333
 C    0.1754073216    0.0466673170   -0.0959178555
 C    0.4372985987   -0.4978516459    1.3149441093
 C    0.9195776004   -1.9343571763    1.2943310785
 O    2.2155695967   -2.0913634521    0.6618460158
 C    2.6362955019   -3.0329011859    1.6675596081
 C    1.4275476460   -2.6607137455    2.5679432699
 C    1.7805260273   -1.7893646344    3.7648219181
 O    0.5558063233   -3.7120424101    2.9283998800
 H    0.4672528780    2.1593679153    0.3592369013
 H   -0.4626431871    1.8664641134   -1.1156393063
 H   -1.2159291086    1.6307270476    0.4672110060
 H   -0.5799557952   -0.5792069017   -0.5888272733
 H    1.0924722244   -0.0566767641   -0.6868154168
 H    1.1797276447    0.1336551491    1.8174353447
 H   -0.4843634380   -0.4493405848    1.9111914175
 H    0.1739419107   -2.5749556789    0.7987398038
 H    2.5889537957   -4.0713359455    1.3137416178
 H    3.6427248827   -2.8119998256    2.0425980656
 H    2.4402850291   -0.9658949883    3.4792172556
 H    0.8794029603   -1.3734100533    4.2251986231
 H    2.3091743151   -2.3843752554    4.5208200606
 H    0.8458180536   -4.0742953142    3.7721574995