19

 C    0.2125318597    1.5435025679   -0.2034296729
 C    0.0372291645    0.0410133784    0.0206661660
 N    0.5363898684   -0.7214099746   -1.1449677938
 C    1.3969824415   -1.5315720718   -0.6998244545
 O    1.6754793990   -1.5686614567    0.6296987736
 C    0.8047877839   -0.5786422522    1.2439481652
 C    1.6308806492    0.3652862721    2.0919560768
 C    2.8266315988   -0.1119891336    2.8247734174
 N    2.9679335697    0.7988040450    1.6695116513
 H    1.2680075122    1.8202586709   -0.2622594327
 H   -0.2722948919    1.8246897089   -1.1414795323
 H   -0.2473285543    2.1187699738    0.6059827363
 H   -1.0334113845   -0.1704534330    0.1195614982
 H    1.9708332383   -2.2366411943   -1.2915395197
 H    0.1123849550   -1.1248704330    1.8944272324
 H    1.0362100772    1.1569301400    2.5434265108
 H    3.0826088869    0.3234043962    3.7862512833
 H    3.1165768163   -1.1498153743    2.6928345139
 H    3.2512035701    0.2434955703    0.8644853207