20

 C   -0.0504333513    1.5200666776   -0.0561695168
 C    0.0049476152   -0.0092856814   -0.0263768644
 C   -1.3900098994   -0.6417875492   -0.1347845753
 N   -1.3956769525   -2.1066141009   -0.0785192054
 C   -1.3623147132   -2.6797888678    1.1958278893
 N   -1.0414247331   -3.8800744157    1.4431884471
 C   -1.5145329305   -2.8934558122   -1.2474617337
 N   -1.1826110145   -2.2116905631   -2.4131174686
 O   -1.9322308288   -4.0248118098   -1.2597472710
 H    0.9501058928    1.9534449719    0.0265845134
 H   -0.4963813114    1.8854966147   -0.9878131306
 H   -0.6516893575    1.9104198508    0.7722830641
 H    0.6459603252   -0.3758664023   -0.8390518092
 H    0.4779727769   -0.3525902130    0.9015323616
 H   -2.0123179875   -0.2723764852    0.6902514540
 H   -1.8829579569   -0.3310732046   -1.0583193121
 H   -1.6292102813   -1.9345017299    1.9576911155
 H   -1.1119077213   -4.0518865285    2.4449614570
 H   -0.4249628919   -1.5468074168   -2.3833744011
 H   -1.1576526090   -2.8329895944   -3.2080741637