14

 O   -0.4692723551    0.4742790454    0.6295479955
 C    0.1556258363    0.9173675135   -0.2958301837
 C    1.3410547075    1.8702918144   -0.1385272455
 C    1.3008532093    2.9889060981   -1.1138885539
 C    1.0133919544    4.2944146177   -1.0117553666
 N    1.1128689036    4.8257852136   -2.2972422327
 C    1.4592003441    3.8431350920   -3.1968517814
 O    1.6395234543    3.9022015702   -4.3801867299
 O    1.5733881047    2.6861126873   -2.4375520982
 H   -0.0884060664    0.6559103523   -1.3479734844
 H    1.3493110237    2.2470925399    0.8866376994
 H    2.2570684866    1.2821313561   -0.2942344669
 H    0.7521917658    4.8882593597   -0.1531073236
 H    0.9797308812    5.7821311998   -2.5737292480