18

 O   -0.6332686667    1.3897409890   -0.4459514239
 C   -0.0329380854    0.1455726352   -0.0578589838
 C   -1.1754327328   -0.8671331686    0.1900078866
 C   -1.4016273822   -1.5587088151   -1.1759500614
 N   -0.0856737836   -1.4375857553   -1.7872085157
 C    0.5518744626   -1.9710892089   -2.8699707405
 C    1.7951661519   -1.3703886518   -2.9489204251
 C    1.9024424614   -0.4382170312   -1.8771210942
 C    0.7146730527   -0.5050178888   -1.1790199784
 H   -0.0089024361    1.8382994515   -1.0251586578
 H    0.5790377500    0.2978035971    0.8405343855
 H   -0.8533983004   -1.6059567108    0.9294285313
 H   -2.0691072673   -0.3644954206    0.5633668996
 H   -1.7013943917   -2.6059072204   -1.0801884363
 H   -2.1557713445   -1.0367485208   -1.7758074039
 H    0.0929119367   -2.7323101984   -3.4804638681
 H    2.5525829451   -1.5922500615   -3.6857164028
 H    2.7532052602    0.1847419592   -1.6460853111