21

 C    0.0077325193    1.2916895865    0.0946634422
 N   -0.0743334402   -0.1247551902   -0.1668060814
 C    0.5135608976   -0.6982570731   -1.2528504780
 C    0.3748344820   -2.2028372660   -1.2282335192
 O   -0.1525303650   -2.7875670198   -0.3103488258
 N    1.1047948451    0.0147407442   -2.1410917807
 C    1.7183727705   -0.5183159506   -3.3456382651
 C    1.1361073736    0.2322666944   -4.5521074190
 C    3.2382695531   -0.3162024005   -3.2524025430
 H    1.0450765143    1.6211884249    0.2382978952
 H   -0.3985928024    1.8615787348   -0.7475164421
 H   -0.5684275985    1.5215338074    0.9930928924
 H   -0.4184110080   -0.7619264489    0.5325134210
 H    0.7947248490   -2.7534289508   -2.0862146476
 H    1.5307443446   -1.5909128686   -3.5042208148
 H    1.3100433161    1.3074133545   -4.4454606823
 H    1.6008079915   -0.1093083305   -5.4828810805
 H    0.0565256053    0.0709818688   -4.6257818842
 H    3.6563725435   -0.8806483056   -2.4132069481
 H    3.7315313654   -0.6482735040   -4.1717919672
 H    3.4670931632    0.7422552631   -3.0941818719