20

 C    0.0019675857    1.5619417505    0.0222324364
 C    0.0244554058    0.0345279502    0.0003981972
 C    0.8050716860   -0.5700959344   -1.1942063352
 C    1.3123847821   -1.9514408573   -0.7204535214
 C    1.4971744905   -1.7793810968    0.7751675954
 N    2.1917251948   -0.5305601847    1.1351938310
 C    0.7009299833   -0.5960100751    1.2224173730
 C    0.0724951146   -0.5287899193    2.5064582597
 C   -0.4670747669   -0.4401370973    3.5788961498
 H    1.0210992051    1.9546119240    0.0946626927
 H   -0.4544080110    1.9602288661   -0.8897400010
 H   -0.5702745610    1.9366590503    0.8768009431
 H   -1.0072410009   -0.3412770036   -0.0131639763
 H    0.1870015169   -0.6364042425   -2.0933585306
 H    1.6574484099    0.0731955891   -1.4259387224
 H    0.5637277053   -2.7331000698   -0.8963648526
 H    2.2337013101   -2.2553685473   -1.2274187606
 H    1.6107314352   -2.6444599089    1.4205107962
 H    2.5691494743   -0.6177761909    2.0760528353
 H   -0.9411090098   -0.3709192325    4.5263905403