23

 C    0.0205525788    1.5717032876    0.0165169044
 C   -0.0232240791    0.0600314695    0.0166925683
 C    0.4437761695   -0.6667699456   -1.2824491257
 C   -0.8679894695   -1.5174557142   -1.3158112481
 C   -0.7458430845   -3.0068033951   -0.9806889531
 C   -0.4087976949   -3.0737610021    0.5331356021
 C   -0.7800570989   -1.6934867907    1.1327509942
 C    0.4001054308   -0.6862857051    1.3064255880
 C   -1.3407263211   -0.8016071360   -0.0235305272
 H    1.0562323898    1.9351997242    0.0305016164
 H   -0.4613536836    1.9875304172   -0.8761248912
 H   -0.4868219301    1.9874597462    0.8947902596
 H    0.5263072217    0.0126599511   -2.1354162462
 H    1.3816898982   -1.2274750922   -1.2055509817
 H   -1.4667264789   -1.3388914464   -2.2118521217
 H   -1.7075690783   -3.4981082888   -1.1713259687
 H   -0.0014457776   -3.5177519844   -1.6009821919
 H   -0.9585901589   -3.8846327809    1.0200252671
 H    0.6539002024   -3.2842622733    0.6940081699
 H   -1.4114918949   -1.7862910291    2.0180135586
 H    1.4119011171   -1.1074007743    1.3324263937
 H    0.2684397994   -0.0563162906    2.1919861815
 H   -2.3487318275   -0.3924694471    0.0540322516