17

 N   -0.2068601915   -1.2046695558   -0.3088437082
 C   -0.1054376520   -0.0671879899   -0.1263723397
 C   -0.0029092792    1.3706636994    0.0575472864
 C   -0.2168287785    1.9756841568    1.4933584451
 C    1.1462079854    2.7214503456    1.3778779444
 C    2.3964369431    1.9954541159    1.9309197138
 N    2.1415723355    0.5487099683    1.7841389161
 C    2.6210760274    1.3191517880    0.6166006780
 C    1.4124939652    2.0456015843   -0.0047715567
 H   -0.6706808205    1.8477301344   -0.6655800936
 H   -1.0874178610    2.6311274973    1.5499747191
 H   -0.2591617392    1.2310247571    2.2861772957
 H    1.1487284166    3.8055151432    1.4797612744
 H    3.1031261994    2.3635840269    2.6645068815
 H    2.9374828657    0.0412195691    2.1657407216
 H    3.5359716766    1.0344463569    0.1123598451
 H    1.6398266369    2.6293298026   -0.8958810029