20

 C    0.8523003193    0.9962573239   -1.1607571016
 N    0.8706737721   -0.4481783225   -1.0596558155
 C   -0.2583927661   -1.1870486877   -0.9133412797
 O   -1.3910686212   -0.7388204302   -0.8984017355
 C   -0.0141322131   -2.6887327802   -0.7221884346
 O    1.3348522609   -3.0894363128   -0.9310591888
 C    1.5438092576   -3.8247340897   -2.1042627783
 C    1.6563335373   -3.1166867331   -3.4295399311
 C    2.8836605186   -3.6933464306   -2.7493736080
 H    1.3288640130    1.4664326963   -0.2927636310
 H    1.3644501029    1.3377568637   -2.0667017592
 H   -0.1927766718    1.3068820803   -1.2013859375
 H    1.7426445209   -0.9494060129   -0.9946596789
 H   -0.2862565267   -2.9319471043    0.3116491772
 H   -0.7051581276   -3.2230784524   -1.3815508706
 H    1.0735418670   -4.8074026651   -2.0900745944
 H    1.2673807283   -3.6095561674   -4.3135628713
 H    1.5455905730   -2.0387810678   -3.4243908341
 H    3.5757827871   -2.9934539008   -2.2948219561
 H    3.3474994084   -4.5813668365   -3.1630490009