15

 C    0.0142737437    1.5273261926    0.0436702344
 C    0.0304080293    0.0349184997    0.0022293325
 C   -0.1042720940   -0.7745280529   -1.0441119765
 C   -0.0435075223   -2.2142216633   -0.5880680060
 O    0.2524960085   -2.1555928526    0.8004402477
 C    0.1995347529   -0.7995069343    1.2461792029
 C   -1.3231377807   -2.9257638068   -0.8242366673
 N   -2.3192079090   -3.4751303947   -1.0267168133
 H    0.9506758173    1.9203930291    0.4576120044
 H   -0.1273776671    1.9553809236   -0.9511641630
 H   -0.7929525683    1.8910562454    0.6909855313
 H   -0.2630335400   -0.4968820754   -2.0773243978
 H    0.7444700204   -2.7896307128   -1.0955212221
 H    1.1280769459   -0.5696452117    1.7873867757
 H   -0.6360115967   -0.6585557961    1.9498175270