17

 O    0.2343625255    0.2468470132    1.1923023754
 C   -0.2337480331    0.3301432758   -0.1480499065
 C   -1.4921589150   -0.3949873837   -0.2713066060
 C   -2.5395834122   -0.9751943848   -0.3914589194
 C   -3.7815420959   -1.7256461563   -0.5166809773
 C   -3.5659850289   -3.2232309128   -0.2547425395
 O   -4.7908777191   -3.9327220024   -0.4565898169
 C   -5.4325312386   -4.4141363743    0.6265633431
 O   -6.4758621794   -4.9885036898    0.5567932022
 H    1.0600522956    0.7396813673    1.2389770859
 H   -0.3943392072    1.3774888496   -0.4517734555
 H    0.4978809142   -0.0961039075   -0.8538086522
 H   -4.5330387627   -1.3434266598    0.1855660804
 H   -4.2045955542   -1.6031817426   -1.5208093869
 H   -2.8377102295   -3.6341343776   -0.9578178586
 H   -3.1900416412   -3.3843891572    0.7624561880
 H   -4.8820025383   -4.2232028672    1.5691877239