21

 C   -0.2788897407    1.4619516695    0.0053599011
 C    0.0011269362   -0.0444675500    0.0282177952
 C    0.8064464721   -0.5011114698    1.2422019601
 O    2.0932303592    0.1037498073    1.2854163975
 C    0.0973289891   -0.4592001374    2.6424509257
 C    0.6516603160   -1.8628207956    2.8930301236
 C    1.3204232179   -2.3932755081    4.0791870099
 O    0.0153857958   -2.8472772251    3.6848746619
 C    1.0189094390   -2.0327492969    1.4185552374
 H    0.6491728718    2.0413230778   -0.0545255462
 H   -0.8829574807    1.7356040434   -0.8643035979
 H   -0.8233312455    1.7831698815    0.9005935976
 H   -0.9471375618   -0.5948041473    0.0105188605
 H    0.5527869663   -0.3324565228   -0.8751876064
 H    1.9736683212    1.0476396625    1.4336884125
 H    0.4100662403    0.3379994073    3.3217812420
 H   -0.9944329383   -0.4654995816    2.5665096479
 H    2.1215035933   -3.1232377135    3.9687948894
 H    1.3514984213   -1.8031377773    4.9945564457
 H    0.2738702707   -2.6250389392    0.8797495771
 H    2.0219124269   -2.3903186645    1.1791308355