25

 C   -0.8353124015    1.7776966206    0.5250845014
 C   -0.4191954496    0.3419534316    0.2022014135
 O    0.5549866846   -0.1201844720    1.1339286538
 C   -1.6540270569   -0.5865548919    0.0685494449
 O   -2.4896694661   -0.0436869998   -0.9575846894
 C   -1.3870874325   -2.1101538347   -0.1528614177
 C   -0.8472711632   -2.7708272430    1.1313537639
 C   -2.7306955737   -2.7833719543   -0.5020333862
 C   -0.3874322365   -2.3383918232   -1.3024974192
 H    0.0441473118    2.4265384181    0.5536858106
 H   -1.5437863915    2.1560188574   -0.2136276063
 H   -1.3249716970    1.8207017447    1.5070878945
 H    0.1058926613    0.3339934624   -0.7621763559
 H    0.1894164460   -0.0108610106    2.0188585977
 H   -2.2571477759   -0.4900522678    0.9830866578
 H   -2.0127414603   -0.1156746126   -1.7920849608
 H   -1.5210540814   -2.5894572338    1.9775748427
 H   -0.7855990838   -3.8561491806    0.9938340326
 H    0.1429038340   -2.3986036998    1.3926336141
 H   -3.1610952851   -2.3819103869   -1.4213011930
 H   -2.5888064600   -3.8622467819   -0.6257838405
 H   -3.4647808136   -2.6320607300    0.2973124599
 H    0.6066077709   -1.9552412577   -1.0556407548
 H   -0.2885096983   -3.4085745292   -1.5120166468
 H   -0.7162866320   -1.8648817150   -2.2365523666