21

 C   -0.0028384533    1.5444467822    0.1247235338
 C   -0.0167113573    0.0120857695    0.0226670874
 O    0.7540429240   -0.5702414096    1.0714050177
 C   -1.4142337067   -0.5533166989    0.0022657856
 C   -1.9816454566   -1.2948341787   -0.9495215397
 C   -3.4061694334   -1.6772568485   -0.6305196906
 C   -3.5282191808   -1.3116192257    0.8693897118
 C   -2.3942911600   -0.2954930967    1.1309358321
 O   -1.7377828030   -0.4768520475    2.3952907464
 H    1.0316801771    1.8981340946    0.1354893956
 H   -0.5249144204    2.0068775169   -0.7200353146
 H   -0.4812444650    1.8754607928    1.0523092619
 H    0.4861663127   -0.2808610844   -0.9068102935
 H    0.1968308183   -0.5460882444    1.8612708531
 H   -1.4952239872   -1.5763592064   -1.8780103676
 H   -4.1131389288   -1.1014902886   -1.2439912515
 H   -3.6198087444   -2.7334142237   -0.8293544381
 H   -4.5175391280   -0.9359281769    1.1448907888
 H   -3.3160181431   -2.1906705400    1.4858627112
 H   -2.7650436133    0.7407845658    1.0778496988
 H   -2.2846370210   -0.0927045717    3.0868747712