17

 C   -0.2607072091   -1.2611915355    0.0028328073
 C   -0.1542860883   -0.0636775285    0.0266542840
 C   -0.0180797650    1.3777377734    0.0648631358
 C   -0.2852441767    2.1001162393    1.3992074018
 C    0.7327366602    1.7027824701    2.4279837032
 C    1.1084746185    2.7182737282    1.3886935052
 C    1.4478213779    2.0278715700    0.0538360332
 C    2.6071159192    1.1610245863    0.0058851134
 C    3.5658270798    0.4359087213   -0.0259405864
 H   -0.3558789969   -2.3183935790   -0.0201707220
 H   -0.5965402278    1.8261106349   -0.7475549296
 H   -1.2343939731    2.5504154603    1.6604253068
 H    0.5623134674    2.1039679371    3.4214969153
 H    1.1729624911    0.7099281557    2.4112095547
 H    1.4150231150    3.7255185685    1.6404417135
 H    1.4935210106    2.7530725004   -0.7632757970
 H    4.4129875571   -0.2033707924   -0.0560054492