23

 C   -0.1478941290    1.4990948400    0.2200066488
 C   -0.0524954988   -0.0070208337    0.0426451801
 O   -1.3586396243   -0.5430656843    0.0317728282
 C   -1.3890038643   -1.9437099110   -0.1236512090
 C   -2.8397040796   -2.4055625805   -0.0997096109
 C   -2.9790743648   -3.9228676878   -0.2743133409
 C   -4.4193224798   -4.3721525631   -0.2364714594
 C   -4.8338109094   -5.6488017083    0.3563962198
 O   -5.0402726461   -4.4179761918    1.0521319944
 H    0.8504521402    1.9465574937    0.2340386396
 H   -0.7180666447    1.9461929234   -0.5992869306
 H   -0.6517609054    1.7425968922    1.1596581875
 H    0.4690799568   -0.2535812470   -0.8984968483
 H    0.5368749499   -0.4561479798    0.8607031844
 H   -0.9078069759   -2.2362380126   -1.0744309115
 H   -0.8180196309   -2.4336943029    0.6851165265
 H   -3.2944917032   -2.1030954968    0.8496228006
 H   -3.3861921460   -1.8825081525   -0.8939372592
 H   -2.5377908512   -4.2340193427   -1.2313268093
 H   -2.4278572621   -4.4450701530    0.5171016848
 H   -5.0593747250   -3.9466331721   -1.0128119640
 H   -5.7367622788   -6.1462494907    0.0045104775
 H   -4.0808045177   -6.3080739187    0.7872273910