14

 N    0.0333561253    1.4039094734    0.1643444949
 C    0.0329012862    0.0146819036    0.0469486949
 C   -1.0367214585   -0.8400803609    0.0043532460
 O   -0.6368572089   -2.1962953286   -0.0314421464
 C    0.6932830651   -2.1117001920   -0.0151305428
 C    1.1934990417   -0.8423495998    0.0311338435
 N    2.5744150267   -0.8679429917    0.0294313987
 C    2.8674642098   -2.1475914964   -0.0159943626
 N    1.7473557187   -2.9761857109   -0.0472727148
 H    0.8604438261    1.8263647573   -0.2349513004
 H   -0.7995537905    1.8490792707   -0.1957102827
 H   -2.1017043917   -0.6896660014    0.0085986399
 H    3.8620299033   -2.5670799722   -0.0284446088
 H    1.7387605469   -3.9809327812   -0.0777410893