18

 C    0.3839223202    1.2240596026    0.2626044051
 O   -0.1834853799   -0.0042904956   -0.1771544589
 C    0.4923969794   -0.5514728146   -1.2730673422
 C    1.4268536411   -1.6956377752   -0.9528000436
 O    1.5552255382   -2.0504546669    0.3873894870
 C    0.1020301396   -1.9552884257   -1.6625580977
 C   -1.0225226080   -2.6673935122   -0.9235929740
 C   -1.2576558593   -4.0086868864   -1.4558787641
 N   -1.4457385381   -5.0626805875   -1.8904071814
 H    1.4337941171    1.1032926145    0.5610533309
 H    0.3280497072    1.9861735692   -0.5265097645
 H   -0.2028029414    1.5552559809    1.1216634069
 H    0.7324611915    0.1642424953   -2.0582837001
 H    2.3509901209   -1.8270491799   -1.5061938303
 H    1.0220234471   -1.4214607364    0.8925092271
 H    0.1570937362   -2.1688420332   -2.7249640055
 H   -0.7694647730   -2.7578872375    0.1371734794
 H   -1.9570753888   -2.0991556612   -0.9842648040