22

 C   -0.8859946981    0.9774642455   -0.1131145471
 C    0.1663420850   -0.1160180589    0.0026041268
 C    1.5273906997    0.0797230007   -0.7200827797
 C    2.2361380253   -0.5765893018    0.5010928435
 C    2.5506349364   -2.0564138251    0.3024703846
 O    3.3621428721    0.1070147949    1.0240671208
 C    0.9462812800   -0.3270617034    1.3472091548
 C    1.0196183562    0.8794897231    2.2788572319
 H   -0.4902649633    1.9541271471    0.1822762064
 H   -1.2394818151    1.0638823474   -1.1468407362
 H   -1.7577139214    0.7659828778    0.5164692270
 H   -0.2791597188   -1.0684293348   -0.3050845489
 H    1.6608319686   -0.3868917485   -1.7009685974
 H    1.7986276310    1.1374222740   -0.7886459123
 H    3.3514484427   -2.1887734706   -0.4368087152
 H    2.8768646684   -2.5039855930    1.2465814670
 H    1.6770300784   -2.6081543205   -0.0588984731
 H    4.1132461319   -0.0720631105    0.4484100111
 H    0.6217621139   -1.2019767016    1.9214367011
 H    1.3630814884    1.7801746053    1.7630818523
 H    0.0380081838    1.0893543195    2.7165487908
 H    1.7231118949    0.6892076133    3.0938197418