17

 C   -0.0258349585    1.5480916417   -0.0287515497
 C    0.0846878271    0.0450533814    0.1295854680
 C    1.3495301740   -0.7775167255   -0.1778808130
 C    2.5411108917   -0.0365430682    0.3360880830
 O    3.5780770426    0.3478393200   -0.1312804806
 C    1.9866816217   -0.0366047327    1.7888284212
 O    1.8357499358    1.1626308780    2.5099354458
 C    0.7194377638   -0.7025024231    1.2499773068
 O    0.0979547772   -1.7471547048    1.9012597133
 H    0.8215447776    2.0677932325    0.4192076684
 H   -0.0829870378    1.8166889076   -1.0886657827
 H   -0.9345435773    1.9163537252    0.4597591996
 H   -0.7839084636   -0.5009755556   -0.2385344962
 H    1.3286351012   -1.5730819477   -0.9121676850
 H    2.5547434897   -0.7909122614    2.3578611642
 H    2.7107539378    1.5554968162    2.6072500407
 H   -0.6839825128   -1.4076569636    2.3496617160