20

 C   -0.2346406187    1.4806303750   -0.0956585734
 C    0.0447054227   -0.0145535378   -0.0223246872
 C    1.3401783408   -0.5099029916   -0.7010640193
 O    1.8991926869   -0.9531467722    0.5542033039
 C    0.6720876143   -0.6085019095    1.2756616732
 C    0.9704067778    0.3100200639    2.4479402483
 C    0.0318624092   -1.9247578870    1.7313796617
 O    0.9470203039   -2.6844150745    2.4940699480
 H    0.6450447419    2.0734502319    0.1726960119
 H   -0.5253570283    1.7628771105   -1.1133514974
 H   -1.0522797996    1.7697418698    0.5727162739
 H   -0.8455222746   -0.5684919039   -0.3362959340
 H    1.2223406097   -1.3344928589   -1.4148308637
 H    1.9574468710    0.2708201338   -1.1631598810
 H    1.5804030757    1.1619042985    2.1403429233
 H    0.0418586408    0.6845248534    2.8922596304
 H    1.5119888897   -0.2505084357    3.2145137346
 H   -0.8417565650   -1.7336867419    2.3651206324
 H   -0.3103245550   -2.4853990697    0.8461613637
 H    1.7524189868   -2.7164943939    1.9604993107