23

 C   -0.1468640055    1.5477153438    0.0084275112
 C    0.0600791609    0.0317414656   -0.0471564243
 C    0.7014084412   -0.5369029474    1.2233886690
 C    0.9037002514   -2.0556960031    1.1746409961
 C    1.5373464703   -2.6266355650    2.4378307525
 C    0.7038988783   -2.6331241429    3.7798468148
 C    0.8589844285   -4.1581588108    3.8123566737
 O    0.2835638604   -4.6661873385    2.6018547694
 C    1.6238910892   -4.1605146480    2.5562269930
 H    0.8055480849    2.0729825125    0.1423592729
 H   -0.6071273401    1.9235571103   -0.9107987174
 H   -0.7971920025    1.8277569241    0.8447915299
 H   -0.9043351925   -0.4648615926   -0.2170219067
 H    0.6863449075   -0.2218920756   -0.9128242072
 H    1.6692873151   -0.0435879018    1.3927495237
 H    0.0766655566   -0.2783891269    2.0895826625
 H   -0.0584102977   -2.5558388141    1.0119039335
 H    1.5355742079   -2.3094112030    0.3116202634
 H    2.5201578615   -2.1756003628    2.6156873499
 H    1.2155381599   -2.1207862971    4.5977991315
 H   -0.3293016145   -2.2812595985    3.7177068200
 H    0.8910357313   -4.8296836104    4.6624985731
 H    2.3907060579   -4.8339249579    2.1890410752