20

 C   -0.5082383096    0.7557689741    0.4803867578
 C    0.2728725100   -0.3535031814   -0.2189565492
 C    1.5525322930    0.1274088423   -0.9705899815
 C    2.3965113538   -0.3416465181    0.2277154492
 C    1.1936326953   -1.1927652378    0.7198542401
 O    3.5966832327   -0.9946077024   -0.1531619297
 C    4.4781275020   -1.2760080853    0.8987965407
 C    4.0300888840   -2.3756969862    1.7801592095
 N    3.6859356598   -3.2354490328    2.4710409169
 H    0.1429203694    1.3797218557    1.1035037638
 H   -0.9963108543    1.4127930480   -0.2477617522
 H   -1.2852549322    0.3392026845    1.1303362115
 H   -0.4096278117   -0.9495173734   -0.8300053791
 H    1.7729091584   -0.4914760134   -1.8441446706
 H    1.6167021738    1.1813462266   -1.2528345940
 H    2.6349948740    0.4764987773    0.9222869846
 H    0.9683633371   -1.1881103774    1.7887924753
 H    1.2938600512   -2.2267540268    0.3817188699
 H    5.4324926022   -1.5673561317    0.4489026997
 H    4.6603392911   -0.3904144618    1.5280667476