21

 O   -0.1519824563    1.4464331203   -0.1203762422
 C   -0.0309732252    0.0732938444    0.0122116392
 C   -0.2582392904   -0.8703995686   -1.1336827080
 C   -1.1538478253   -0.9492992673    0.0855435130
 C   -0.4244562414   -1.6957260168    1.2168234004
 C    0.7181810522   -0.6176909036    1.1569083307
 C   -1.1660218420   -1.7551418686    2.5264308699
 C   -2.0388176380   -2.9400468611    2.8578979043
 C   -0.7427028764   -2.7243241021    3.6014200029
 H    0.5523600477    1.7576864566   -0.6993691665
 H   -0.7223451502   -0.4100780593   -2.0005832876
 H    0.4414943477   -1.6729621824   -1.3619585162
 H   -2.2258471422   -0.8091402994    0.0141185050
 H   -0.0982959360   -2.7052622408    0.9352092528
 H    1.7359340708   -0.9659491887    0.9486805122
 H    0.7283804323   -0.0035421432    2.0609209978
 H   -1.5281009493   -0.7895750378    2.8731535136
 H   -2.9708989789   -2.7661901276    3.3842019062
 H   -2.0802528400   -3.7539178218    2.1410504693
 H    0.0830047139   -3.3935443201    3.3817070958
 H   -0.7882579533   -2.4030002920    4.6360724974