19

 C   -0.0946288491    1.5584160566   -0.0610255992
 C    0.0543865003    0.0626045162    0.1156431393
 N    1.2479604223   -0.7274548090   -0.2692686598
 C    2.4476517507    0.0957203973    0.1124166913
 C    2.0556779730    0.0552830014    1.6138727203
 O    1.8693605808    1.2472940702    2.3519693356
 C    0.7737645751   -0.6550978910    1.1953660913
 C    0.1974587073   -1.8264647706    1.9366915098
 H    0.6766714557    2.1274965476    0.4555554013
 H   -0.0868506575    1.8198316820   -1.1256167345
 H   -1.0603008566    1.8725528179    0.3486316374
 H   -0.8316682153   -0.4819292354   -0.2099832436
 H    3.3631849657   -0.4511828645   -0.1236467158
 H    2.4907346696    1.0844219215   -0.3527307890
 H    2.7077236286   -0.6366218521    2.1634596697
 H    2.7297070419    1.5504966647    2.6591391832
 H   -0.2953535651   -1.4915866578    2.8571500716
 H   -0.5448781489   -2.3492642515    1.3270210040
 H    0.9753854614   -2.5464955234    2.2139134871