18

 N   -0.0137469102    1.3177948471   -0.0421758063
 C   -0.0142488700    0.0568977147   -0.0740666031
 C   -1.2306717578   -0.8318711598   -0.2013704170
 C   -0.6609953183   -2.2076327622   -0.5541533297
 O   -0.6282430914   -2.4518383458   -1.9591854848
 C    0.7132814379   -2.3773069542   -2.4429937336
 C    1.5945297043   -2.7413591151   -1.2441473202
 C    0.8115495109   -2.1237379399   -0.0899276282
 O    1.1115787577   -0.7204162427    0.0174765392
 H    0.9373554627    1.6740761515    0.0671768247
 H   -1.7561495454   -0.8591512538    0.7593487177
 H   -1.9258823021   -0.4623363620   -0.9551720331
 H   -1.2144442892   -3.0252646682   -0.0829824041
 H    0.8067061363   -3.0694407012   -3.2839866715
 H    0.9406356497   -1.3634248453   -2.8025955595
 H    1.6403195344   -3.8273266245   -1.1135022532
 H    2.6116201223   -2.3500130840   -1.3070008107
 H    1.0025099581   -2.5928441547    0.8790489034