15

 C   -0.1360983607    1.3222090209   -0.1024561059
 C    0.0967245278   -0.1568564150   -0.0218374243
 N    1.2328212764   -0.6922808500   -0.0694167528
 O   -1.1499234842   -0.7808074083    0.1096586996
 C   -1.3218458374   -2.1141441770    0.1783065383
 N   -0.3708130520   -3.0352142126    0.3205815285
 N   -1.0714499501   -4.1709659871    0.3471325248
 N   -2.3836450703   -4.0604641965    0.2397297614
 C   -2.5787858991   -2.7488769011    0.1283595028
 H    0.8216967685    1.8302713815   -0.2025847170
 H   -0.7745616630    1.5624502646   -0.9582713541
 H   -0.6507309942    1.6761887887    0.7962912053
 H    1.1961084751   -1.7068715338    0.0108787347
 H   -0.6167564596   -5.0635640164    0.4454016089
 H   -3.5614953070   -2.3215218279    0.0225117399