19

 O   -0.0670006213   -0.0472702015   -0.0210052884
 C    0.0019593023    1.1541284277   -0.0766882680
 C    1.3039198456    1.9260129153   -0.1434252127
 C    1.3161117784    2.9769168240   -1.2453326560
 O    0.2616802682    3.8789050611   -1.0027522168
 C    0.2088293564    4.9058571556   -1.9884759382
 C    1.5452698229    5.6473666712   -2.0527010584
 C    2.6655648663    4.6192133197   -2.2240244825
 O    2.5697076250    3.6107566564   -1.2229739327
 H   -0.9099163834    1.7874275699   -0.0710696987
 H    1.4370194086    2.4585287602    0.8073790990
 H    2.1346425644    1.2306601702   -0.2767555740
 H    1.1672442503    2.5156417969   -2.2427090067
 H   -0.0292203598    4.4652068192   -2.9712117929
 H   -0.6147059355    5.5651888262   -1.7040774227
 H    1.5489095571    6.3633531435   -2.8818650051
 H    1.6991159812    6.2004135071   -1.1204504826
 H    2.6069354334    4.1570544738   -3.2240352150
 H    3.6556717995    5.0683875035   -2.1159887277