21

 C   -0.1588494667    1.5747701806    0.0410696585
 C    0.1866492922    0.0893580824   -0.1166686113
 C    0.8118709834   -0.5079815653    1.1370816914
 C   -0.0760550264   -0.8641405350    2.3541788791
 C   -0.5726743885   -2.2092369688    1.7129190099
 C   -0.1938452910   -2.9979465471    2.9821881464
 O    0.0942958127   -4.3706305507    2.9052511986
 C    0.9332023947   -1.9555607559    2.8522409140
 C    0.9353401508   -2.0404459706    1.2810190466
 H    0.7330153367    2.1643124122    0.2814338025
 H   -0.5908963428    1.9843300269   -0.8771841160
 H   -0.8834830133    1.7299668154    0.8477294825
 H   -0.7167599592   -0.4721400575   -0.3852254012
 H    0.8845296932   -0.0355141313   -0.9555270071
 H    1.7275313994    0.0377585034    1.4046964265
 H   -0.6683346966   -0.2117425259    2.9980864401
 H   -1.4302568017   -2.3411030756    1.0525189130
 H   -0.8629736573   -2.8781937095    3.8402021178
 H    0.6828990164   -4.5147610990    2.1562272616
 H    1.8044266271   -1.7800522857    3.4857771503
 H    1.5191493967   -2.7284215830    0.6645170468