16

 N    0.1262863340    1.4320967732    0.1007779232
 C    0.0422647923    0.0490616573    0.0115369213
 C   -1.0488924214   -0.7391596078   -0.1874739650
 O   -0.5882753847   -2.0523200624   -0.2910851453
 C    0.7423151185   -1.9463904495   -0.1297659450
 N    1.1817464333   -0.7426017443    0.0505851529
 N   -2.3954128147   -0.4302752670   -0.2897759347
 C   -3.2293042728   -1.1123418895   -1.2907996232
 C   -3.4020836639   -1.3995685400    0.1594495641
 H    0.8820781438    1.7311725016    0.7025055307
 H   -0.7519632003    1.8581106911    0.3650337756
 H    1.3138336132   -2.8611525276   -0.1607346334
 H   -3.9371961379   -0.4746102177   -1.8117812181
 H   -2.7539350377   -1.8770864770   -1.8981284188
 H   -3.0455125152   -2.3580750705    0.5245093624
 H   -4.2389985867   -0.9738662499    0.7054288133