14

 N    0.1282053972    1.3784071923    0.1360552097
 C   -0.0173677136   -0.0052006604    0.0272381050
 C   -1.1637300781   -0.7834642262    0.0029744981
 C   -0.6870208654   -2.1275991873   -0.0028345523
 C    0.6993486503   -2.1101396266    0.0072031492
 N    1.1220127589   -0.7936300931    0.0024203535
 N    1.2174121357   -3.3514538422   -0.0198180967
 N    0.2065688544   -4.1871083512   -0.0398804397
 N   -0.9539931036   -3.4551292255   -0.0353555550
 H    0.7229684550    1.7779290502   -0.5817818595
 H   -0.7650054716    1.8522950176    0.1328542673
 H   -2.1747762224   -0.4125153343   -0.0370314207
 H    2.0382876417   -0.4622117928    0.2503542024
 H   -1.8289393884   -3.9498923406   -0.0589346412