20

 O   -0.3689454646   -0.0418957417    0.1450039201
 C   -0.2471305138    1.1608573638    0.0800073068
 C   -1.2414178262    2.2307574147    0.5430369148
 C   -0.7031613104    3.5329639484   -0.0690299053
 C    0.8111377168    3.2745537204   -0.2618526759
 C    1.5028511434    4.1562247884   -1.3371310877
 C    2.0179067798    5.0820758045   -0.2014516277
 C    1.7385965813    3.9381680013    0.8089214737
 N    0.8413206259    1.8373051336   -0.4127466809
 H   -2.2565672501    1.9736772240    0.2361504193
 H   -1.2265915018    2.2474752103    1.6388211947
 H   -1.1612448789    3.6984046575   -1.0497576280
 H   -0.8948762866    4.4187397314    0.5406483916
 H    2.3238083578    3.6189169856   -1.8225644439
 H    0.8636102868    4.5876945475   -2.1121438614
 H    3.0458072140    5.4402210113   -0.2776576905
 H    1.3630017801    5.9427534083   -0.0441551984
 H    1.2942555821    4.1923447722    1.7751658021
 H    2.6294664047    3.3275898921    0.9850810961
 H    1.6832369898    1.3308151664   -0.6412106994