18

 C    0.1023983719    1.3377549959    0.2619786827
 O   -0.0057516370   -0.0035585052   -0.1923678615
 C   -1.2674817018   -0.5082075125   -0.1079329731
 C   -2.1671275842   -0.8881183383    1.0454905037
 C   -3.3533054166   -0.1346086325    0.4508310309
 C   -2.6309818342   -0.2508784562   -0.9198583004
 C   -2.6495541943   -1.7755534185   -1.2244237042
 C   -1.7157062402   -1.9309763847   -0.0270348861
 H    1.1518599339    1.6231390856    0.1638173538
 H   -0.5122709373    2.0171068300   -0.3445084007
 H   -0.2043460940    1.4263602479    1.3126010454
 H   -1.9052256449   -1.0394038552    2.0846889954
 H   -4.3497034472   -0.5864730591    0.5188599038
 H   -3.3949766858    0.8978265527    0.8096719389
 H   -2.8025140433    0.4784861212   -1.7084409923
 H   -3.6261530065   -2.2730423841   -1.2034310715
 H   -2.1355988207   -2.0118315408   -2.1601071126
 H   -1.1262841478   -2.7879379262    0.2719779376