21

 C    0.0568613112    1.0704225767    0.7759200248
 C    0.0031838085   -0.3431641630    0.1936789154
 C    0.5686275162   -0.4241413730   -1.2248188688
 O    1.9570328958   -0.1266859204   -1.1855575505
 C    2.4059910855    0.8368444375   -2.1173588157
 C    0.3823764749   -1.8461455853   -1.8194184453
 O   -0.9819953513   -2.2590939544   -1.7820260709
 C    0.9271454331   -1.9554816166   -3.1747489008
 C    1.2974937635   -2.0420932963   -4.3158580858
 H    1.0841346082    1.4454964339    0.7879094838
 H   -0.5519283884    1.7672332059    0.1881556451
 H   -0.3210291210    1.0864811711    1.8025464350
 H    0.5837262709   -1.0278084952    0.8252254241
 H   -1.0237042220   -0.7195534467    0.1767534142
 H    0.0424234457    0.2932331924   -1.8744416201
 H    2.2402509389    0.5168164176   -3.1534513563
 H    1.9153488999    1.8093556075   -1.9625401453
 H    3.4800729057    0.9581055429   -1.9535076146
 H    0.9187718707   -2.5396837193   -1.1607314733
 H   -1.4249593082   -1.8638703945   -2.5409774097
 H    1.6440271123   -2.1330559507   -5.3158370555