15

 N    0.1630614492    1.4724877221   -0.0420945409
 C    0.0582054826    0.0308407757    0.0366769260
 C   -1.3891328172   -0.4943367002   -0.0370812190
 O   -2.3165429798    0.2725890342   -0.1314781446
 N   -1.6162207245   -1.9030312037    0.0016700502
 C   -2.9806311707   -2.3404178236   -0.1106550659
 O   -3.3359364722   -3.4798408005   -0.0664255175
 C   -0.5485751028   -2.8259730346    0.1410289320
 O   -0.6584319026   -4.0166395755    0.1406656471
 H   -0.2645324742    1.7953704642   -0.9053715614
 H   -0.3926661881    1.8918370096    0.6979450912
 H    0.6448434560   -0.4189212266   -0.7731690231
 H    0.5154529710   -0.3118318467    0.9727943525
 H   -3.6423986505   -1.4747241120   -0.2397315602
 H    0.4218747536   -2.3195005824    0.2549404335