16

 C    0.0404285749    1.3239641793   -0.2867547290
 C    1.4873819726    1.5354809968    0.2167807240
 C    1.2988163499    0.1505218193    0.8133285713
 O   -0.0292890622    0.0064981437    0.3211831133
 C    2.1974769184   -1.0400601315    0.8616441905
 O    3.5961826020   -0.7664570155    0.8673035536
 C    3.8100159201   -0.0460560207    2.0025000060
 N    2.8360025557    0.1870302211    2.7860661309
 C    1.6725228487   -0.4072003128    2.1605860314
 H   -0.7134476127    1.9975185235    0.1333844472
 H   -0.0821350759    1.2693937359   -1.3732682368
 H    2.2498044844    1.6072450989   -0.5606856546
 H    1.6263058600    2.3366026886    0.9438762005
 H    1.9307410511   -1.9980912814    0.4334847350
 H    4.8360469868    0.2662136545    2.1516511186
 H    0.9098355963   -0.8333780397    2.8021372282