15

 N    0.6161529537    0.4426398040   -0.8151858811
 C   -0.0088268035    0.0671502257    0.3277472494
 O    0.2678490165    0.5162456395    1.4244878243
 C   -1.1229636162   -0.9810713880    0.2181216127
 C   -2.2270526590   -0.8941023824   -0.8875452858
 N   -1.1744156090   -1.3992500059   -1.8761527789
 C   -0.9503986731   -2.2764474031   -0.6428929612
 C   -2.4947440348   -2.3917811706   -0.5943621189
 O   -3.3717434843   -3.1920344130   -0.5396089309
 H    1.3481016522    1.1303771595   -0.7470539654
 H    0.3425205254    0.0340205796   -1.6961334809
 H   -1.4924306157   -1.1432393425    1.2298974242
 H   -2.8911571842   -0.0650922600   -1.1220689469
 H   -1.6021802356   -1.9293626918   -2.6392224268
 H   -0.1598994525   -3.0224016712   -0.5986640438