18

 O    0.0917587786    0.0887268672   -0.5541031766
 C    0.0771984575    1.2460901802   -0.1937817254
 N    1.0921363189    1.8745645595    0.4777169912
 C    2.5509487990    1.6316188975    0.2621791185
 C    2.5688680917    2.6622875459   -0.9232660982
 C    3.8972639677    3.4093620560   -0.9212399473
 C    4.1082582928    3.5797640673    0.6143501724
 C    2.8532870305    2.8924671025    1.1376504083
 C    1.6471096387    3.2398811410    0.2056659261
 H   -0.8160830478    1.8988262803   -0.2878927611
 H    2.9857969155    0.6353931850    0.3126774003
 H    2.1125328910    2.3677261822   -1.8685764391
 H    4.6945419905    2.8292426309   -1.3951009863
 H    3.8322838314    4.3668372338   -1.4467904488
 H    5.0200346188    3.0915626235    0.9707424139
 H    4.1587816402    4.6292739336    0.9191807685
 H    2.6717358441    2.8298273244    2.2099250948
 H    1.0224445610    4.1339201391    0.1988661585