19

 C   -0.0009705116    1.5324007917   -0.0173138535
 C   -0.1085356163    0.0465833564    0.1278120139
 O    1.0409306733   -0.7472981705   -0.2224979864
 C    0.4885390980   -0.9149414502    1.0969905475
 C    1.4057674815   -0.7327068648    2.2656665464
 C   -0.7225008130   -1.8223156943    0.9998330751
 C   -1.9735152699   -1.0556909786    1.3286034205
 O   -2.1049517058   -0.1084495657    2.3491524787
 C   -1.3492443698   -0.8130012012   -0.0175854742
 H    0.9523652665    1.8947809240    0.3764560470
 H   -0.0586300886    1.8207853270   -1.0728927065
 H   -0.8213042151    2.0336045410    0.5070813239
 H    2.0347463602    0.1517043015    2.1336676794
 H    0.8349600602   -0.6334577156    3.1949059578
 H    2.0663291951   -1.6001540354    2.3749005009
 H   -0.6927375676   -2.9034576810    0.9246767250
 H   -2.8816798755   -1.6512937733    1.2971703195
 H   -1.3014050522    0.4196444100    2.3802251232
 H   -1.8488753694   -1.0415659010   -0.9522118881