14

 O    0.2944824825    1.3303482097    0.2196834501
 C    0.1250977694    0.0139022778   -0.0046136900
 C    0.0180778120   -0.7893026638   -1.1170315377
 N   -0.1611853446   -2.0715456290   -0.6891245501
 N   -0.1686948776   -2.1065021473    0.6065252674
 N    0.0038025636   -0.8260145937    1.0465240241
 C    0.0588018858   -0.5263231209    2.4693271526
 C    1.4057181364   -0.2355011320    2.9528066628
 C    2.5067777331    0.0081852339    3.3635781505
 H    0.3647894101    1.7880220956   -0.6242358207
 H    0.0537793756   -0.5283598614   -2.1620145939
 H   -0.6070968550    0.3183956615    2.6763489799
 H   -0.3505031048   -1.4085039698    2.9695162771
 H    3.4834045734    0.2180395895    3.7247447678