19

 C   -0.0149203477    1.4037358785    0.0559596225
 N    0.0180863148   -0.0482196044   -0.0174396632
 C   -1.0904546160   -0.6602523649   -0.0214096192
 C   -1.3116638649   -2.1676074697   -0.0912825026
 N   -2.7655469880   -2.3756753962   -0.0678690034
 C   -3.2974616538   -1.2152857806    0.0026788984
 C   -4.7826550150   -0.9487185582    0.0504522947
 N   -5.6349023592   -2.1258861770    0.0116983932
 N   -2.3929592360   -0.1537909465    0.0351822597
 H    1.0058252985    1.7934668485    0.0523572660
 H   -0.5430361011    1.8548964982   -0.7994222459
 H   -0.5030326743    1.7662461531    0.9749054017
 H   -0.8754166453   -2.5896980643   -1.0032257528
 H   -0.8347276410   -2.6769701863    0.7532433180
 H   -5.0032917160   -0.3738187834    0.9604982005
 H   -5.0438764686   -0.2869866495   -0.7869742217
 H   -5.4074478928   -2.6598876777   -0.8232517757
 H   -5.3706814424   -2.7392634858    0.7785014510
 H   -2.6346974512    0.8204586260    0.0872998889