21

 C   -0.0376134309    1.4653787870    0.1013059376
 C   -0.2396598410   -0.0407690495    0.1120134008
 O   -0.6063541252   -0.6269166799    1.1048418735
 C    0.0468680908   -0.7682915594   -1.1990834111
 C   -0.0448891706   -2.2805254056   -1.0737395981
 C   -1.4179041171   -3.0250067353   -1.0263621908
 C   -1.5565017967   -2.7869129951   -2.5597698659
 C   -0.0747619912   -3.2082412360   -2.3318364426
 C   -0.6276465271   -4.3164888268   -1.3883424921
 H    1.0136280308    1.7033141933   -0.0981275611
 H   -0.6241901077    1.9295140216   -0.6992608470
 H   -0.3289496795    1.8856303388    1.0646073430
 H   -0.6344819044   -0.3595562831   -1.9557698240
 H    1.0507250938   -0.4729498563   -1.5376438277
 H    0.6486836396   -2.6173904126   -0.2965088455
 H   -2.1892898174   -2.9157856019   -0.2645470869
 H   -2.1812837550   -3.5006826724   -3.1037852067
 H   -1.7529270208   -1.7703333019   -2.9062462669
 H    0.7048712754   -3.3168005907   -3.0887286234
 H    0.0569102831   -4.7035396190   -0.6284135819
 H   -1.1970495790   -5.1193799753   -1.8639020132