20

 C    0.1131946930    1.5479670824   -0.0716017643
 C   -0.0425016865    0.0460189638   -0.0686432958
 C    0.5979154748   -0.7721372208   -1.1308736217
 N    1.1962083000   -0.7000966916    0.2332044719
 C    1.0376967053   -2.1410236203    0.6248099816
 C   -0.3402414589   -2.6445598627    0.1050332879
 C    0.3091206214   -2.2735691263   -1.2579692814
 O   -0.1943387762   -2.6385566411   -2.4998698861
 C    1.6519135291   -2.8232299172   -0.6314046375
 H    1.0744264958    1.8377689814   -0.5042555598
 H   -0.6872282404    2.0180130567   -0.6529971253
 H    0.0702031888    1.9429741135    0.9488087968
 H   -0.9749777799   -0.2993643538    0.3653556160
 H    1.1343237002   -0.2995498239   -1.9505648741
 H    1.3860074358   -2.3477339116    1.6345504873
 H   -0.4252299552   -3.7272315311    0.2246964544
 H   -1.2711993191   -2.1741449242    0.4204902218
 H   -0.2832640606   -3.5964910429   -2.5233646534
 H    2.5938289139   -2.4136479933   -1.0019207758
 H    1.6873911088   -3.9142142572   -0.5685252626