20

 C    0.1639430604    1.4651148786   -0.1130586997
 C    1.3985750256    0.6600232689   -0.0132645710
 N    0.0240978882    0.0072652765    0.0572103584
 C    0.2821305453   -0.5963131692   -1.3013919725
 C    1.6977974321   -0.0059305765   -1.3390962781
 C    2.4422652783    0.4740621699   -2.5461841337
 C    3.7120052880    1.2243162253   -2.1247948058
 C    4.1881604410   -0.0485930607   -1.3478945307
 C    2.9037762474   -0.7745302070   -1.7701356072
 H   -0.1532740395    2.0229547723    0.7630000676
 H   -0.1076512024    1.9162461583   -1.0659690138
 H    2.0538592527    0.6888748277    0.8515855732
 H    0.2538220794   -1.6870482991   -1.2355669483
 H   -0.4260226971   -0.2632220082   -2.0690786220
 H    1.9595047139    0.5376039354   -3.5151668989
 H    4.3693904003    1.4667876826   -2.9621969421
 H    3.5518181499    2.1327635081   -1.5344179949
 H    5.0850376430   -0.4859389375   -1.7914732134
 H    4.3535759629    0.0564026245   -0.2704997110
 H    2.8335989307   -1.8216300899   -2.0451879961