19

 C   -0.0228743582    1.5709005903   -0.1126829726
 C    1.5030322195    1.5605692730    0.0778496060
 O    2.0602727452    0.7727781937   -0.9945007769
 C    1.5341679691    0.0902524928    0.1387343015
 C    2.3266844409   -0.9463086763    0.8717647937
 O    1.6134084489   -1.3871616444    2.0190959243
 C    0.2813364853   -1.7914774863    1.7267454398
 C   -0.5799226633   -0.6015312199    1.2847038503
 C    0.0042287769    0.0034081175    0.0009630753
 H   -0.5632967633    2.0433976830    0.7114500041
 H   -0.3618143725    1.9913137269   -1.0622499427
 H    2.1518263701    2.3077526657    0.5203680213
 H    2.5253682200   -1.7959796531    0.1948597307
 H    3.2884451876   -0.5573986724    1.2177297225
 H    0.2826182992   -2.5761071216    0.9505101039
 H   -0.1036770013   -2.2334499347    2.6500845487
 H   -1.6219643052   -0.9105841013    1.1464296801
 H   -0.5623641104    0.1380104047    2.0940460802
 H   -0.3328657884   -0.5425140674   -0.8856320804