18

 O   -0.1465710491    1.3972610252    0.0421607618
 C   -0.1222601036    0.0056689797   -0.0797716564
 C   -1.3420032515   -0.8881689701   -0.0325779993
 C   -2.4517744778   -0.1802328865   -0.7753575099
 C   -3.9087347776   -0.2985875115   -0.6145785923
 N   -3.2209929371    0.9659713868   -0.2541344093
 C   -1.6270400350   -0.1219607561   -2.0760123595
 C   -0.4659520433   -0.7750016363   -1.3103439563
 O    0.3454989135   -1.7590560645   -1.8432762164
 H   -1.0098379835    1.7196044498   -0.2450754437
 H    0.7313045892   -0.3992637067    0.4572006792
 H   -1.4555065962   -1.6978045295    0.6794439480
 H   -4.5557914467   -0.2327841978   -1.4852415083
 H   -4.2925887163   -0.9219373725    0.1891387992
 H   -3.1188526933    1.0063361712    0.7583859796
 H   -2.0239072450   -0.7949579543   -2.8398769762
 H   -1.4517544244    0.8671057857   -2.5110187980
 H    1.1586844976   -1.3460537026   -2.1544972920