17

 C   -0.0062787472    1.5572325310    0.0018638586
 C   -0.0050660008    0.0518038626   -0.0101527303
 C   -0.0300737320   -0.6519840277   -1.1717821723
 N   -0.0255653885   -2.0286395790   -1.1468534281
 C    0.0046907831   -2.8138560700   -0.0122716262
 O    0.0343655556   -4.0418416126   -0.0630740409
 C    0.0116586381   -2.0517558469    1.2413420238
 N   -0.0236249656   -2.8453804728    2.3657207692
 C    0.0185394150   -0.6829153648    1.2162936748
 H    0.8837422300    1.9546773713    0.5041072230
 H   -0.0252100933    1.9633569797   -1.0131477925
 H   -0.8779493467    1.9530291821    0.5364012535
 H   -0.0529580817   -0.1955754028   -2.1525930718
 H   -0.0260801415   -2.5497831056   -2.0121464353
 H    0.2066344236   -3.8101336546    2.1659012100
 H    0.3673502055   -2.4712278145    3.2150910901
 H    0.0356267465   -0.1318515754    2.1535331945