17

 N   -0.0710132090    1.2666303883   -0.3108827350
 C   -0.0132181270    0.0399261043    0.0007486759
 O    1.1646479314   -0.6254437661    0.1971646633
 C    1.0084651761   -2.0210531796    0.5165080980
 C    0.1521140009   -2.1540044040    1.7844212106
 C   -1.2246214710   -1.8616362329    1.2120212969
 C   -1.2443559636   -0.7738730145    0.1838818638
 N   -1.2499625986   -2.2030053975   -0.2239399501
 C    0.1137150626   -2.6625866946   -0.5525471101
 H    0.8703655369    1.6583952448   -0.3787111805
 H    2.0162946368   -2.4272812389    0.5932688333
 H    0.2023613866   -3.1715434030    2.1859705906
 H    0.4652187023   -1.4546902867    2.5637017672
 H   -2.1196013495   -2.0750995414    1.7862680293
 H   -2.1607565535   -0.2359981823   -0.0253406735
 H    0.3951534130   -2.3592617189   -1.5640992727
 H    0.1360880557   -3.7552491569   -0.4894949069