15

 O   -0.0017700281    0.0083719027    0.0088713481
 C   -0.0194259292    1.2081227454    0.0096047451
 C   -1.1866215647    2.1602393672    0.0328574871
 C   -0.6864426961    3.3532509533    0.7979119910
 C    0.7549525242    3.0754612066    1.2336868691
 C    1.1433723642    2.2246762836    0.0005962243
 C    0.6411701140    3.1319638437   -1.1353974209
 N   -0.7562038347    3.4022106351   -0.6687059354
 H   -2.2205603330    1.8510566784   -0.0353802606
 H   -1.3567011525    4.0011970276    1.3493851923
 H    1.3482599649    3.9903339984    1.3265577937
 H    0.8139483772    2.5186917581    2.1730955505
 H    2.1442853978    1.8074023559   -0.0526337375
 H    1.1840310593    4.0774545564   -1.2207827301
 H    0.6149266168    2.6429105377   -2.1132051267