19

 C    0.3965879091    1.4913473830   -0.1308493909
 C    0.0793087972    0.0240895819    0.0383430044
 O    0.8703985622   -0.8454802123   -0.8361554370
 C    1.2818595928   -1.6782539762    0.2772062002
 C    1.0207370350   -3.1336123439   -0.0124333406
 O    1.7082300651   -3.5203498975   -1.1895078349
 C    2.6005735634   -1.1825381811    0.8913984207
 O    1.8797096520   -0.2530142659    1.7485882618
 C    0.6048362150   -0.7236396682    1.2818253588
 H    1.4287683827    1.6946275385    0.1618172707
 H    0.2530988103    1.7894095339   -1.1737161217
 H   -0.2699192281    2.0967326756    0.4927637650
 H   -0.9893231399   -0.1739888603   -0.1265882516
 H    1.3935112948   -3.7658871807    0.7999691866
 H   -0.0642789372   -3.3012396856   -0.1026480020
 H    1.4409381194   -2.8921012872   -1.8720072697
 H    3.1452084400   -1.9247210158    1.4879499724
 H    3.2804354138   -0.6791687722    0.1979549799
 H   -0.0829838977   -0.9771467961    2.0908853878