17

 N    0.0124114077    1.2405138438    0.4060576874
 C   -0.0097578913    0.0367953118    0.0445286529
 C   -1.2907484937   -0.8451398737    0.0002588738
 C   -0.6580069958   -2.2340820879   -0.0306634063
 N   -0.5822596877   -3.3701288632   -1.1291181817
 C   -0.1020463726   -2.2671015868   -2.0800120358
 C    0.6191809334   -1.9426099979   -0.7556543901
 C    0.9099579687   -3.4585706413   -0.6869790203
 O    1.1181403175   -0.6760812286   -0.3747977410
 H    0.9545324921    1.6282411661    0.3373297776
 H   -1.9056698244   -0.6472492312    0.8779934360
 H   -1.8777919442   -0.5727128290   -0.8797505865
 H   -0.5825657550   -2.6760785385    0.9647423122
 H    0.4957332589   -2.6446835674   -2.9115337287
 H   -0.8955807212   -1.6089988123   -2.4328802915
 H    1.0511947699   -3.9107564054    0.2960555514
 H    1.5456724478   -3.9101773086   -1.4507190193