21

 C   -0.0290940465    1.3955739693    0.1123751358
 C    0.0202676429   -0.1057167291   -0.1052012150
 C    0.9053728645   -0.5851999243   -1.2776443706
 C    1.4649757581   -1.9116459043   -0.7725386608
 C    2.6047869794   -1.8442876455    0.2318279586
 C    1.1813436700   -1.9503973150    0.7019148784
 C    0.6394686035   -3.1229472018    1.4755420761
 O   -0.7739080153   -3.1837214682    1.4024226910
 O    0.5695346885   -0.7298269136    1.0740754885
 H    0.9787519691    1.7934517462    0.2664842105
 H   -0.4703514465    1.8910360239   -0.7582993180
 H   -0.6339205723    1.6422586463    0.9895354103
 H   -0.9998677805   -0.4938424619   -0.2522553488
 H    0.3182656008   -0.7101909541   -2.1913438737
 H    1.6989672987    0.1404431450   -1.4911877608
 H    1.3639370873   -2.8001600117   -1.3847542108
 H    3.2430546742   -2.7177033158    0.3259496479
 H    3.1059884163   -0.8928539276    0.3772903502
 H    1.0264475509   -4.0578419439    1.0574705810
 H    0.9791584110   -3.0619908051    2.5223080366
 H   -1.0824489842   -2.3190715187    1.6980602336