17

 O   -0.0951416438    1.4698132472   -0.0540512648
 C    1.3386408111    1.4778426116    0.0224790502
 C    1.3978752203    0.1707371597    0.8350376601
 C    2.5319203875   -0.4086860510   -0.0817869708
 C    2.2722536466   -1.8028666672   -0.5904512292
 C    1.1843315787   -1.7583163256   -1.3644289823
 C    0.6488088423   -0.3437933526   -1.3719668697
 C    0.0552035969    0.0231112832    0.0269690670
 C    1.9025935671    0.5579999446   -1.1346405334
 H    1.7974366307    2.4347523673    0.2636874670
 H    1.3799517235    0.1022319879    1.9202411445
 H    3.5346880743   -0.1704903561    0.2739793582
 H    2.8378406490   -2.6816048875   -0.3064469715
 H    0.6826689108   -2.5951767760   -1.8342677938
 H   -0.0187345569   -0.0671998558   -2.1875135436
 H   -0.8284752958   -0.4998379788    0.3891324696
 H    2.4564874877    0.9251312991   -1.9972595675