15

 O   -0.1436565861    0.1060775755    0.2426043110
 C   -0.0277608443    1.2714559445    0.0564775743
 O   -1.0218874261    2.1807622543   -0.2427562622
 C   -0.0704498898    3.2789512611   -0.3332945906
 C    0.0069718096    4.1532149918    0.9349598560
 C    1.5260026721    4.4603708856    1.0097031333
 C    1.4962354916    2.9458898019    1.3483657731
 O    0.2009238912    3.1602581593    1.9831196678
 C    1.0972630848    2.3156382831   -0.0061631471
 H   -0.1395337965    3.7990910535   -1.2872740003
 H   -0.7801093342    4.8766194931    1.1391458604
 H    2.0526387172    4.7982531608    0.1128046114
 H    1.7757045254    5.0718762249    1.8767254280
 H    2.2261622615    2.4405170709    1.9773648934
 H    1.9040632936    2.1377179498   -0.7147459184