21

 C    0.0006424237    1.6680481609    0.0247452329
 C    0.0545856173    0.1374350689    0.0297911242
 C   -1.3420505042   -0.4769850242   -0.0758432534
 O    0.8384257896   -0.2525454881   -1.1197506768
 C    1.8340639221   -1.1945929236   -0.7395058954
 C    2.2089895536   -0.8110950523    0.6933471178
 C    0.8488445199   -0.4118096980    1.2356636786
 C    0.5731598160   -0.0842181781    2.6338353275
 O    0.1985428363   -1.3568710985    2.0958685750
 H    0.9976187758    2.0942754898    0.1700280381
 H   -0.3795571427    2.0174516923   -0.9394243557
 H   -0.6584450551    2.0448900412    0.8126094276
 H   -1.8394588186   -0.0985040438   -0.9732903503
 H   -1.2830793209   -1.5656727928   -0.1384837344
 H   -1.9528636729   -0.2253332040    0.7958176708
 H    1.4418053825   -2.2233721611   -0.7741385540
 H    2.6582578307   -1.1179214708   -1.4538338102
 H    2.6526349419   -1.6197774276    1.2772148525
 H    2.8910918038    0.0459479891    0.6906408878
 H    1.3823609413   -0.1030148488    3.3636339409
 H   -0.2560268701    0.5758249195    2.8872138764