16

 O   -0.0782715163    0.0680496702    0.2125579331
 C   -0.0886863082    1.2613700283    0.0530269667
 C   -1.2422540053    2.1856579376   -0.0893875694
 C   -0.9887934711    3.4918057130    0.6889815784
 N    0.0223755584    3.4880851100    1.7220907174
 C    1.3092509429    2.8742248478    1.3240182085
 C    1.1358069690    2.1960693403   -0.0421178778
 O    0.7488676324    3.1950137777   -0.9924772577
 C   -0.6251210043    3.4214230199   -0.7546796735
 H   -2.2420624306    1.8143701958   -0.2664504366
 H   -1.8845965526    4.0359808358    0.9677233356
 H    0.1720192474    4.4355871889    2.0452875782
 H    2.1036412960    3.6233392084    1.2262663535
 H    1.6262351468    2.1407955454    2.0770402701
 H    2.0393718515    1.6951195959   -0.3867821163
 H   -1.1094836860    3.9810363849   -1.5455948604