19

 C   -0.1160947424    1.5540060119    0.0106543743
 C    0.0610062938    0.0374991724    0.0104124976
 C    1.0058034414   -0.5530041750   -1.0941584747
 C    1.9481610339   -1.3342560288   -0.1572397788
 O    1.0157084213   -1.9448261321    0.7842257135
 C    0.8035343165   -0.5708138594    1.2237511931
 C    2.3117346192   -0.2859991146    0.9391636300
 C    3.2331839801   -0.7396997589    1.9579637056
 C    4.0177158047   -1.0855399462    2.8006256638
 H    0.8423119909    2.0819005902    0.0578579899
 H   -0.6272411029    1.8857147719   -0.8987968703
 H   -0.7183162741    1.8814101501    0.8653134808
 H   -0.9217563661   -0.4399210895   -0.0451707734
 H    0.4873490261   -1.2202867122   -1.7852714293
 H    1.5240586019    0.2169721769   -1.6738698776
 H    2.6834655800   -2.0222677498   -0.5720580413
 H    0.3709715878   -0.4784907687    2.2195922034
 H    2.5735791028    0.7175628423    0.5907449125
 H    4.7040081350   -1.4032306305    3.5457121809