16

 O    0.0126740538   -0.0663744298   -0.3215325650
 C   -0.0519798616    1.0998764148   -0.0272864504
 C   -1.3532945748    1.8077445373    0.3812355514
 C   -1.1971551305    3.2846948807    0.8270085135
 N   -0.0422389112    3.4937951484    1.7287625589
 C    0.9651803589    2.9154272047    1.2569772776
 O    2.2027783925    2.6816534142    1.7875507006
 C    2.4790919533    1.6724538668    0.7452848171
 C    1.1490100947    2.0309584776    0.0547760405
 H   -2.0671116804    1.7216508059   -0.4454582075
 H   -1.7676525199    1.2139973515    1.2044737109
 H   -1.1096962387    3.9396985476   -0.0513445576
 H   -2.1020204604    3.5950559498    1.3542382307
 H    3.3960404569    1.9092940488    0.2045481562
 H    2.5263691997    0.6726504874    1.1813617685
 H    1.2537303179    2.5782856543   -0.8880619353