21

 O   -0.0031452764    1.6784463399    0.4354727120
 C    0.0879017175    0.2512125935    0.5138630472
 C   -1.1863657110   -0.4614389884    0.0680186672
 C   -2.3873069385   -0.0417894200    0.9312919039
 O   -2.7694360235    1.3053104964    0.7416262751
 C   -1.5089664173   -0.4040215869   -1.4585464384
 C   -1.8117720983   -1.9268220945   -1.4119999074
 O   -1.4166211417   -2.7528756444   -2.4755264149
 C   -1.0662803598   -2.0113038349   -0.0513833059
 H   -0.0861703269    1.9132343163   -0.4956924442
 H    0.9473039156   -0.1075702407   -0.0723229114
 H    0.2952502663    0.0331045502    1.5678933778
 H   -3.2637110456   -0.6486907711    0.6770748714
 H   -2.1497277983   -0.2524542670    1.9893056524
 H   -1.9647685744    1.8290223460    0.8598426461
 H   -2.3055990643    0.2722880877   -1.7743635552
 H   -0.6123143707   -0.2076855648   -2.0608754618
 H   -2.8818642504   -2.1120896281   -1.2887726021
 H   -0.4739275396   -2.6216167256   -2.6230147304
 H   -0.0255532622   -2.3270550325   -0.1926479061
 H   -1.5076546106   -2.6214060113    0.7416715246