18

 O    0.3572811496    1.1459428632    1.4444062655
 C    0.2409995775    1.6619307301    0.3549051971
 N    1.2412525851    1.7818457481   -0.5652074376
 C    2.5172445025    1.1452754338   -0.4047017494
 C    3.7361080537    1.8449413387   -0.9513863497
 C    3.5453571209    1.7225005627    0.5382654422
 C    3.2358054430    2.9460373714    1.3868748205
 C    4.4381388577    3.6779991809    1.7729958344
 C    5.4382408024    4.2664736470    2.0863022404
 H   -0.7046267562    2.1146797541   -0.0065782018
 H    0.9936313047    2.1278801229   -1.4798948658
 H    2.4876766970    0.0602853611   -0.4695587031
 H    4.4951880665    1.2484012421   -1.4438136372
 H    3.5853150292    2.8281511055   -1.3866321123
 H    4.1609835708    0.9845240778    1.0424249552
 H    2.5626830941    3.6126217850    0.8354484413
 H    2.6831910215    2.6301910010    2.2795029800
 H    6.3157623902    4.7930648844    2.3685155705