21

 C   -0.0190055451    1.6737586710   -0.0248991920
 C    1.4751953421    1.2374307396    0.0145062878
 C    1.0381463637    0.2194091102    1.1209125819
 C    1.8931202238   -0.9496551926    1.6055880924
 C    2.7901119209   -1.6350610366    0.5732047452
 C    2.0394504459   -1.9785587677   -0.7064311750
 O    1.8401262509   -0.8546795240   -1.5422979279
 C    1.0537692915    0.2109631881   -1.0974655160
 C   -0.0561791067    0.1156367827   -0.0021304021
 H   -0.3956055901    2.1707338680    0.8706273979
 H   -0.3699005547    2.1640760810   -0.9362242315
 H    2.3477957377    1.8929655303    0.0170569182
 H    0.6421036545    0.7244740709    2.0106524052
 H    2.5123467023   -0.5933612176    2.4386288941
 H    1.2147024051   -1.6965803773    2.0425246177
 H    3.6359718925   -0.9906913663    0.3042443075
 H    3.2121458894   -2.5493468734    1.0079461016
 H    2.6126217968   -2.6827474472   -1.3176119481
 H    1.0752243720   -2.4564850433   -0.4666480050
 H    0.7264112638    0.7002648851   -2.0198789271
 H   -0.9493171166   -0.5124718408   -0.0019670047