17

 C   -0.0845240648    1.4841949812   -0.0032295566
 C    0.0876885782   -0.0107141915    0.0302779335
 N   -0.7380560655   -0.8425262364    0.9215129098
 C    0.7390249627   -0.7763978866    1.1292336838
 C    1.4353976921   -1.9382235228    0.5054607370
 C    1.2422328276   -1.9567173731   -0.8123125387
 C    0.4410311960   -0.7453221850   -1.2836148605
 C   -0.7347265263   -1.0901803983   -2.0847079400
 N   -1.6536673797   -1.3433849217   -2.7380590595
 H    0.7827212118    1.9749463458   -0.4579908455
 H   -0.9706643558    1.7623091251   -0.5849301876
 H   -0.2052838435    1.8855944381    1.0079529946
 H   -1.1979092943   -0.2286051392    1.5929846977
 H    1.1230654282   -0.2925334717    2.0209710975
 H    1.9873383116   -2.6787722087    1.0709596873
 H    1.5753438656   -2.7187022156   -1.5053387364
 H    1.0732830362   -0.0972308597   -1.9078892864