19

 C    0.0412343021    1.5099989949   -0.0508042612
 C   -0.0044983461    0.0070648798    0.0485252403
 O    0.9663243746   -0.6436197845   -0.8746449748
 C    1.1986957494   -1.6084553468    0.1322007775
 C   -0.0773880165   -2.5294752403    0.5210767166
 C   -0.0123549644   -1.8618949325    1.9379683974
 C    0.7304467965   -0.6985462508    1.2766789396
 C   -1.3064891449   -1.9808156746   -0.1441522061
 C   -1.3196458453   -0.6521823879   -0.2825585265
 H    1.0527710886    1.8809172305    0.1326160858
 H   -0.2701736582    1.8363927763   -1.0486256942
 H   -0.6369160573    1.9579308274    0.6836946836
 H    2.1576661641   -2.1220535352    0.0430898023
 H    0.0299989543   -3.6122014912    0.4576905619
 H   -0.9647412064   -1.6822304594    2.4429496555
 H    0.6663355109   -2.3997586855    2.6081605399
 H    1.3861386135   -0.0348606190    1.8429462138
 H   -2.1230370813   -2.6297739198   -0.4422873800
 H   -2.1393775236   -0.0805701814   -0.7037399212