19

 C   -0.0562583587    1.5716767188    0.0179285858
 C    0.0183449757    0.0355537920   -0.0422252041
 C    0.7118786618   -0.4692565361   -1.2190012459
 C    1.2873953640   -0.8866523756   -2.1955866383
 C    1.9775187780   -1.3858226037   -3.3667130953
 O    2.1247383276   -2.5786249306   -3.5673395021
 C    2.4931661025   -0.3489247771   -4.3056149352
 C    3.7876217995   -0.6663088308   -5.0426130887
 C    2.4990585886   -0.7000568683   -5.7875676143
 H    0.9453170036    2.0094278521    0.0340461284
 H   -0.5861023374    1.9697296835   -0.8514725295
 H   -0.5862280209    1.8896416455    0.9202063722
 H    0.5206708766   -0.3501988803    0.8543514156
 H   -0.9935443159   -0.3894470373   -0.0212264480
 H    2.3062292148    0.6814258581   -4.0289469854
 H    4.4726359862    0.1569136597   -5.2089561534
 H    4.2440514220   -1.6169106749   -4.7920666707
 H    2.0919421411   -1.6732740052   -6.0362625730
 H    2.2695466007    0.0992141903   -6.4826210282