14

 N    0.1177653239   -3.7022706693   -0.0546142141
 C    0.0707732828   -2.5406521623   -0.0324333228
 C    0.0147307316   -1.1798931591   -0.0064742823
 C   -0.0538037587    0.0303693542    0.0160822792
 C   -0.0636780307    1.4350139828    0.0441581979
 C   -1.1247131710    2.2525427791    0.0324285180
 C   -0.6667814424    3.6771746036    0.0733635648
 O    0.7541206388    3.6179209971    0.1098537518
 C    1.2041585521    2.2716549183    0.0947800635
 H   -2.1631313500    1.9513297697   -0.0012650035
 H   -1.0007739935    4.2446615744   -0.8099445157
 H   -1.0477439709    4.2088759084    0.9599274091
 H    1.7981937047    2.0566616619    0.9946824031
 H    1.8455042931    2.0923767312   -0.7801216490