16

 C   -0.3088016041    1.6353564881   -0.1839811605
 C    0.0027294230    0.1629603597   -0.0241438775
 C    0.7507898051   -0.5757342400   -1.2355258816
 O    0.9886703026    0.1497017548   -2.4038643414
 C    1.8964215397   -0.7898565387   -0.2422295738
 C    3.0541316766   -1.2352772899    0.3620408007
 N    2.9928291137   -0.8413311932    1.6712773484
 N    1.8687917188   -0.1980885546    1.9215930730
 N    1.2354156860   -0.1650663846    0.7456031730
 H    0.5624737674    2.1944033544   -0.5361528962
 H   -1.1157749342    1.7619712047   -0.9113243194
 H   -0.6281786147    2.0682752998    0.7678336316
 H   -0.8583980086   -0.3941251419    0.3550066620
 H    0.2403120290   -1.4919952162   -1.5399009058
 H    1.6341117327    0.8392227625   -2.2139422120
 H    3.9025408269   -1.7794483247   -0.0167827705