18

 C   -0.0693473367    1.4380000410   -0.4495020072
 C   -0.2447944675    0.0691667219    0.1344859927
 N   -0.5738777182   -0.1538603851    1.3256520011
 O    0.0239549751   -0.8738039350   -0.8840103703
 C   -0.0405649212   -2.2219764548   -0.7048591532
 O   -0.3293043708   -2.7745160086    0.3264244846
 C    0.3044630011   -2.9259070403   -1.9946800209
 C    0.2556963374   -4.4421439500   -1.8638092852
 O    0.5962644920   -4.9710577131   -3.1347550042
 H    0.9499739483    1.5631026521   -0.8282896052
 H   -0.7491880979    1.5817254684   -1.2952484696
 H   -0.2720708046    2.1835416377    0.3180915696
 H   -0.6380220573   -1.1515424151    1.5190817592
 H   -0.3854397732   -2.5883328733   -2.7763401091
 H    1.3003395244   -2.6027772211   -2.3181210690
 H    0.9569631062   -4.7684805573   -1.0826279597
 H   -0.7495244284   -4.7536234336   -1.5460287275
 H    0.5716146812   -5.9304056535   -3.0761564261