18

 O   -0.1531220492    1.4048068524    0.1133207329
 C    0.0348802899    0.0102299214   -0.0530377595
 C    0.8237373173   -0.3441836421   -1.3276445022
 C    0.0683697996    0.0977352116   -2.5712119094
 C    0.5467836466   -0.4471859301   -3.9352050403
 C   -0.8561977061   -1.0830606070   -4.0113750590
 O   -1.1974940689   -0.5961790921   -2.6944610324
 C    0.6737614437   -0.5841451741    1.1380404441
 N    1.2077251404   -1.0250940640    2.0632854721
 H    0.7049765850    1.8064972979    0.2930934867
 H   -0.9713214587   -0.4110172198   -0.1499102096
 H    1.8109787281    0.1351086371   -1.2946627952
 H    0.9837264781   -1.4277365086   -1.3585650581
 H   -0.0889725935    1.1827812610   -2.5440158823
 H    0.7738941737    0.3031945834   -4.6931784292
 H    1.3729700878   -1.1585930855   -3.8744552103
 H   -1.5172547294   -0.6659807562   -4.7804205400
 H   -0.8944123644   -2.1769017552   -4.0663192383