17

 N   -0.2837541381    1.1528582739   -0.4007018717
 C   -0.5432858691    0.0650696408    0.1781903269
 O   -0.5175269332   -1.0902902043   -0.5289797375
 C   -0.8935451271   -2.2806544272    0.1460476190
 C   -2.3690186495   -2.6054189090   -0.0339480453
 C   -2.8313602115   -3.1164170026   -1.3892450526
 C   -2.7707434985   -4.0627710553   -0.2318191928
 C   -3.2699250823   -1.7625065146    0.7104428860
 N   -3.9692123623   -1.0760149195    1.3258927447
 H   -0.3301035966    1.9207865415    0.2656524189
 H   -0.7904729155   -0.0763009723    1.2384266493
 H   -0.2969059471   -3.0821084115   -0.2980481751
 H   -0.6435839622   -2.2175978192    1.2126069625
 H   -3.8032681683   -2.7898527033   -1.7375817286
 H   -2.0697533470   -3.1765675025   -2.1581338047
 H   -1.9702443645   -4.7935409487   -0.1941600070
 H   -3.6995051272   -4.3852904562    0.2223588980