17

 C    0.0382434857    1.5128942854    0.1262456985
 C    0.0064847918    0.0041670575   -0.0340363986
 C    0.7400672716   -0.5225704881   -1.2637796634
 C    0.7574064757   -2.0536169800   -1.2294858661
 N    1.1213978594   -2.5954218168    0.0753985750
 C    1.0374571791   -1.8289419670    1.0797707405
 O    0.6082905371   -0.5497323761    1.1653506014
 C    1.4482725258   -2.3184991089    2.3816797307
 N    1.7767755448   -2.7070826350    3.4186623209
 H    1.0696765972    1.8764900440    0.1500550808
 H   -0.4806086349    1.9881221271   -0.7113574328
 H   -0.4550902398    1.8105627469    1.0549535895
 H   -1.0340641749   -0.3485404720   -0.0512601515
 H    0.2530840235   -0.1547986228   -2.1722267737
 H    1.7654163219   -0.1344030203   -1.2592662157
 H   -0.2250983059   -2.4620154908   -1.5012681735
 H    1.4644982319   -2.4542733928   -1.9630835518