14

 N    0.1495518137    1.3276396019    0.1036738138
 C   -0.0116361958   -0.0296709292    0.0310504198
 C   -1.1567872456   -0.7961625115    0.0212261245
 N   -2.4592721631   -0.2277240941   -0.0052678378
 C   -0.7058698069   -2.1480416011    0.0207853198
 C    0.6611982969   -2.1151633857    0.0218322231
 O    1.0909373623   -0.7947633717    0.0394463099
 C    1.6405088695   -3.1193980194    0.0007110313
 N    2.4349319396   -3.9657651364   -0.0168159935
 H    0.9776958810    1.6885791813   -0.3490403011
 H   -0.6978813184    1.8205871388   -0.1458089925
 H   -2.9329326165   -0.3192648070    0.8886277809
 H   -3.0478222508   -0.6727769186   -0.7015766579
 H   -1.3114399958   -3.0413565972    0.0082860199