16

 O   -0.0348319235    0.0356466570   -0.2035888814
 C   -0.0246940085    1.2036542469    0.0587724738
 C   -1.1717838265    2.2491364092    0.2628311022
 C   -0.1079752167    3.3034905836   -0.0927591321
 N    0.8818295536    3.2521298825    0.9871645692
 C    1.0258122813    2.2769324119   -0.1237399543
 C    1.9311466895    2.5721250670   -1.3048715530
 C    1.2707425058    3.8150658957   -1.9026827997
 C    0.1438933596    4.1764442483   -1.2694358540
 H   -1.9507291263    2.0971864741   -0.4881450782
 H   -1.6119537792    2.3425180250    1.2564314846
 H    1.5728489763    3.9849663416    0.8297234327
 H    2.9778240346    2.7501137489   -1.0294961458
 H    1.9350035017    1.7355229917   -2.0132178804
 H    1.7168758493    4.3604850811   -2.7284379475
 H   -0.4843452410    5.0160123655   -1.5428305262