17

 O   -0.1022554293   -0.0288373315    0.2581403129
 C   -0.0664355988    1.1621477717    0.1983841617
 C   -1.1295796852    2.2975694971    0.1095217275
 C    0.0879161893    3.2002040463   -0.1292356162
 C    1.0436438735    3.0911335496    0.9734006316
 N    1.0755814153    2.0189153276   -0.0735431614
 N   -2.0872019634    2.2634638279   -0.9759953372
 C   -1.8169094865    1.4495514462   -2.1633915855
 C   -2.8569118210    1.0359134838   -1.1813012945
 H   -1.6752445060    2.4973122136    1.0377471070
 H    0.1609568755    3.9222299057   -0.9320351711
 H    1.9414477979    3.6995983777    0.9542106764
 H    0.6948220064    2.8312633995    1.9703547695
 H   -2.1022085434    1.9117543098   -3.1035584626
 H   -0.9092014461    0.8530033479   -2.2037770926
 H   -2.6215507050    0.1779617988   -0.5574918217
 H   -3.9108825031    1.1840092482   -1.3987325039