17

 C   -0.0498991206    1.3788600460    0.1301320080
 O    0.3481394963    0.0282143261   -0.0308098285
 C    0.7078244603   -0.6171905683    1.1681415034
 C   -0.4593076572   -0.7416858153    2.0795077235
 N   -1.3737094981   -0.8278396515    2.7807947986
 C    1.2725766290   -1.9786579591    0.8360401899
 C    2.7256743748   -2.0976442899    0.4629445407
 C    2.2422692530   -2.6329362725    1.7860426639
 H    0.7507380199    1.9804368348    0.5861405206
 H   -0.2602188259    1.7636520438   -0.8693561150
 H   -0.9534653915    1.4671218548    0.7479340775
 H    1.4711930321   -0.0292460174    1.7070785372
 H    0.5680825201   -2.6216507047    0.3194285865
 H    2.9892844158   -2.8011695771   -0.3180870334
 H    3.3251254099   -1.1934677088    0.4665208967
 H    2.5180401208   -2.0923793827    2.6855675620
 H    2.1692522911   -3.7054823984    1.9214350884