19

 C   -0.2847811752    1.5892566191   -0.1463424536
 C    0.1703460143    0.1688521954    0.2132261070
 C    0.8608308821   -0.5110583793   -0.9730044869
 C    2.1018367617   -1.3723761727   -1.0258755915
 C    2.1657651840   -2.5110730159    0.0304370241
 N    0.9826372722   -2.4241974773    0.9264036662
 C    0.8678423658   -3.0418895801   -0.4209413806
 C    0.7504531069   -1.9250203037   -1.4957971817
 H    0.5640045716    2.2177547990   -0.4404030018
 H   -0.9938737917    1.5813760961   -0.9824320304
 H   -0.7780339122    2.0739472680    0.7022857400
 H    0.8467305910    0.2011831441    1.0704052526
 H   -0.6872806359   -0.4254572554    0.5366353021
 H    0.8893177475    0.1548688973   -1.8381590576
 H    2.9605926191   -1.1113360284   -1.6323377207
 H    3.0660928950   -3.0262370322    0.3385449088
 H    1.0642159460   -3.1914833284    1.5941434494
 H    0.5311167571   -4.0629757930   -0.5430619207
 H    0.4375725106   -2.1430743828   -2.5096798647