18

 C   -0.0272409808    1.5672904706   -0.0199382188
 C    0.0438731916    0.0398933299   -0.0211641675
 C    0.6871931275   -0.5223223762    1.2551267972
 N   -0.0946400704   -0.2611235382    2.4678201474
 C   -0.3324343170   -1.4020631165    2.9982206387
 N   -1.1146737745   -1.6257647809    4.1082912737
 N    0.2248373650   -2.5020800324    2.3387799378
 C    0.8538495729   -2.0504193079    1.1811654950
 O    1.3767829638   -2.7350513824    0.3377415894
 H    0.9747902057    2.0086581834    0.0242035674
 H   -0.5153923599    1.9371761112   -0.9267954528
 H   -0.5893178809    1.9260317492    0.8463191961
 H   -0.9635584939   -0.3826511068   -0.1185100561
 H    0.6257835985   -0.3252466443   -0.8748150382
 H    1.6872249269   -0.0776381509    1.3646720225
 H   -1.3303922425   -0.7677229722    4.5973676511
 H   -0.7982724051   -2.3587676463    4.7273203599
 H    0.0128174731   -3.4720651494    2.5108118972