16

 C    0.0083574126   -1.1915890254    0.0955268722
 C    0.0347115571    0.0092442778    0.0382527391
 C    0.0358345579    1.4293251253   -0.0765498494
 C   -0.6972136218    2.2404254068   -1.1730114127
 C    0.5046962084    3.2064098839   -1.1670099467
 C    1.0871858082    3.9577550153   -2.2751804533
 O    0.4193246090    4.6215666356   -1.1897091981
 C    1.1925562487    2.4216781488   -0.0732571067
 N    0.3200237541    2.2727668099    1.0845685149
 H   -0.0076451851   -2.2513486623    0.1608359701
 H   -0.8051630229    1.7019117536   -2.1169008370
 H   -1.6650019549    2.6545118799   -0.8748913575
 H    2.1646102412    4.1119715180   -2.3214525228
 H    0.5708717598    3.9913473717   -3.2336369615
 H    2.2546095855    2.2491817047    0.0550200817
 H   -0.3440650379    3.0402931562    1.1774890978