15

 O   -0.2359895073    1.5758833363    0.1095583563
 C    0.0733292052    0.2052529928    0.2368186404
 C   -1.1308987799   -0.6709360688   -0.1072523674
 N   -1.5714438052   -0.3209491700   -1.4564660543
 C   -2.2573346883   -1.1259292305   -2.1140130988
 O   -2.7029623545   -0.8748919050   -3.3989325711
 C   -3.3819363874   -1.9838339580   -3.7490648615
 N   -3.4393348924   -2.9071594654   -2.8701278083
 O   -2.7108483763   -2.3705867021   -1.7712177442
 H   -0.6530156795    1.6663993725   -0.7570180094
 H    0.9214084924   -0.0794731701   -0.4075040884
 H    0.3716468918    0.0341798775    1.2765540883
 H   -0.8743229101   -1.7348300014   -0.0144339361
 H   -1.9420687969   -0.4576204277    0.6009360314
 H   -3.8286683317   -2.0277265102   -4.7299476569