16

 O   -0.5205307046    0.6996206294   -0.6518902453
 C    0.1771512810    1.0790032571    0.2533582356
 C    1.3872048129    1.9367379176    0.0651096933
 C    2.8763262852    1.4776353007    0.1673468641
 C    2.8429290753    3.0283702070   -0.0139069900
 C    1.7825990836    2.8421678118   -1.1310351133
 N    1.7609108113    3.0301386566    1.0656558414
 C    4.0139677369    3.9560380327    0.0450485860
 O    4.5091131104    4.4697738730   -0.9250406042
 H   -0.0243626940    0.8038362782    1.3125465271
 H    3.1916199035    1.1283181033    1.1499140271
 H    3.2706620206    0.8917374172   -0.6622985028
 H    2.0941798877    2.3594894259   -2.0590549575
 H    1.1301077731    3.6989842725   -1.3148975288
 H    1.1469770547    3.8373782925    0.9076312586
 H    4.4064872324    4.1274945145    1.0720534386