21

 C   -0.1087336158    1.4573495278    0.1161719557
 O   -0.0468627617    0.0449887254    0.0268948645
 C    0.7027348322   -0.5502220016    1.0499893906
 C    0.5361129291   -2.0664704051    0.9465335530
 O    1.2276340561   -2.6057909963   -0.1614591837
 C    2.6116783389   -2.2666238541   -0.1427687391
 C    3.2568143419   -2.9054645316   -1.3613389245
 C    2.7503172750   -0.7471738015   -0.1237477214
 O    2.0691987504   -0.1882951865    1.0011731998
 H    0.8854615975    1.9130213321    0.0436971422
 H   -0.7288008577    1.8023819714   -0.7138589061
 H   -0.5695104339    1.7757874074    1.0638448040
 H    0.3592867069   -0.1942205397    2.0339696855
 H    0.9000758077   -2.5129804378    1.8864928805
 H   -0.5199299755   -2.3147613127    0.8177017393
 H    3.0661166317   -2.6656613396    0.7814861941
 H    2.8176738871   -2.5062038721   -2.2806744137
 H    4.3340410580   -2.7137489106   -1.3749470661
 H    3.0957792920   -3.9864163158   -1.3481933934
 H    3.7970000462   -0.4465812971   -0.0224697599
 H    2.3472902438   -0.3339510722   -1.0581223314