14

 N   -0.1487212260    1.0713720846    0.2654768896
 C   -0.1588089773   -0.2508588324   -0.0785039603
 O    0.8026937399   -0.9790515135    0.0103505759
 C   -1.4976646631   -0.7181943496   -0.6742327936
 O   -1.5325960504   -2.1331010045   -0.7989739310
 C   -1.6813266092   -2.7978752883    0.3666351595
 O   -1.8535383396   -2.2697236876    1.4359745757
 C   -1.6369882276   -4.2251089092    0.1530844904
 C   -1.6104602256   -5.4200140890    0.0347580041
 H    0.6713864147    1.4096581064    0.7444332446
 H   -1.0071655194    1.5757500432    0.4124621485
 H   -2.3349761196   -0.3664458873   -0.0636879621
 H   -1.5997399585   -0.3322280318   -1.6913649503
 H   -1.5823222082   -6.4772410011   -0.0709437712