19

 C   -0.5548042881    1.2072554922   -0.2110513956
 O    0.1272756063   -0.0063573323    0.0045588983
 C    0.4151147283   -0.6803768917   -1.1821605789
 C    1.2012078499   -1.9489605794   -0.8704049763
 O    1.6247443692   -2.2068734486    0.2289646896
 C    1.4709672893   -2.8729725451   -2.0408637312
 C    2.7592925172   -3.6556204067   -1.9720205485
 C    0.3065333692   -3.4033146031   -2.7839595257
 O    1.0931660333   -2.3488653349   -3.3256321879
 H    0.0376598745    1.9064542859   -0.8220017458
 H   -1.5230500787    1.0501870619   -0.7126198240
 H   -0.7325232657    1.6556159331    0.7689113081
 H   -0.4982621822   -0.9298672727   -1.7489749605
 H    1.0293632845   -0.0724489424   -1.8713547897
 H    2.7987496643   -4.2204776699   -1.0380494322
 H    2.8368253083   -4.3406293347   -2.8191498032
 H    3.6198843815   -2.9799624878   -1.9898162462
 H    0.4078252148   -4.3691659066   -3.2769072876
 H   -0.7071043558   -3.1357199771   -2.4896863828