18

 N   -0.0522275426   -1.1344134248   -0.0875235931
 C   -0.0339146238    0.0218349027   -0.0362883543
 C    0.0187577009    1.4542035204    0.0178820724
 C    0.5338273324    2.1487884515    1.2727893769
 C    1.3671942378    2.1711703658    0.0335992933
 C    2.6922871190    1.4184310324   -0.0815643319
 C    3.3384344699    2.1098349527   -1.2901426691
 O    2.9069913321    3.4631672086   -1.2048681359
 C    1.5442978206    3.4401824743   -0.8196391930
 H   -0.7866681356    1.9473436717   -0.5183747662
 H    0.0122619046    3.0519472342    1.5725522327
 H    0.8518790410    1.5140067559    2.0927263448
 H    3.2987096594    1.5835715052    0.8144827545
 H    2.5638594334    0.3419763833   -0.2169693573
 H    4.4303486967    2.1045507205   -1.2743785878
 H    2.9983351196    1.6500394723   -2.2320953586
 H    0.8877082752    3.4063403960   -1.7043835321
 H    1.3332418895    4.3623286374   -0.2688519354