17

 N   -0.1045591248   -1.1552774805    0.0357057648
 C   -0.0608126013    0.0013004838    0.0318470503
 C   -0.0008406867    1.4351320489    0.0264421016
 C    0.5002898949    2.1677539521    1.2648976702
 C    1.3550955908    2.1433740338    0.0340429170
 C    2.6297262110    1.3666344248   -0.0130826167
 C    3.4627643392    1.3537379672   -1.2708912532
 C    3.9522671215    2.0940824656   -0.0518231624
 H   -0.7988148487    1.9059686092   -0.5374038848
 H   -0.0174856305    3.0804411248    1.5363209062
 H    0.8066362846    1.5527018316    2.1035173871
 H    1.3660689565    3.0570306262   -0.5551162142
 H    2.6083160080    0.4397158600    0.5524957577
 H    3.9529207775    0.4278294197   -1.5486725685
 H    3.1147993192    1.9413473106   -2.1142013517
 H    3.9338602307    3.1788134432   -0.0754422617
 H    4.7807859381    1.6780428790    0.5101603884