21

 O   -0.1005425941    1.4945482216   -0.0293262150
 C    0.0371394370    0.0817336238    0.0689717755
 C   -1.3507309493   -0.5281933387   -0.0430813892
 C   -2.0745803108   -0.2514737544   -1.3910836868
 C   -2.9100731903   -1.5103931019   -1.6198741427
 C   -2.1998356365   -2.8484874083   -1.7726515715
 C   -0.7951037224   -2.7824975917   -1.1758140133
 C   -1.4069000875   -2.0617239500    0.0766536352
 C   -2.8201671613   -2.4460105005   -0.4455126113
 H    0.7781337195    1.8844052515   -0.0097069034
 H    0.6872436179   -0.3063968804   -0.7313058064
 H    0.4946734317   -0.2041169464    1.0306313616
 H   -1.9571308970   -0.1056077475    0.7691733733
 H   -2.6998785072    0.6428725690   -1.3339018313
 H   -1.3552952479   -0.0801308110   -2.2006661792
 H   -3.8562916968   -1.4345048407   -2.1447303701
 H   -2.5514621288   -3.5837709209   -2.4877274668
 H   -0.4254220889   -3.7780074544   -0.9166255200
 H   -0.0164274552   -2.2572909203   -1.7410269704
 H   -1.0913723845   -2.4512509324    1.0455324939
 H   -3.6494179877   -2.8653073566    0.1085585978