17

 O   -0.0965540386    1.4977866201    0.0065783216
 C    0.0440438335    0.0906880710    0.0423706010
 C   -1.3299227603   -0.6061486691   -0.1156261375
 C   -1.2047196444   -0.2435878788   -1.6432620768
 C    0.2890889727   -0.5816122418   -1.3484687395
 N    0.1859461349   -2.0641173121   -1.1669757056
 C    0.3841850284   -2.5790663976    0.2033195449
 C   -0.9606171122   -2.0913599373   -0.2028416385
 H    0.7763017699    1.8757780894   -0.1407559130
 H    0.6780122601   -0.1908389484    0.8868292117
 H   -2.1853649529   -0.3186279571    0.4943592939
 H   -1.7102114195   -0.8972608073   -2.3565637051
 H   -1.3869369211    0.8080575728   -1.8518395081
 H    1.1120720778   -0.2909553230   -2.0029044787
 H    0.5394543426   -3.6549153875    0.2174656995
 H    0.9935642493   -2.0497821599    0.9252530700
 H   -1.7572149202   -2.8040798234   -0.4019494099