14

 C   -0.0083155064    1.5065766756   -0.0466814888
 C    0.0431677093    0.0117953176    0.0469245326
 C   -0.8391141952   -0.8362995538    0.9351152027
 C    0.6609245166   -0.8337538206    1.1162795142
 O    1.3686099588   -1.8558922786    0.4489950004
 C    1.2095702678   -1.7100448202   -0.8993681374
 O    1.6691756033   -2.4358537598   -1.7191861340
 O    0.4302711121   -0.6233569072   -1.1652306458
 H    0.9476788328    1.9057086075   -0.3978398495
 H   -0.7923139614    1.8232641689   -0.7412325788
 H   -0.2279950458    1.9374952971    0.9338238709
 H   -1.4186769897   -0.3133871935    1.6880662349
 H   -1.3050879522   -1.7221471197    0.5169755037
 H    1.1584728800   -0.4793146630    2.0095103451