15

 O   -0.8150711090    1.4219870016    0.3722842185
 C    0.2011291416    1.0606234908   -0.1633708023
 C    1.4020910885    1.9916651378   -0.3712706384
 O    2.4361708978    1.5349918466   -0.7902675740
 C    1.1857209164    3.4479986508    0.0199635176
 C    1.1654549618    3.6252567439    1.5767961515
 O    2.0850748452    4.6782441006    1.7965390641
 C    3.0021320471    4.5964915485    0.7352678803
 O    2.2452611805    4.2717186747   -0.4146588287
 H    0.3713725500    0.0266759861   -0.5289207699
 H    0.2506592634    3.7992780970   -0.4286415686
 H    0.1858168298    3.9179528025    1.9550234620
 H    1.4860918909    2.7065015442    2.0893709496
 H    3.4743260629    5.5709472635    0.5912266506
 H    3.7612718133    3.8185856114    0.9249536776