16

 C    0.0323720910    1.4730257445    0.0690082328
 C   -0.0587230992   -0.0094548787   -0.0222811484
 C   -0.0722208977   -0.8416219678   -1.0675256927
 C   -0.0068045671   -2.2351193460   -0.4521295975
 O   -0.7547644365   -2.0960804015    0.7270193060
 C   -0.0093488805   -0.9521723102    1.1946618188
 C    1.3976816783   -1.5590824334    1.1411669576
 N    2.3637085840   -1.3108640541    1.9108625959
 O    1.3680828504   -2.4074230761    0.0691413561
 H    0.9449544335    1.7718433708    0.5984581142
 H    0.0439136768    1.9350198451   -0.9211625347
 H   -0.8111003323    1.8866870490    0.6351458010
 H   -0.0195221529   -0.6164023882   -2.1229106984
 H   -0.2730467798   -3.1172946649   -1.0275049847
 H   -0.3469638063   -0.5952453008    2.1629639726
 H    3.1925087085   -1.8420276376    1.6363959614