17

 C    0.0069553806    1.3826326178   -0.0317288521
 O    0.0002431542   -0.0272951458    0.0084859830
 C    0.6295539235   -0.6006637179   -1.0944488535
 C    0.5829232573   -2.1123131536   -0.9821083006
 O    0.0749073976   -2.7158077087   -0.0698564061
 C    1.2503022670   -2.8706367249   -2.1496352956
 O    1.7585347809   -2.2679513441   -3.0621296829
 C    1.2043823640   -4.3820109273   -2.0384177739
 O    1.8408401816   -4.9447994595   -3.1536172472
 H    1.0315657525    1.7856104210   -0.0400983669
 H   -0.5219853359    1.7679809983   -0.9171752451
 H   -0.5047153680    1.7317959802    0.8675806172
 H    0.1583305013   -0.3123950844   -2.0511480988
 H    1.6872222428   -0.2954855909   -1.1875479610
 H    1.6743473930   -4.6561828554   -1.0792911824
 H    0.1449808436   -4.6731126377   -1.9436734194
 H    1.8024864541   -5.9014617570   -3.0654356248