16

 O   -0.0461809456    0.0309683857    0.5921279985
 C   -0.0826281567    1.1192345182    0.0981260315
 C   -1.3638374735    1.9222969130   -0.0651225263
 C   -1.3050674468    3.0724161273   -1.0749774366
 C    0.0009365767    3.8393841095   -0.8814150158
 C    1.1838461433    2.8829934502   -1.0661849589
 O    1.1096515767    1.7081790818   -0.2476129976
 C    1.3237217275    2.4782003894   -2.4799542004
 N    1.4232130273    2.1824820312   -3.5921580959
 H   -2.1585693758    1.2074240986   -0.2881568663
 H   -1.5801501392    2.3181215332    0.9364201179
 H   -1.3519091456    2.6836746476   -2.0986076305
 H   -2.1676985364    3.7317973988   -0.9460282071
 H    0.1012644513    4.6658504475   -1.5905006052
 H    0.0585093445    4.2583846316    0.1295280791
 H    2.1182080325    3.3699773164   -0.7707986462