19

 C   -0.0815328998    1.4741215974    0.0803140489
 C    0.0230118058   -0.0233993726   -0.0315702048
 C    0.7215692983   -0.6317497291   -1.2706695648
 C    0.1157955924   -2.0702143294   -1.2672393944
 O    1.0458702622   -3.1304713725   -1.1508598571
 C   -0.7646695937   -1.9957135320    0.0023103738
 C    0.1444972891   -1.9111104066    1.2394614960
 O    0.6471997145   -0.5682516749    1.1356456342
 O   -1.2577200511   -0.6540637368   -0.0658076838
 H    0.9172848087    1.9123847625    0.1478144134
 H   -0.5897866030    1.8860828140   -0.7948025630
 H   -0.6421789150    1.7371208761    0.9799664723
 H    0.4719705966   -0.0796860814   -2.1805684929
 H    1.8063706645   -0.6543541004   -1.1459976216
 H   -0.5303442899   -2.2185474550   -2.1418299875
 H    1.5780955551   -3.1558629644   -1.9511887073
 H   -1.5835896899   -2.7108447659    0.0555009184
 H   -0.4221652498   -2.0206074661    2.1708753402
 H    0.9630651450   -2.6336447528    1.2115148801