21

 C    0.6558318035   -0.7594258313   -1.3779685497
 C   -0.0392039513   -0.3700974462   -0.0723496740
 C    0.5887899409   -1.0217069114    1.1812902120
 C   -0.0740241149   -0.5154382304    2.4776339072
 C    0.7560667785   -0.7871942404    3.7315402536
 C   -0.0028928212   -0.7970390275    5.0442162345
 O    1.9511842394   -0.9606185467    3.6775178809
 C    0.5230523758   -2.4819635050    1.1197048867
 C    0.4296827887   -3.6799300991    1.0710848548
 H    0.6138599698   -1.8406362694   -1.5370306580
 H    0.1805224265   -0.2704715913   -2.2336282759
 H    1.7106793767   -0.4637269663   -1.3666243759
 H    0.0030228127    0.7181988043    0.0596185648
 H   -1.1012966293   -0.6399600055   -0.1199641574
 H    1.6465903452   -0.7343972802    1.2344609468
 H   -0.1997606434    0.5760135126    2.4218390219
 H   -1.0807991310   -0.9312794620    2.5929093068
 H   -0.6628982312    0.0738302899    5.1229723643
 H   -0.6443232408   -1.6856511402    5.0837659838
 H    0.6950778086   -0.8181503515    5.8819235322
 H    0.3735039268   -4.7394204724    1.0295963707