18

 O    0.0299544098   -0.0659128843    0.0150772697
 C    0.0046107139    1.1525292375    0.0157401870
 C   -1.3511714975    1.8893497162    0.1326584263
 C   -1.2853507709    3.2917973681    0.7758431997
 C   -0.2410077471    4.0755311172   -0.0061776971
 C    0.6434893285    5.2412939218    0.5479882000
 N    1.8182285990    4.4480721275    0.0968263831
 C    1.0560906173    3.3086988759   -0.0602253245
 C    1.2155074676    1.9731718774   -0.0504862380
 H   -1.7607934051    1.9771275551   -0.8837331325
 H   -2.0219683100    1.2227932566    0.6800842238
 H   -2.2682280518    3.7745479255    0.7608042457
 H   -0.9783089140    3.2041447942    1.8250102036
 H   -0.6126635389    4.3181369784   -1.0075195479
 H    0.5503248415    6.2209499204    0.0729311311
 H    0.5844135680    5.3463914501    1.6373559263
 H    2.7281387360    4.4633286447    0.5379087762
 H    2.1765045239    1.4744875277    0.0055896774