18

 O   -0.1824234804    0.2914900806    0.0707487500
 C   -0.0082559044    1.4775976364   -0.0279908464
 C    1.3460242128    2.1496889733   -0.1023708839
 C    1.4915055680    2.9918913739   -1.3848650881
 C    2.8234851063    3.7050652597   -1.4826824269
 C    2.9606810571    4.9486228192   -2.3171036047
 N    3.0288148757    5.0136760278   -0.8769157525
 C    2.1504072697    5.7301413291   -0.0858262629
 O    1.6827231879    6.8056147468   -0.3708252430
 H   -0.8718442658    2.1820527085   -0.0792514862
 H    1.4411307658    2.8040346684    0.7754313272
 H    2.1209248067    1.3802649691   -0.0389925843
 H    1.3919741258    2.3347705316   -2.2578050278
 H    0.6793650712    3.7269078736   -1.4484530108
 H    3.6926144291    3.0517010990   -1.4127096920
 H    3.8868096160    5.1444493455   -2.8497533607
 H    2.0633695534    5.3497512413   -2.7823367849
 H    1.9808938351    5.2370465863    0.8908281679