14

 N   -0.1102032262   -1.0988923222   -0.3998108896
 C   -0.0472503832    0.0364910911   -0.1919732474
 C    0.0386891150    1.4614650725    0.0264479796
 N    0.2369723670    1.9103886978    1.4162898295
 C    1.3174096222    2.1205264385    0.4540466280
 C    2.5740853445    1.3470280276    0.6766697596
 C    3.7447980608    1.5436333479   -0.1863513346
 O    3.6935001574    2.1148732574    1.1219369580
 H   -0.6128677519    2.0401640013   -0.6229181917
 H   -0.2877123643    2.7647053503    1.5832571562
 H    1.4783792204    3.1249069602    0.0662557522
 H    2.4405019025    0.3907548626    1.1800228478
 H    4.4535178218    0.7283590067   -0.3184638080
 H    3.6964812039    2.2557710583   -1.0094224696