19

 C   -0.2102130266    1.3490270824   -0.4102347025
 C    0.0689757841   -0.0371121741    0.2054290425
 C    0.8838405518    0.1098254338    1.4765727454
 O    0.5768933811   -0.3451507675    2.5486080838
 C   -1.2150676856   -0.7972095368    0.4577986633
 O   -1.8923078848   -1.3203598934   -0.6903378932
 C   -1.4009453099   -2.2457664560    0.3007562692
 C   -0.3546381388   -3.2199201708   -0.1784320024
 O   -0.9334914207   -4.2162882636   -1.0041731902
 H    0.7192788627    1.8994233512   -0.5854375618
 H   -0.7263147277    1.2314785531   -1.3658797241
 H   -0.8435828756    1.9513464607    0.2492523217
 H    0.6996068460   -0.5888416095   -0.5041275676
 H    1.8222977037    0.6980345527    1.3490631811
 H   -1.8768742501   -0.3021716840    1.1703436438
 H   -2.1943619446   -2.7114938971    0.8872632528
 H    0.4570529548   -2.6939171583   -0.7000678614
 H    0.0810162520   -3.7437713322    0.6790698298
 H   -1.3754638017   -3.7567801206   -1.7271774902