14

 N    0.0033142377    1.3542318579    0.2139218209
 C   -0.0434037784    0.0015582909    0.0164392160
 N   -1.1586021651   -0.6414725440   -0.0639452456
 N   -1.0838293632   -1.9846946057   -0.3315485647
 C    0.0498360184   -2.7402388357   -0.5324619021
 N    0.1462073606   -3.9851349992   -0.7999651202
 N    1.2172831207   -1.9850801785   -0.4036536996
 C    1.2941999467   -0.6466061264   -0.1257258575
 O    2.3402702548   -0.0410837466    0.0085363128
 H    0.9000493611    1.6956897358    0.5262647560
 H   -0.8180448533    1.7910879193    0.5996686854
 H   -1.9804803638   -2.4335118835   -0.4017895371
 H   -0.7653638072   -4.4315225959   -0.8669920602
 H    2.0818530810   -2.4975680984   -0.5165633343