19

 O    0.4071940493    0.0335995409    0.2831987308
 C    0.4326996364    1.2228847816    0.3865622622
 O    1.1090993869    2.0120775701   -0.4750320426
 C    1.0323937820    3.4079909421   -0.2364145986
 C    1.8909294172    4.0908494039    0.7984543864
 C    3.0702898962    3.3329342771    1.3966158992
 C    3.8603435115    2.7510031562    0.1981305101
 C    3.5037426260    3.6420366464   -1.0168075092
 C    2.1594583511    4.2814457718   -0.6901616613
 H   -0.0833417208    1.7984292619    1.1783629932
 H    0.0272892668    3.7958949208   -0.3796319159
 H    1.4199833534    4.8630141534    1.3978235708
 H    3.6828229996    4.0468085048    1.9585589515
 H    2.7652275708    2.5543677907    2.1046528231
 H    4.9362034250    2.7344610977    0.3907681795
 H    3.5495677611    1.7229609018    0.0068227236
 H    4.2398838708    4.4437389440   -1.1435360990
 H    3.4835674316    3.0717424294   -1.9503978362
 H    1.8917761951    5.1980791155   -1.2046407275