24

 C    2.5199415043    0.3466759581    0.8927572760
 C    1.2529247928   -0.4797849482    0.6579282861
 C   -0.0091123528    0.3283903384    0.9691437737
 N    1.2203329570   -0.8875040877   -0.7489856379
 C    2.0252764971   -2.0303751665   -1.1648263167
 C    0.5291972905   -2.1037258424   -1.1847038131
 C   -0.1846122875   -3.0357378149   -0.2234475319
 C   -0.1793952396   -1.9340097137   -2.5203494088
 O   -0.3324318310   -3.1619237203   -3.2192647495
 H    3.4185433847   -0.2396293701    0.6769997729
 H    2.5256845196    1.2270245936    0.2423875981
 H    2.5749813733    0.6813902484    1.9332697137
 H    1.2873544067   -1.3520937394    1.3327576465
 H   -0.0649866089    1.2061439354    0.3175584275
 H   -0.9128330772   -0.2672205181    0.8112933568
 H   -0.0041566020    0.6670908145    2.0098761726
 H    2.6023432837   -1.9028491641   -2.0795134224
 H    2.5332381679   -2.6070752074   -0.3915537120
 H    0.4045597013   -3.2612732082    0.6674834595
 H   -1.1443252371   -2.6135613216    0.0965980979
 H   -0.3993725790   -3.9755625911   -0.7395619742
 H   -1.1968627330   -1.5592179396   -2.3587935746
 H    0.3598029389   -1.1838564123   -3.1151374890
 H    0.5506679902   -3.5013987129   -3.3996271415