18

 C   -0.0878958339    1.5374061267   -0.0517449911
 C    0.1085097308    0.0384671821    0.0305055328
 O    1.2054826183   -0.4588913921   -0.7984622167
 C    1.7367516514   -1.2131585077    0.3032251947
 C    2.2659922168   -2.5810618366    0.0297811755
 C    2.1958647735   -0.2574400135    1.3800036613
 C    0.7298993777   -0.6293097989    1.2598736159
 O    0.0072386525   -1.2448680592    2.2633109201
 H    0.8063356471    2.0783876641    0.2698382224
 H   -0.3154108539    1.8356150065   -1.0800234411
 H   -0.9288778154    1.8418239743    0.5811680977
 H   -0.8139914710   -0.4899105959   -0.2454940075
 H    3.1727411928   -2.5318442756   -0.5834237897
 H    2.5160258721   -3.0858627507    0.9671235566
 H    1.5249707051   -3.1834716134   -0.5045251146
 H    2.6868100708   -0.7346162769    2.2235695908
 H    2.5679817859    0.7297106877    1.1199793864
 H   -0.0166451205   -0.6573662711    3.0265622664