13

 O   -0.1177836589    0.1915163572   -0.7054099957
 C   -0.1005136594    1.2479852923   -0.1757595406
 C   -1.0866267462    2.1372046420    0.5708848740
 C   -0.0938961661    3.3277654624    0.4574896879
 C    1.0503682819    2.3792713974   -0.0800896464
 C    2.0384980217    2.0300245391    0.9307457149
 N    2.7735750330    1.7359876678    1.7727312023
 C    1.6497250756    2.7436632333   -1.3526907246
 N    2.0674637917    3.0379164797   -2.3889885392
 H   -2.0633229729    2.2415660661    0.0936398334
 H   -1.2372582379    1.7828119360    1.5956680911
 H   -0.3778548994    4.0582066662   -0.2994153404
 H    0.1572604069    3.8376450605    1.3854914435