21

 C    0.0665586501    1.6022858420    0.0747251834
 C   -0.0342721091    0.0768884466   -0.0156013463
 C    0.6947440261   -0.5021560601   -1.2367465647
 O    2.0556271968   -0.0637609663   -1.2611117165
 C    0.6122303485   -2.0403487630   -1.3518898817
 C   -0.8339348210   -2.5564076904   -1.3889521931
 C    1.3874983074   -2.5327131526   -2.5824134411
 H    1.1109252585    1.9229528972    0.0875719708
 H   -0.4130157415    2.0778868458   -0.7880931489
 H   -0.4241704396    1.9776007124    0.9778765499
 H    0.3858222852   -0.3811532039    0.8929196994
 H   -1.0882169104   -0.2185158886   -0.0453547962
 H    0.2584397100   -0.0652078020   -2.1465352875
 H    2.4838967050   -0.4126388482   -0.4707248053
 H    1.0977136018   -2.4535018911   -0.4525718858
 H   -0.8484959145   -3.6373864184   -1.5612408952
 H   -1.3734787063   -2.3650846086   -0.4578355169
 H   -1.3950836118   -2.0872765705   -2.2063523603
 H    2.4065636561   -2.1415226024   -2.5879889248
 H    1.4294821043   -3.6264275372   -2.6060565909
 H    0.8976267545   -2.1996899107   -3.5056328783