23

 C    2.5451849723    0.8602794493   -0.0228951141
 C    1.1262546057    0.5445046146    0.4688976105
 C    0.3728974785   -0.3056725376   -0.5640953730
 C    1.1825281593   -0.1127275056    1.8617928449
 C   -0.1604308122   -0.2910352265    2.5444008505
 O   -0.8918544256    0.8954967775    2.7372439213
 C   -0.9715641505   -1.5676170304    2.3700600598
 C   -0.2941042982   -1.2442917215    3.6878828466
 O    0.8468916935   -1.9503273361    4.0779012395
 H    3.1303879151   -0.0595217233   -0.1420844691
 H    2.5249172695    1.3685726592   -0.9927036412
 H    3.0786061857    1.5037826323    0.6842220756
 H    0.5965058690    1.5022728597    0.5762986597
 H    0.8625992291   -1.2776683675   -0.6997637830
 H   -0.6617472234   -0.4989304767   -0.2655236716
 H    0.3519226586    0.1923204138   -1.5393514838
 H    1.6819430422   -1.0851015469    1.7975131448
 H    1.8044343819    0.5113048175    2.5161411347
 H   -1.2682302950    1.1511643661    1.8883141989
 H   -2.0518596880   -1.4811756889    2.3231917955
 H   -0.5377801819   -2.3620983022    1.7720941269
 H   -0.9383223547   -0.9066194145    4.4987971928
 H    0.5736624090   -2.8394288523    4.3261813138