19

 C    0.0507908918    1.4601963437   -0.1901965077
 C    0.2118550615   -0.0370314729   -0.0506030190
 C    1.5928326614   -0.6651405829   -0.0065007967
 C    0.7444658478   -0.6318194756    1.2301495953
 O    1.1905180846    0.2179439104    2.2558462478
 C    0.1469302968   -1.9332652776    1.7812590746
 O   -0.4396736276   -2.7187839065    0.7840280383
 C    1.2419685630   -2.7191278781    2.4825517633
 O    1.4865452226   -3.8611098244    2.1710798047
 H    0.8056081367    1.9929659482    0.3945274110
 H    0.1555640093    1.7667980581   -1.2360564683
 H   -0.9377428945    1.7901657863    0.1505000788
 H   -0.5440796345   -0.6403738306   -0.5427954650
 H    1.7331041367   -1.6204390805   -0.4995974506
 H    2.4508316725   -0.0017766019   -0.0169763074
 H    0.4222928634    0.6666473745    2.6283859320
 H   -0.5995600185   -1.6554993328    2.5498194660
 H    0.0117776908   -3.5779141261    0.8373601149
 H    1.8072660162   -2.1843551912    3.2666606980