21

 C    0.0177814991    1.5154189119    0.0862364787
 C    0.0005385948   -0.0004010102   -0.0526789735
 O    0.7995641506   -0.6381305886    0.9563435207
 C   -1.4152338127   -0.5829152227   -0.0256677218
 O   -2.1507850108   -0.0443703120   -1.1163055107
 C   -3.1722523045   -0.9814640450   -1.4332611539
 C   -2.5099034741   -2.3540291097   -1.2865552396
 C   -1.4775160263   -2.1418221764   -0.1619332834
 O   -0.2559569048   -2.7446430300   -0.5389837138
 H    1.0432618957    1.8920150611    0.0409911835
 H   -0.5690485348    1.9729839258   -0.7137347736
 H   -0.4224482489    1.8241570874    1.0433496267
 H    0.4625620856   -0.2969601506   -0.9980901173
 H    0.4790879941   -0.3457762938    1.8172968004
 H   -1.9026668765   -0.2905284244    0.9245883685
 H   -4.0222790205   -0.8719185057   -0.7390400468
 H   -3.5263591665   -0.7637693149   -2.4439001211
 H   -3.2217953391   -3.1539007997   -1.0723333475
 H   -1.9564087667   -2.6132123972   -2.1928574972
 H   -1.8345161418   -2.5697880410    0.7861113496
 H    0.4000746783   -2.4575762744    0.1119766921