18

 C   -0.2224343083    1.5267316651    0.1806161082
 C    0.0141264454    0.0276706725    0.0720046690
 C    1.1498701886   -0.5602803442   -0.8286656655
 C    2.1799189797   -0.1114052312    0.2476766619
 C    0.9894350317   -0.7299807501    1.0421353809
 C    1.0270372630   -1.8922487550    0.0096005719
 C   -0.1351531689   -2.8201652205   -0.1953912837
 O   -1.1585909878   -2.8300988807    0.4444589066
 H    0.6876797510    2.1143020877    0.3220620545
 H   -0.7172372108    1.8973204411   -0.7241513807
 H   -0.8882795458    1.7407986343    1.0237412576
 H   -0.9462744499   -0.4764969540   -0.0447738339
 H    1.2493100751   -0.4908955714   -1.9135467312
 H    3.1236036565   -0.6629584418    0.2761888160
 H    2.3550130196    0.9583807933    0.3550656720
 H    0.8945845380   -0.8345807988    2.1233031472
 H    1.9502545047   -2.4860110033   -0.0067653441
 H    0.0247711782   -3.5599832932   -1.0159233266