23

 C   -0.3098106401    1.5088615098    0.0378723448
 C   -0.0008043122    0.0272802634    0.0939237729
 C    1.2957306096   -0.6395952310   -0.3163876108
 C    2.5853664472    0.1633929584   -0.4244336154
 C    2.7627520463    0.8924422499    0.9337705442
 C    1.8379047505    0.1688804464    1.9487696595
 C    0.8511084500   -0.6682051170    1.1359604270
 C    0.3259844270   -1.9223019983    1.7767311600
 O   -0.4893512117   -1.5533379623    2.8856883751
 H    0.5133322321    2.1399163519    0.3757614612
 H   -0.5592025943    1.8130502153   -0.9851988226
 H   -1.1752229320    1.7378478050    0.6694075341
 H   -0.8685329386   -0.5697598650   -0.1831402171
 H    1.2156342139   -1.5306193400   -0.9328415826
 H    3.4151327793   -0.5305871666   -0.6009589629
 H    2.5822420233    0.8650410957   -1.2662666926
 H    3.8060228777    0.8787116583    1.2624078987
 H    2.4909323471    1.9470105709    0.8431307374
 H    2.4196188573   -0.5085766575    2.5851320701
 H    1.3382516196    0.8711171922    2.6231651684
 H   -0.2493985511   -2.5054953976    1.0393973328
 H    1.1693652195   -2.5520136028    2.1076959456
 H   -0.7378545504   -2.3562127790    3.3535088622