21

 O   -0.0868597132    1.4019508027   -0.1848119584
 C   -0.0096941569   -0.0056630249    0.0085559212
 C   -1.4109088613   -0.5548334965    0.0099126645
 C   -2.3048184150   -0.5388092251   -1.2689397728
 C   -3.0740637130   -1.6343468596   -0.4960710397
 O   -3.9174035600   -2.4812939926   -1.2121806211
 C   -1.6838263958   -2.0857130508    0.0646738983
 C   -3.6615735343   -0.8464675524    0.6932072590
 C   -2.3945770979   -0.0231061332    1.0811493431
 H    0.8068153662    1.7564221057   -0.1762151637
 H    0.5772537361   -0.4846858597   -0.7916122665
 H    0.4821819614   -0.2482168303    0.9661489358
 H   -2.8329879060    0.3838304410   -1.5221808022
 H   -1.7884138032   -0.9399898486   -2.1441406462
 H   -4.4102704880   -3.0202776875   -0.5841374691
 H   -1.1125347757   -2.6474702693   -0.6782406787
 H   -1.6452982255   -2.5827475254    1.0398274046
 H   -4.5057722409   -0.2228467163    0.3851837727
 H   -4.0033720776   -1.5091820640    1.4965746052
 H   -2.0443487986   -0.2362027900    2.0963787018
 H   -2.5402635008    1.0552380665    0.9930543020