19

 C   -0.1511201381    1.5984863329    0.0620107390
 C    0.0075832348    0.0723933684   -0.0246634023
 C    0.7458924629   -0.4472255123   -1.2307256067
 C    1.7874598147   -1.2235400217   -0.9195310324
 C    2.7176303521   -1.8952714130   -1.8764962093
 O    2.3477287395   -1.5830207144   -3.2056457191
 C    1.9522724747   -1.3831158743    0.5706485586
 C    0.8425955666   -0.4868673937    1.1439120163
 O    0.6676903163   -0.2420473808    2.3087692654
 H    0.8170409847    2.0989362494   -0.0395492315
 H   -0.8078583453    1.9678730417   -0.7310360107
 H   -0.5802549373    1.8735275308    1.0291793154
 H   -0.9957634317   -0.3756924959    0.0480578330
 H    0.4551773857   -0.2108920728   -2.2465304595
 H    3.7522496268   -1.5737700224   -1.6583389326
 H    2.6945350325   -2.9853392847   -1.6959207429
 H    2.9580233315   -2.0282358607   -3.7997164598
 H    1.8124442513   -2.4160897018    0.9191639047
 H    2.9315934884   -1.0655326247    0.9521066143