20

 C    0.0115958353    1.5824038172   -0.0581264720
 C    0.0685021328    0.0543131264    0.0218274138
 C    0.6083469919   -0.5164238280   -1.2960829347
 C    0.9229916409   -1.9780059225   -1.1919641028
 C    1.2220071730   -2.5207656255   -0.0134245802
 C    1.2996108196   -1.7264171629    1.2373560582
 O    1.7470725127   -2.2227531788    2.2616916807
 N    0.8776045942   -0.4101083481    1.1626462167
 C    0.7625406338    0.3110241871    2.4235673720
 H    1.0182762340    2.0063620173   -0.1357342828
 H   -0.5508477138    1.8747428211   -0.9500091103
 H   -0.4860606262    2.0270290051    0.8058853270
 H   -0.9636120135   -0.3170452713    0.1514678462
 H   -0.1291303262   -0.3330933485   -2.0850928677
 H    1.5157906851    0.0315014316   -1.5937248747
 H    0.9370802840   -2.5724088572   -2.1017965302
 H    1.4844600589   -3.5649477465    0.1086430653
 H    1.2953523936   -0.2647454685    3.1781405137
 H    1.2014202226    1.3095498419    2.3507196469
 H   -0.2873491031    0.4143047801    2.7329257749