21

 C    0.0227851757    1.6002044433   -0.1626266318
 C    0.0044573686    0.0986584056   -0.0029300601
 O   -1.1490494698   -0.5281692459   -0.5115523726
 C    1.2900527072   -0.7073524591   -0.0768293798
 O    2.5334423765   -0.0634415468   -0.1246319483
 C    0.5331754330   -0.5929229916    1.2298995885
 C    1.1197668768    0.1363983299    2.4201445082
 C    2.0184251650   -0.7787439994    3.2593559861
 O    2.5293466291   -0.1334150407    4.4156872219
 H    0.9668107519    2.0297822901    0.1774251287
 H   -0.1028313584    1.8707640901   -1.2195567573
 H   -0.7974096110    2.0614064952    0.3961948330
 H   -1.1755471992   -0.3733267387   -1.4630220041
 H    1.2361521612   -1.6611581341   -0.6020329480
 H    2.6773677775    0.2510080646   -1.0232265337
 H   -0.0372469703   -1.4831171706    1.4837500861
 H    1.7144187057    0.9925190143    2.0853619173
 H    0.3193854387    0.5268955366    3.0596731398
 H    1.4418654918   -1.6340809242    3.6293204896
 H    2.8269202313   -1.1774708324    2.6282416013
 H    3.1100417987    0.5746677539    4.1195288352