18

 C   -0.2627484904    1.0288184831   -1.8082852438
 C   -0.0638361043   -0.1530707311   -0.8835473679
 C    1.3232599488   -0.6363500782   -0.4126990314
 C    2.5720763287    0.0706269908   -0.7513518016
 O    3.6468313279   -0.4742476918   -0.8607050882
 C    0.2728173805   -0.0443835725    0.5585376667
 C    0.5041711242    1.2728888860    1.2635852625
 O   -0.3884141501   -0.9919629431    1.3496245059
 H    0.3605951043    1.8878353467   -1.5505440282
 H   -0.0322311217    0.7535442701   -2.8424041490
 H   -1.3060498354    1.3599160192   -1.7755975365
 H   -0.7241995797   -0.9896835226   -1.0941065542
 H    1.4445506327   -1.7114739840   -0.3345177803
 H    2.4829762255    1.1692174990   -0.9039877748
 H    0.9823863899    2.0172785239    0.6242846045
 H   -0.4522239663    1.6766037317    1.6104364791
 H    1.1493032024    1.1312264932    2.1388595537
 H    0.1562005729   -1.1673007606    2.1258735535