23

 C   -0.0580965069    1.5328965979   -0.3271000664
 C   -0.0033008592    0.0530826122    0.0601903351
 C   -1.3746804771   -0.6283625387    0.0178515507
 C   -1.3447886815   -2.0918328710    0.4714858760
 O   -0.8737301269   -2.2390945373    1.8102161318
 C   -2.7126293314   -2.7339045819    0.3352611380
 O   -3.1988930561   -2.9719450913   -0.9884845634
 C   -2.9628864238   -4.1044375516   -0.1363892338
 C   -1.9016473551   -5.0874287046   -0.5567388114
 H    0.9353896821    1.9907170341   -0.2916926539
 H   -0.4499268866    1.6649526182   -1.3418460154
 H   -0.7079841261    2.0969043085    0.3516546694
 H    0.6806017202   -0.4787248360   -0.6143623191
 H    0.4176691523   -0.0573353679    1.0656662954
 H   -2.0846955234   -0.0767668447    0.6546556725
 H   -1.7877829562   -0.5943450971   -0.9977821744
 H   -0.6225120162   -2.6381716807   -0.1428462458
 H   -1.4262191138   -1.6891100346    2.3773748015
 H   -3.4593619879   -2.2962141388    1.0071394276
 H   -3.8856667288   -4.5698480589    0.2175711367
 H   -1.0049313125   -4.5877395268   -0.9275727202
 H   -1.6214841892   -5.7261277082    0.2875661628
 H   -2.2827007358   -5.7324850008   -1.3552957236