16

 C   -0.1184175796    1.5155115944    0.0243168473
 C   -0.0149987606    0.0004435395    0.0201318368
 C    1.2513830004   -0.6105151925   -0.6883963648
 O    2.0202319805   -0.2629678283    0.5084438034
 C    0.7964751660   -0.6477451056    1.1962845024
 C    0.7044795857   -2.1506074595    0.8240976332
 C    1.0222631366   -2.1115002718   -0.4804008593
 C    0.3465139444   -3.2176576492    1.6699293809
 N    0.0447119263   -4.0686583324    2.3973100338
 H    0.8447768105    1.9728318173    0.2606627694
 H   -0.4490740224    1.8815930782   -0.9534039285
 H   -0.8540555675    1.8479962100    0.7642889687
 H   -0.9689060146   -0.4775380842   -0.2173739349
 H    1.6673812603   -0.2436082797   -1.6249653859
 H    0.7314832543   -0.3468575089    2.2402447557
 H    1.0797948297   -2.9064015273   -1.2083953481