21

 C   -0.1465260691    1.5538263011    0.0364004103
 C    0.0064725835    0.0309426417   -0.0035576019
 C    0.7702976277   -0.4691485374   -1.2670390945
 C    1.9641436258   -1.3593062905   -0.8276612028
 C    2.8730072367   -0.4730873335    0.0524205239
 O    2.1345708075    0.0280085485    1.1646211441
 C    0.7919950951   -0.5027475269    1.2228482619
 C    0.8326284180   -2.0096466370    1.1559567157
 C    1.4478251515   -2.4634296206    0.0627848471
 H    0.8336169917    2.0366423367    0.0930433369
 H   -0.6611862632    1.9215230172   -0.8573800917
 H   -0.7266211215    1.8703700753    0.9104052594
 H   -0.9907951309   -0.4225359152    0.0229257739
 H    0.1086622043   -1.0290486412   -1.9333149504
 H    1.1555909248    0.3842100442   -1.8370043947
 H    2.5209543187   -1.7298378915   -1.6914597347
 H    3.7365637663   -1.0446613303    0.4189831667
 H    3.2477833859    0.3811179058   -0.5292862313
 H    0.3759588614   -0.1248749550    2.1591227770
 H    0.4041210316   -2.6301540243    1.9347457819
 H    1.6032431540   -3.5112619670   -0.1698049267