15

 C   -0.0428419595    1.5381105763    0.0633886493
 C    0.0190511043    0.0027300268   -0.0345720305
 C    0.7018468503   -0.4656222664   -1.2327557368
 C    1.2697730299   -0.8331841348   -2.2300542148
 C    1.9305879535   -1.2967092376   -3.3885347020
 N    2.4507389061   -0.4993018985   -4.3274633189
 N    2.9398546785   -1.3922191107   -5.1715862506
 N    2.7572693961   -2.6583818482   -4.8194712725
 N    2.1158939908   -2.6211514498   -3.6862896790
 H    0.9621578367    1.9675371888    0.0822165857
 H   -0.5756733358    1.9613005882   -0.7920486324
 H   -0.5637316883    1.8362977770    0.9775301513
 H    0.5265396160   -0.4062135220    0.8484836857
 H   -0.9968424931   -0.4123125447   -0.0172229569
 H    3.4174565544   -1.1328862941   -6.0221598775