20

 C   -0.0188669073    1.3891608739   -0.3688728467
 O   -0.0383020514    0.1757000065    0.3562841363
 C   -1.2401662768   -0.5212034553    0.2410102473
 C   -1.5183050713   -1.4924233302   -0.9592598376
 C   -0.4117573473   -2.4210894184   -0.4085950934
 C   -1.2717269001   -1.9635779570    0.8048447353
 C   -1.2502272567   -2.4753326727    2.2176308922
 O   -1.4611596428   -3.8747701885    2.2466771030
 N   -2.4923561026   -2.2442680602   -0.0714338521
 H    0.9425692199    1.8682728340   -0.1721389386
 H   -0.1194705738    1.2221881089   -1.4509847632
 H   -0.8259174721    2.0642876432   -0.0460154910
 H   -2.0999933716    0.1101096855    0.5210680184
 H   -1.7618309118   -1.2617095409   -1.9968263406
 H   -0.5079794169   -3.4729986867   -0.6759123779
 H    0.6104221504   -2.0494644854   -0.4445853091
 H   -0.2758158054   -2.2799216635    2.6779601543
 H   -2.0095611510   -1.9373978860    2.8120063743
 H   -2.1495090056   -4.0577232776    1.5947669827
 H   -3.2586931658   -1.6174510596    0.2038250762