15

 C   -0.0957378755    1.5316709932    0.0290904697
 C    0.0760368176    0.0025895650    0.0152771863
 C    0.7381329099   -0.4472721997   -1.2213660535
 N    1.2488394251   -0.7769824397   -2.2035073116
 N    0.7669364650   -0.5075272038    1.2092736172
 C    2.1435617661   -0.2391190446    1.3562076970
 O    2.8141052833   -0.5191833362    2.3063171031
 C    0.0107503420   -1.2275535001    2.1532967377
 O    0.4075628388   -1.6638779615    3.1928552561
 H    0.8728594887    2.0370543496    0.0211883143
 H   -0.6600856237    1.8554475059   -0.8488380443
 H   -0.6381403493    1.8262827145    0.9306821328
 H   -0.9184693735   -0.4568786068    0.0190819485
 H    2.5420265325    0.2670858535    0.4569001936
 H   -1.0345154770   -1.3473286593    1.8014413530