14

 C    0.0786208270    1.3632681474    0.0861242307
 N   -0.0735655735   -0.0725126175   -0.0816157815
 C   -1.2892953726   -0.6506766113   -0.0273440168
 N   -2.4601360558   -0.0600077183   -0.0277616185
 C   -3.3523184250   -1.1062848129   -0.0138357342
 C   -2.6886567757   -2.2947521810    0.0030751756
 O   -1.3260735025   -1.9990387157   -0.0044919822
 C   -3.0881048770   -3.6386903086    0.0291556893
 N   -3.4377330800   -4.7447024665    0.0509754400
 H    1.0657954871    1.6568862570   -0.2755139702
 H   -0.6831589144    1.8723190179   -0.5064248090
 H   -0.0303235296    1.6785582001    1.1313976647
 H    0.7102991822   -0.6712597929    0.1212132390
 H   -4.4194681702   -0.9485264877   -0.0124027670