15

 O    0.1245631370    1.4545601084    0.1024399826
 C    0.1027780362    0.0314826527    0.0152938148
 C    0.6953930028   -0.4507086110   -1.2350665524
 C    1.1718456265   -0.8276937338   -2.2724748180
 C    0.8691612663   -0.4583527530    1.2503641148
 C    2.2490768718    0.1785236486    1.3923854333
 O    2.8997196241    0.0891068363    2.4018382800
 C    0.0479822748   -0.2837614990    2.5328016127
 O   -1.1517802473   -0.2205618974    2.5444154685
 H   -0.3169619636    1.8124102843   -0.6746436452
 H   -0.9274269967   -0.3417413333    0.1002630403
 H    1.5895980163   -1.1646403521   -3.1894969099
 H    1.0457944833   -1.5408425348    1.1643515410
 H    2.6158936933    0.7242694368    0.5020474386
 H    0.6578698151   -0.2436645227    3.4558824390