16

 N   -0.0654508972    1.3224094056   -0.1146094791
 C   -0.0130858843   -0.0417710389   -0.0489742588
 N   -1.1851782109   -0.6923710505   -0.0313915078
 C   -1.1218691030   -2.0250022104   -0.0206169643
 C   -2.4557910984   -2.7298821477   -0.0058458614
 O   -2.2616653549   -4.1294863576    0.0426809501
 C    0.0876366598   -2.7135190063   -0.0222795526
 C    1.2341865752   -1.9262330491   -0.0254376280
 N    1.2126301131   -0.5964978400   -0.0373613897
 H    0.7800939862    1.8153711651    0.1182867837
 H   -0.9424125043    1.7531791589    0.1249002804
 H   -3.0259478612   -2.3607667330    0.8609477413
 H   -3.0124000370   -2.4213379803   -0.9046703700
 H   -3.1237315363   -4.5529622085    0.0224248976
 H    0.1210477123   -3.7926693768   -0.0111806755
 H    2.2207827208   -2.3862503308   -0.0150888458