16

 C    0.0063521369    1.5067470004   -0.0632955767
 C    0.0389169210    0.0528219985   -0.0165049158
 C    0.0557554281   -1.1516186923    0.0196043537
 C    0.0998479849   -2.6063528491    0.0365514819
 N    1.0551054121   -3.2259311382   -0.8833707026
 C    0.0683425826   -3.2676451642    1.4421634095
 O   -1.2432071180   -3.8544157202    1.1540013622
 C   -1.2811682882   -3.3112885469   -0.0937862011
 O   -2.1143097206   -3.4231668913   -0.9312429168
 H    0.7620167463    1.8981648242   -0.7529254598
 H   -0.9713443804    1.8666986960   -0.4012203786
 H    0.1988843879    1.9402673477    0.9239715978
 H    0.6951810803   -3.1308051232   -1.8299384750
 H    1.9294841224   -2.7077507673   -0.8588285241
 H    0.8176303352   -4.0466179506    1.5854079750
 H    0.0080906597   -2.5877886534    2.2921695701