18

 C    0.3323168018    0.7041606882   -1.0519001678
 C   -0.1081113212    0.1494096736    0.2905097343
 O    0.4253169442    0.4723582846    1.3211086761
 C   -1.3165649740   -0.8333964076    0.2876118884
 C   -1.4686258578   -1.5130594485    1.6439287625
 O   -2.5157855995   -0.0779204792    0.0637863605
 C   -1.1024898114   -1.9112722664   -0.7927331467
 N   -2.2094535294   -2.2076576336   -1.5205327188
 O   -0.0143922340   -2.4362467049   -0.9467773959
 H    0.8890303837    1.6297487367   -0.9029233579
 H    0.9813142073   -0.0419210881   -1.5217989423
 H   -0.5010287554    0.8748278161   -1.7424848697
 H   -1.5009677837   -0.7572739752    2.4294572837
 H   -2.3906183096   -2.1002173666    1.6624338730
 H   -0.6179460587   -2.1724630233    1.8239058061
 H   -2.3853155153    0.4934375336   -0.7017786494
 H   -3.0939681513   -1.8037877168   -1.2602206460
 H   -2.1748370558   -2.9847347025   -2.1598420902