18

 O   -0.7058488242    1.8303502235    1.5887465640
 C   -0.3390322676    1.9047673449    0.4466124359
 C    1.1064122663    1.8021252383   -0.0078590322
 C    1.4250694208    2.8623780009   -1.0627939399
 C    2.4277151743    3.9810285950   -1.0240873113
 C    3.8747751438    3.5377793524   -0.7282408436
 C    4.1208269623    2.0852852358   -0.5770303958
 N    3.9180903588    2.6327578800   -1.9308697028
 C    2.4625610780    2.9769825054   -2.1630493401
 H   -1.0714453419    2.0493131890   -0.3840483053
 H    1.7336866457    1.8711771090    0.8821161397
 H    1.2235327510    0.7924390562   -0.4292731209
 H    0.5004966223    3.2498033497   -1.4985014791
 H    2.1502941174    5.0271151935   -1.0404499282
 H    4.6623905096    4.2674368217   -0.5704159654
 H    5.1572818084    1.7973042592   -0.4191502262
 H    3.4068558374    1.4032950665   -0.1422302783
 H    2.1670040474    3.0815669091   -3.1998573704