19

 C    0.0082890490    1.4948040141   -0.1057747367
 O    1.3558337052    1.5499133482    0.4187501128
 C    1.4437306773    0.1060508373    0.4809668184
 C    0.0394521489   -0.0127604992   -0.0644719444
 C   -0.8001742596   -0.9977194606   -0.3729550280
 C   -2.2125219677   -0.8317512707   -0.9270701261
 C   -2.7501513570   -2.2803377523   -1.1088127196
 C   -1.6081042520   -3.1507447873   -0.6465150929
 C   -0.5508011230   -2.4304827345   -0.2480129620
 H   -0.7152760872    1.9888163048    0.5600664028
 H   -0.0671228404    1.9566878455   -1.1017241299
 H    2.2520494869   -0.2843586390   -0.1543635529
 H    1.6034952221   -0.2521876299    1.5083832218
 H   -2.8392045823   -0.2526828664   -0.2408860929
 H   -2.2017010506   -0.2842363444   -1.8752318301
 H   -3.6578579739   -2.4616728117   -0.5195774498
 H   -3.0216943567   -2.4931681668   -2.1504369334
 H   -1.6621017304   -4.2333918124   -0.6466662637
 H    0.3824104713   -2.8373815648    0.1238603867