17

 O    0.0106532554    1.4351398284    0.4115442565
 C   -0.0021795647    0.0651987885    0.1374399647
 C    0.6823414210   -0.2187818248   -1.1836751851
 O    1.1534036610    0.6703823541   -1.8502654165
 C    0.6779783599   -0.7467620262    1.2669927756
 O    2.0417635474   -0.3838979489    1.3353386655
 C    2.3130987374    0.1053757640    2.6470887072
 C    0.9255621195    0.4591209160    3.1822675863
 O    0.0927222895   -0.4920182736    2.5176707270
 H    0.5310310157    1.8347963543   -0.3041499728
 H   -1.0384327697   -0.3089303539    0.0655196543
 H    0.7290117806   -1.2783569660   -1.5055804269
 H    0.5714696350   -1.8238032504    1.0618871296
 H    2.7943207711   -0.6759133949    3.2506524210
 H    2.9836171640    0.9651253189    2.5698974240
 H    0.8192679526    0.3073435282    4.2586715536
 H    0.6352612042    1.4793787964    2.9133772260