15

 C   -0.0011778540    1.4115795483    0.0255220455
 N   -0.0276004287   -0.0324210335    0.0392043155
 N    0.0167459185   -0.7496910848   -1.1296493577
 C    0.0568443491   -2.0370937326   -0.7879369796
 C    0.0488823507   -2.1940965912    0.6202870819
 C    0.0021526145   -0.8919517123    1.0719440442
 O   -0.0203615693   -0.7680244070    2.4091100104
 C    0.0121915659   -2.0920577699    2.8542151568
 C    0.0533946191   -2.9820636846    1.8294963665
 H    1.0205853805    1.7972094068    0.1143643208
 H   -0.4280675202    1.7451312219   -0.9204026510
 H   -0.6004126840    1.7972367446    0.8540478590
 H    0.0831563627   -2.7827227374   -1.5684077739
 H    0.0014492314   -2.1995377381    3.9257132518
 H    0.0835380039   -4.0547955301    1.9393140397