16

 C   -0.4307847462    1.3420757724   -0.0772996841
 O   -0.2495591132   -0.0632530777   -0.2980151099
 C    0.6154977979   -0.3855766912   -1.2786763986
 O    1.1897073074    0.4053951860   -1.9758258144
 C    0.7666693126   -1.8963617610   -1.3234974707
 N    1.6321034948   -2.4343526740   -2.3853649279
 C    2.4464699366   -3.2497338847   -1.4503795570
 C    1.7478707025   -2.5288910947   -0.2896538164
 O    1.8887229705   -2.4599738506    0.8889865319
 H   -0.8269480556    1.8235179369   -0.9749268706
 H   -1.1398161340    1.4239027493    0.7461791361
 H    0.5184994605    1.8148293239    0.1862564707
 H   -0.2270514186   -2.3539542381   -1.2176614019
 H    1.1474745816   -2.9572048330   -3.1031112031
 H    2.2407874807   -4.3296232185   -1.4400828057
 H    3.5282078724   -3.0975885151   -1.5336344882