21

 C   -0.0315579460    1.5403078492   -0.0232121429
 C    0.0412758537    0.0136125795   -0.0144258534
 O   -1.2800765078   -0.5425630442    0.0687327125
 C    0.7910990473   -0.5893806534   -1.2260322802
 C    1.2950027250   -1.9730667200   -0.7499898677
 O    2.4858273431   -2.4044930527   -1.3971915521
 C    1.5307557840   -1.8004201868    0.7376722191
 C    2.2805660785   -0.5666610301    1.1732511628
 C    0.7742616609   -0.5729916599    1.1870780875
 H    0.9676884192    1.9850583447   -0.0033768898
 H   -0.5411499441    1.9043441078   -0.9242349184
 H   -0.5882458307    1.8958777522    0.8490353325
 H   -1.8017831688   -0.1593407488   -0.6446299663
 H    0.1374458491   -0.6524495698   -2.1020309003
 H    1.6543220273    0.0229615551   -1.5056885942
 H    0.4983639798   -2.7187451838   -0.8861405036
 H    2.2673982586   -2.6125100147   -2.3109968831
 H    1.5875852835   -2.6905973430    1.3527227479
 H    2.7744174357   -0.6118527588    2.1374244358
 H    2.8168568139    0.0194435416    0.4350972209
 H    0.2499144977   -0.5405705439    2.1352466228