22

 C   -0.0379224271    1.5356775426   -0.0274443479
 C    0.0046621295    0.0071746947    0.0199656651
 C   -1.4309239286   -0.5515569425    0.0241409735
 O    0.7003155746   -0.3862086225   -1.1711750784
 C    1.0349830606   -1.7629046595   -1.2096616484
 C    2.0861518335   -2.1015441454   -0.1564351412
 N    1.7586560253   -1.5634820554    1.1764878891
 C    2.2031590976   -0.1956591505    1.4447387031
 C    0.7598327950   -0.4807697233    1.2589592010
 H    0.9720013030    1.9439744306   -0.1064282844
 H   -0.6141323299    1.8699308741   -0.8956596223
 H   -0.5069579664    1.9370238425    0.8759675476
 H   -1.9326862530   -0.2915005794   -0.9119733366
 H   -1.4556724901   -1.6381901064    0.1425411116
 H   -2.0006971440   -0.1208641975    0.8531452051
 H    0.1418520305   -2.3880798188   -1.0722948805
 H    1.4214079280   -1.9601967433   -2.2142181083
 H    2.1795202285   -3.1914158438   -0.0728865943
 H    3.0620227286   -1.7166203350   -0.4742741885
 H    2.6107243497   -0.0148233170    2.4365538869
 H    2.7113773673    0.3306299370    0.6384848536
 H    0.1333519374   -0.5502586113    2.1473473043