21

 C   -0.1447090878    1.6114683143   -0.2393975166
 C    0.0146856453    0.1744095748    0.2514827564
 N   -1.2620849548   -0.5281637118    0.1675545492
 C   -1.5470166259   -1.2757966769   -1.0539540296
 C   -1.2963729119   -1.9914910680    0.2306403983
 C   -0.0767567556   -2.8365864343    0.4293938329
 C    0.2543725240   -3.3585842942    1.8092392947
 C   -0.2462053864   -4.3032548199    0.7483519072
 H    0.7968774890    2.1613338459   -0.1435650474
 H   -0.4433931564    1.6323443996   -1.2927798760
 H   -0.9144906713    2.1304218467    0.3384622715
 H    0.8159240118   -0.3203948353   -0.3226594555
 H    0.3286185986    0.1699800648    1.3020705253
 H   -2.5507240147   -1.1778125038   -1.4603564730
 H   -0.7597199168   -1.3367065214   -1.8065048905
 H   -2.1632140005   -2.3627401679    0.7795559278
 H    0.7706113574   -2.5903220861   -0.2017480203
 H    1.2971175651   -3.4132262224    2.1015534953
 H   -0.4216080561   -3.1025623919    2.6185367785
 H   -1.2577989681   -4.6841763413    0.8443988680
 H    0.4517063449   -5.0065958709    0.3082865238