21

 C    0.0271661115    1.4880719663    0.1282191253
 C    0.0466664068   -0.0423229784    0.2357515648
 C   -1.3465343688   -0.6413916239    0.0986552998
 C   -2.0788635427   -0.7687589123   -1.2798523945
 C   -1.1478191483   -1.9671849277   -1.6339295974
 C   -1.5659262624   -2.1854612002   -0.1545235726
 C   -3.0197825914   -1.7975396185   -0.5889094483
 C   -1.1767227451   -3.2952691943    0.7561155496
 O   -0.4015159896   -4.1752854529    0.4717035649
 H    1.0286949185    1.9058074790    0.2677827767
 H   -0.3361561753    1.8127616942   -0.8525760412
 H   -0.6276872774    1.9312343646    0.8866290072
 H    0.7335728619   -0.4509955039   -0.5113913203
 H    0.4559164998   -0.3316359143    1.2124174862
 H   -1.9954803683   -0.2434668893    0.8890608408
 H   -2.3816210763    0.0445284232   -1.9405053280
 H   -1.5445432446   -2.6908787785   -2.3496595969
 H   -0.0976631194   -1.7599528036   -1.8357323432
 H   -3.6831218470   -1.4163375683    0.1919626694
 H   -3.5259979618   -2.5149085616   -1.2393654400
 H   -1.6608608503   -3.2585219894    1.7609660277