15

 C    0.0086843366    1.5060061260    0.0100536580
 O    1.4039684001    1.8834788949   -0.0012620269
 C    2.1213772525    0.7422035555   -0.0141993196
 N    3.3808344356    0.5739940018   -0.0271680121
 C    3.5866045640   -0.8892740828   -0.0369803543
 C    2.1773019087   -1.6082735340   -0.0274534948
 C    1.2536941334   -0.4305488300   -0.0122432282
 C   -0.0102711613   -0.0104966854    0.0021284840
 H   -0.4600262066    1.9380245518    0.9038989829
 H   -0.4769938614    1.9475134015   -0.8699908839
 H    4.1688616622   -1.1672662451   -0.9226305782
 H    4.1855340770   -1.1766818916    0.8344335579
 H    2.0338519440   -2.2401719649   -0.9092125723
 H    2.0506199623   -2.2497868079    0.8499176846
 H   -0.9306414572   -0.5791239398    0.0078840029