21

 C   -0.1779223870    1.5033404656   -0.1448319665
 C   -0.0323900122   -0.0174042017   -0.1204082208
 C    0.8347096204   -0.5430352950   -1.2673426056
 O    2.1589089932   -0.0535264227   -1.1894488197
 O    0.6394276057   -0.4528265944    1.0701049130
 C   -0.1477654050   -0.5808929536    2.2395153545
 C   -0.8338692020   -1.9397569121    2.3578889306
 C    0.7844138581   -0.2991570091    3.4158068237
 O    0.6163441928   -0.7154345066    4.5309085936
 H    0.8101359144    1.9671665538   -0.1902208638
 H   -0.7497075977    1.8157315131   -1.0245606696
 H   -0.7034642879    1.8731506241    0.7405189834
 H   -1.0205147410   -0.4964707233   -0.1842378968
 H    0.8120544437   -1.6433232858   -1.2503796181
 H    0.4265029344   -0.2096222310   -2.2270073799
 H    2.4715358025   -0.2788700176   -0.3053420360
 H   -0.9074142118    0.2201238057    2.2753425146
 H   -1.3185249820   -2.0211050355    3.3336667317
 H   -1.5871893875   -2.0712642641    1.5768288013
 H   -0.0946736770   -2.7406233865    2.2700423269
 H    1.6445750359    0.3519126166    3.1440972936