19

 C   -0.2405123706    1.5772491402    0.0015738511
 C    0.0364214732    0.0661612577   -0.0445368416
 C    0.9216667531   -0.4063177256   -1.1819171049
 C    1.8860654806   -1.2362199401   -0.7656674203
 C    1.8849042026   -1.3876968667    0.7174005667
 C    2.1629603585   -0.0981420642    1.4839107663
 O    2.8108421368    1.0009455385    0.9206384784
 C    0.7382380918   -0.4975137505    1.1999610105
 O   -0.0679448181   -0.9312128723    2.2557586074
 H    0.6838300199    2.1456095298    0.1263302398
 H   -0.7401492777    1.9133358118   -0.9128832556
 H   -0.9009570690    1.8169935701    0.8420759009
 H   -0.9323555954   -0.4510212918   -0.1216823992
 H    0.7440318678   -0.1163756396   -2.2121409822
 H    2.6105835605   -1.7278049960   -1.4054327799
 H    2.1239024457   -2.3349307511    1.1873432890
 H    2.4725677845   -0.2408899957    2.5153051215
 H    2.7933991355    0.8814635726   -0.0385978354
 H   -0.2419599495   -0.1755897071    2.8278656874