14

 O   -0.5229738475    0.6501397490    0.6705374332
 C    0.2216213423    0.9333061591   -0.2378245442
 C    1.3533802839    1.8668003517   -0.1100431631
 C    1.7812613283    2.6322187672    1.1472114050
 C    2.0955484934    3.8795842052    0.2576042125
 C    1.6650776096    3.0848509784   -0.9843629517
 N    2.3946138454    1.8506526557   -1.1391245433
 H    0.0983090020    0.5171852164   -1.2612077253
 H    0.9464352429    2.7978435932    1.8292825492
 H    2.6117460201    2.1890801500    1.7049146845
 H    1.4370525778    4.7225440529    0.4757732745
 H    3.1300094759    4.2375293551    0.2407910881
 H    1.1155960739    3.4606142667   -1.8402344722
 H    3.3289053918    1.8780121892   -0.7338980872