23

 C    0.6686091281    1.4424019205   -0.3612397507
 C    0.1285885722    0.0609780436   -0.0364991744
 O    0.7296590908   -0.9760425102   -0.8557809762
 C    1.2991754099   -1.6535297004    0.3103960462
 C    0.8388655850   -3.1012877223    0.3790262129
 C    2.8253596884   -1.5567727420    0.1896794840
 O    3.2389032564   -2.0676511632   -1.0635403450
 C    0.5797458346   -0.6576188130    1.2659356828
 C    1.3500258692    0.0966168326    2.3433891224
 H    1.7537639704    1.4975657188   -0.2396285207
 H    0.4324337042    1.6939767849   -1.4000710250
 H    0.2074767082    2.1991351605    0.2829565398
 H   -0.9603188813    0.0596630239   -0.1760508999
 H    1.2937648799   -3.6789075450   -0.4299274011
 H    1.1387797372   -3.5506088198    1.3327446144
 H   -0.2492477751   -3.1640534874    0.2919903036
 H    3.1522774758   -0.5142218630    0.3126698159
 H    3.3190206138   -2.1556759135    0.9630140791
 H    2.6733729485   -1.6265364083   -1.7118528328
 H   -0.2741627703   -1.1550062080    1.7353485978
 H    2.2043101080    0.6531936975    1.9507781832
 H    0.6952209958    0.8134276284    2.8503171469
 H    1.7257149204   -0.5945257647    3.1054996468