22

 C    0.5294590929    1.3547326805    0.3333054934
 C   -0.1900307330    0.0576096929   -0.0531681354
 C    0.4393164994   -0.5848125841   -1.2696584342
 N    1.6661459934   -1.3842539670   -1.0685930286
 C    0.4580249451   -2.0398654226   -1.5883666784
 C   -0.1397974691   -3.1635632338   -0.7729457247
 C    0.7853800039   -4.3906087277   -0.5666229820
 C    0.7358830630   -3.9942793368    0.9208253221
 O   -0.2001010328   -2.9294829050    0.6504691640
 H    1.5795900367    1.1549930205    0.5694072996
 H    0.5029919054    2.0887062630   -0.4810484650
 H    0.0676162212    1.8168737880    1.2111562926
 H   -0.1714060540   -0.6534585245    0.7733162083
 H   -1.2448233448    0.2680777340   -0.2746276969
 H    0.4392743720    0.0625763910   -2.1493114456
 H    2.3346309846   -1.2165354822   -1.8149221261
 H    0.4405022839   -2.2838900662   -2.6530614672
 H   -1.1375848159   -3.3989501043   -1.1689009991
 H    0.3344443446   -5.3545574910   -0.8064535245
 H    1.7642135428   -4.3116911724   -1.0414939639
 H    0.3147081489   -4.7372695003    1.6080538497
 H    1.6760053816   -3.6089925419    1.3305111219