15

 C   -0.1651252331   -1.1264067884   -0.4647881172
 C   -0.0697499811    0.0156838845   -0.1056672181
 C    0.0630435304    1.4034418072    0.3224425790
 C    1.4662310831    1.9774754936    0.0981723349
 C    1.8422075916    2.4650917564   -1.2901674877
 C    1.6031264327    3.4639545978   -0.1972428619
 C    2.5080698414    1.3708286343    0.8889371761
 N    3.3418070519    0.8930471504    1.5329284766
 H   -0.2493769775   -2.1389904852   -0.7736705153
 H   -0.6509955742    2.0294161172   -0.2262979589
 H   -0.1991752524    1.4934494270    1.3835495344
 H    2.8596026193    2.2986757388   -1.6218985015
 H    1.0882177716    2.3425098218   -2.0596148620
 H    0.6844815374    4.0400354096   -0.2091702291
 H    2.4568114090    3.9804819850    0.2242065408