15

 C   -0.0595627393    1.1856767312    0.5181445542
 C    0.2714822411   -0.2299333455    0.1262970133
 O    0.7431532658   -1.0420187133    0.8842902170
 C   -0.0330029611   -0.6144068303   -1.3513004949
 C    1.2329883560   -0.7858296290   -2.0565652750
 N    2.2430807717   -0.9076675686   -2.6054027427
 C   -0.9244297613   -1.8959808227   -1.4640893041
 N   -0.4120429022   -2.9819597049   -0.8426383815
 O   -1.9585392657   -1.8584389173   -2.0902653298
 H    0.4714321685    1.8872821877   -0.1352930105
 H   -1.1312058351    1.3677565894    0.3750917566
 H    0.2137131796    1.3615482454    1.5585890483
 H   -0.6055650794    0.1754377413   -1.8414530974
 H    0.3286632399   -2.8644599265   -0.1659859041
 H   -0.9821409485   -3.8124196070   -0.8118986293