16

 O   -0.0018551762    1.4093858494   -0.0462177712
 C   -0.0007923824   -0.0062122165   -0.0420598398
 C   -1.3958493548   -0.5388331410    0.0611254144
 O   -2.3245109435   -0.1402773859   -1.0072304179
 C   -3.1226314003   -0.9557569042   -0.0977522154
 C   -1.9838952015   -1.9807978830    0.2043238056
 C   -2.1657608644   -1.8254836412    1.7302167020
 C   -2.4632702119   -0.4061452671    1.2005857411
 H   -0.6690488813    1.6789017358   -0.6888479074
 H    0.4737792377   -0.4161285614   -0.9481071514
 H    0.5900819683   -0.3301644173    0.8214744961
 H   -4.1721485412   -1.1263203350   -0.3349220753
 H   -1.7179589978   -2.8543801015   -0.3907691358
 H   -3.0056526097   -2.3645559157    2.1763380153
 H   -1.2700857782   -1.9420333444    2.3460554335
 H   -2.7301213827    0.5056365489    1.7332503662