17

 C   -0.7520785057    1.2467660407   -0.0228545108
 C    0.1996608275    0.0547492322    0.0137397363
 C    1.1940174452   -0.0016820747   -1.1993920499
 C    2.3630921278   -0.7178867415   -0.6007900484
 N    3.4315921793   -1.3399020697   -0.9936510174
 O    4.0445288717   -1.7431484213    0.1811045080
 N    3.3248895204   -1.3546882610    1.2989439940
 C    2.2971093724   -0.7270535602    0.8165768213
 C    1.0770444804   -0.0179413112    1.3131750328
 H   -0.1982844997    2.1921091734    0.0090532379
 H   -1.3561564161    1.2432982184   -0.9358165839
 H   -1.4383703151    1.2318622601    0.8299076184
 H   -0.3901016235   -0.8692606378   -0.0196943919
 H    0.7630745432   -0.4991513981   -2.0711532233
 H    1.4851727101    1.0096386699   -1.5110654662
 H    1.3373761344    0.9890981504    1.6635741850
 H    0.5672770376   -0.5263612098    2.1346383082