20

 C   -0.0510383227    1.5364637224   -0.0466702737
 C   -0.0381188916    0.0319760896    0.0902129768
 N    1.2501171699   -0.6524572035   -0.1558407735
 C    0.6509015362   -0.6883073224    1.1891200651
 C    1.4174497150   -0.0048990367    2.3251124412
 O    1.7868042915   -1.0351642667    3.2464158442
 C    0.9309506155   -2.1307739295    3.0610931198
 C   -0.5556341780   -1.9047515781    3.1168407461
 C    0.1657821872   -1.9848517934    1.7755631474
 H    0.8750151902    1.9735845386    0.3350869531
 H   -0.1480412306    1.8268568409   -1.0982567034
 H   -0.8932733465    1.9725387568    0.5016431573
 H   -0.9306905153   -0.4606534251   -0.2957124070
 H    1.1007361498   -1.5365579684   -0.6371647007
 H    2.3278195739    0.4823565451    1.9695766231
 H    0.7907886656    0.7447035227    2.8298515059
 H    1.3714130755   -3.0576374109    3.4083410659
 H   -1.1759542385   -2.7530198230    3.3857579622
 H   -0.9345217172   -0.9464847242    3.4558959779
 H   -0.0360139999   -2.8153555943    1.1079822121