14

 C   -0.1222128546    1.4283282383    0.0118091992
 C   -0.0743911162   -0.0252266248    0.0027139518
 C   -0.0361851566   -1.2274235522   -0.0047337545
 C    0.0468438585   -2.6719701914   -0.0137773873
 O   -1.3074756724   -3.2191939177   -0.0033529358
 C   -1.3688340471   -4.5483150052   -0.0094308474
 O   -0.4446396641   -5.3152682718   -0.0223204281
 C   -2.7711685560   -4.9852584515    0.0020880506
 N   -3.8542888625   -5.3852896927    0.0106083807
 H    0.8884932554    1.8502671197    0.0075437124
 H   -0.6484294092    1.8126824704   -0.8681248872
 H   -0.6364331050    1.8019362271    0.9033882726
 H    0.5597409111   -3.0507588064   -0.9038198317
 H    0.5774512288   -3.0608551118    0.8613981947