18

 C   -0.2269679878    1.4067613684    0.0892108911
 C    1.2099653368    0.9973236771   -0.0870378578
 C    0.1311790537   -0.0631734618   -0.0032430209
 N    0.0920687975   -0.7666206238    1.2447382991
 C   -0.2011905171   -1.9952407363    1.2716410737
 O   -0.5260390344   -2.8334679653    0.2517256977
 C   -0.5376290776   -2.2928203413   -1.0493542634
 C   -1.6385335399   -1.3492902227   -1.4389366961
 C   -0.2197111048   -0.8390915768   -1.2425799033
 H   -0.5342657496    1.7698972250    1.0625841060
 H   -0.7457039294    1.8467426209   -0.7556051890
 H    1.6820729733    1.1641470358   -1.0494041628
 H    1.8690468516    1.0800439546    0.7684664462
 H   -0.2261210311   -2.5416571662    2.2111578460
 H   -0.1830986559   -3.0324885015   -1.7572897114
 H   -2.0373619175   -1.4134937895   -2.4452148372
 H   -2.3646034319   -1.0981125860   -0.6726968746
 H    0.3359238042   -0.5789772306   -2.1376627334