16

 O   -0.1172654237    1.4080693624   -0.2361870612
 C   -0.0080043694    0.0210869533   -0.0434832054
 C   -1.3943037956   -0.6421969335   -0.1013766235
 C   -1.5775694544   -0.8312336809   -1.6126194356
 O   -0.2540015031   -1.0962436656   -2.1166769713
 C    0.6840103582   -0.6376955972   -1.2469216827
 N    1.9350176090   -0.7254051258   -1.3818829943
 C    0.7726546517   -0.2705036890    1.2266800253
 O    1.2313943542    0.6198109479    1.8954917184
 H    0.4918089718    1.8050690821    0.4079838363
 H   -1.3758619873   -1.6160623394    0.4000929997
 H   -2.1575904430   -0.0125446191    0.3563244053
 H   -2.2101701454   -1.6792389162   -1.8813662870
 H   -1.9647594421    0.0757515958   -2.0880123537
 H    2.1816731090   -1.1633497535   -2.2715311625
 H    0.8941435001   -1.3376153413    1.4942253222