21

 C   -0.4684431890    0.9644840962   -0.2822081683
 O    0.5249565289    0.0133976987    0.0585590429
 C    1.0175258798   -0.6739776518   -1.0433709701
 C    1.4575772438   -2.0959340466   -0.7838173299
 C    0.2278567126   -1.8300858418   -1.5972098881
 O   -1.0742470835   -2.1400200749   -1.0988794674
 C   -1.5346254529   -2.4550271890   -2.4350655684
 C   -0.1314195372   -2.2026661958   -3.0371458838
 C   -0.0078166469   -1.1346449446   -4.1143954508
 H   -0.0787271109    1.7226499175   -0.9791009094
 H   -1.3448497552    0.4810916004   -0.7299011985
 H   -0.7642269350    1.4605778754    0.6453150039
 H    1.6005648557   -0.0676708717   -1.7420187300
 H    2.3518949260   -2.4711824921   -1.2713887690
 H    1.2884009849   -2.4550503376    0.2260887325
 H   -1.9168975931   -3.4793786580   -2.4987439977
 H   -2.3112652645   -1.7564645595   -2.7713348539
 H    0.3563886316   -3.1277503573   -3.3591360966
 H   -0.4958227887   -0.2043468443   -3.8056664536
 H    1.0410865742   -0.9076311581   -4.3331739314
 H   -0.4741078107   -1.4676729450   -5.0477564824