17

 C   -0.0498973649    1.4633203083   -0.1482793390
 C    0.0092653692   -0.0628304197    0.0624469232
 C    0.8050799424   -0.4248802132    1.2312897666
 C    1.4409184873   -0.7045922889    2.2117601209
 C   -1.4127647715   -0.6375238719    0.2014125756
 O   -2.2363767893   -0.3792341900   -0.9613562368
 C   -2.4773039692   -1.7751001896   -1.2371835055
 C   -1.6014720147   -2.1476525694   -0.0334877548
 O   -1.2255172133   -3.1546515415    0.4785631966
 H    0.9537435929    1.8632303325   -0.3114586955
 H   -0.6717614986    1.6922208722   -1.0167302357
 H   -0.4756909393    1.9563733179    0.7305807722
 H    0.4610286342   -0.5165959649   -0.8300686513
 H    2.0097081160   -0.9681309696    3.0690001114
 H   -1.8807251489   -0.2656265696    1.1229782975
 H   -3.5345584808   -2.0533823185   -1.1439112593
 H   -2.1023173415   -2.0915258441   -2.2183338161