16

 C   -0.1666191398    1.4455554404   -0.0371635508
 N    0.0467745686    0.0041719285    0.0163672714
 C    1.4101538800   -0.4939635900   -0.2495059691
 C    0.8104564568   -0.5255945885    1.0990094262
 C    1.1937894861    0.0789860077    2.4646656584
 O   -0.0900584266   -0.4595502330    2.9978406532
 C    0.3813657215   -1.5802146838    2.1308658627
 C    1.7457005636   -1.3299791928    2.8374600375
 O    2.6035515521   -1.8692486114    3.4511320976
 H    0.7051119217    2.0296180100    0.2996586112
 H   -0.3968948137    1.7331024131   -1.0669255933
 H   -1.0213519669    1.7012650218    0.5950069150
 H    1.4759805817   -1.3907297999   -0.8591492200
 H    2.1958399178    0.2409891816   -0.4238360187
 H    1.4870624026    1.0831472710    2.7596370789
 H   -0.2570745854   -2.4539730648    2.0313583799