14

 O    0.0584609226    1.4501911377   -0.0748640764
 C    0.1132221686    0.0627966648   -0.0385699407
 C   -1.2216122612   -0.7223072730    0.0426582442
 O   -2.2084962279   -0.0805337124   -0.7984188981
 C   -2.0007904998   -1.0502603712   -1.8580222082
 C   -0.7941281640   -1.6706379918   -1.1182021553
 C    0.4513465089   -0.7762095008   -1.3172484631
 O    1.3045473476   -0.7321906286   -2.1513361622
 H   -0.7223616394    1.6701031698   -0.6023184844
 H    0.7996999299   -0.2414529983    0.7640328668
 H   -1.6174775744   -1.0282935838    1.0116389195
 H   -2.8586550112   -1.7270729528   -1.9413594057
 H   -1.8071785834   -0.5824319581   -2.8285496459
 H   -0.6863141062   -2.7522317815   -1.0803410505