15

 C    0.6499953815    1.2270369258   -0.3886753765
 C   -0.0224686253   -0.0570773370    0.0556913877
 O    0.0266882288   -1.0819686412   -0.9300354088
 C    1.0820918270   -1.9593400378   -0.5984238560
 C    2.3014393164   -1.6941521607   -1.3873432374
 N    3.2422152986   -1.4745480351   -2.0203043419
 C    1.3073151654   -1.7182541902    0.8947959520
 N    1.9893553981   -2.4538818408    1.6490037293
 O    0.6213311736   -0.5939912137    1.2196820170
 H    1.7001195862    1.0498619657   -0.6354759351
 H    0.1401823923    1.6164737212   -1.2736021398
 H    0.5920311343    1.9720057331    0.4093956576
 H   -1.0765957997    0.0995324286    0.3052112785
 H    0.7643731596   -2.9899124434   -0.7781597492
 H    2.0046657031   -2.1027408646    2.6068149123