18

 C    0.2247405398    1.3355930286   -0.1803525059
 O    0.3580294408   -0.0852197471   -0.0686644060
 C    0.5625222885   -0.5671790678    1.1690251620
 N    0.6420945845    0.2016446241    2.1775567767
 C    0.6594980094   -2.0848256735    1.1389283944
 C    1.9988291498   -2.5708724983    1.7360276393
 O    2.0475695155   -3.9757049467    1.8662794669
 C   -0.4947016918   -2.6998455777    1.9271423032
 O   -1.3050254215   -3.4516409728    1.4602288468
 H    1.1277513038    1.8371442560    0.1773117619
 H    0.0676840299    1.5321492458   -1.2412297161
 H   -0.6249833546    1.6899956003    0.4088373873
 H    0.7967117453   -0.3191307012    3.0376281504
 H    0.5654523169   -2.4234898404    0.1039126427
 H    2.8271488262   -2.1767749323    1.1297160176
 H    2.1218180162   -2.1751232348    2.7494982332
 H    1.9499472666   -4.3688196330    0.9924352140
 H   -0.5296806054   -2.3947688693    2.9977234417