18

 N    0.0064271263    1.3085202144   -0.2736488178
 C    0.0630034828    0.0242439549    0.1826040782
 O    1.0641759208   -0.4440093552    0.6905234219
 C   -1.2391982691   -0.7627482952    0.0425060969
 C   -0.9855215037   -2.2688172647   -0.0205332832
 C   -2.2977771265   -3.0676746368   -0.0203185797
 O   -3.1233036397   -2.7078593857   -1.0967701766
 C   -2.0117593278   -4.5548149415   -0.0545645148
 O   -2.4646583486   -5.2694589286   -0.9162682417
 H    0.8323626777    1.8795447231   -0.2006107527
 H   -0.7979641913    1.6758208090   -0.7499087165
 H   -1.8587524829   -0.5251350454    0.9185612817
 H   -1.8070914381   -0.4380697827   -0.8345545474
 H   -0.4233740903   -2.5106255496   -0.9298356530
 H   -0.3611245461   -2.5608018057    0.8298911035
 H   -2.8167155072   -2.8754283627    0.9389115777
 H   -3.3036921431   -3.5339602468   -1.5732672025
 H   -1.3623879231   -4.9507567809    0.7523237460