20

 C   -0.0096746924    1.5241127379    0.0501473186
 C    0.0182297607   -0.0096804570    0.0211655954
 C   -1.4090212366   -0.5520679455   -0.1114938394
 C    0.9879323279   -0.5849859209   -1.0875709308
 C    2.0085491456   -1.3246313103   -0.1865191337
 N    1.1760232899   -1.9935569290    0.8696306868
 C    0.7577337425   -0.6080331457    1.2658273187
 C    2.2217945465   -0.2620845136    0.9153833454
 O    3.0989286730    0.4289607590    1.3265041706
 H    0.9958776631    1.9485911786    0.1263979645
 H   -0.4750138171    1.9219103261   -0.8579920776
 H   -0.5897119567    1.8884838631    0.9055492928
 H   -1.8479029554   -0.2427369508   -1.0669199122
 H   -1.4457524781   -1.6462414629   -0.0799498518
 H   -2.0520000489   -0.1730596832    0.6905542184
 H    0.4789846897   -1.2797671891   -1.7632666940
 H    1.4469628852    0.2008209423   -1.6950840225
 H    2.8167405191   -1.8918185383   -0.6452564417
 H    0.4098573189   -2.5385858015    0.4749906721
 H    0.3172902630   -0.4606180093    2.2513912504