21

 C   -0.1060758244    1.4880617235    0.0480387510
 C    0.0296804588   -0.0159989626   -0.0153874139
 C   -0.7152949137   -0.8631524109    0.9882915052
 C    0.7954830393   -0.8181687489    1.0208869063
 C    1.6107260605   -1.8895825230    0.3096860029
 O    2.9275655723   -2.0614568324    0.7445384875
 C    0.9049296117   -3.0266326131   -0.3851574522
 C    1.3218630806   -1.7882770975   -1.1634476894
 C    0.3323671919   -0.6434327259   -1.3909476427
 H    0.7839933794    1.9860962165   -0.3543278954
 H   -0.9704466437    1.8359434331   -0.5308664973
 H   -0.2438275294    1.8295418132    1.0790764020
 H   -1.2383098020   -0.3328991500    1.7788697403
 H   -1.2232587303   -1.7673907357    0.6717660832
 H    1.2895249622   -0.3379611661    1.8586677879
 H    2.9100362322   -2.6312997841    1.5211247676
 H    1.5084088448   -3.9102315662   -0.5672717532
 H   -0.1424959301   -3.2342937332   -0.1968692732
 H    2.1261992677   -1.9206088907   -1.8783737530
 H   -0.5792431109   -0.9654194642   -1.9086696902
 H    0.8040402429    0.1122868683   -2.0291204036