27

 C    0.0633145979    1.4728365850    0.1143434892
 C   -0.2551500231   -0.0006427083   -0.1716452927
 C    0.6128278536   -0.5773196391   -1.2749114281
 C    1.9923751817   -1.1601455344   -1.0291855975
 C    2.6401033876   -1.2468830738    0.3406268678
 C    3.7626392829   -2.2916234098    0.3915038927
 C    0.8547387945   -2.0631750913   -1.4683511330
 C    0.2333763621   -3.1274568991   -0.5825500970
 C   -1.1678859977   -3.5368527428   -1.0550744681
 H    1.0962325809    1.5948831744    0.4560249509
 H   -0.0595819219    2.0839647624   -0.7868040771
 H   -0.5977809810    1.8807002147    0.8857844947
 H   -0.1505376243   -0.5772364169    0.7526835694
 H   -1.3103633357   -0.0899792392   -0.4626778924
 H    0.5239491610   -0.0097519620   -2.2000780290
 H    2.7200991633   -0.9430465522   -1.8097203654
 H    3.0520696107   -0.2638503829    0.6052384598
 H    1.8988094983   -1.4773904420    1.1119764753
 H    4.2393265476   -2.3166012154    1.3766950972
 H    3.3790895861   -3.2941661134    0.1762141535
 H    4.5393464095   -2.0703688014   -0.3489915583
 H    0.9036090346   -2.3785655904   -2.5094921380
 H    0.8832226970   -4.0127727029   -0.5756769335
 H    0.1774410197   -2.7900686057    0.4571129173
 H   -1.8570721156   -2.6865384318   -1.0305695925
 H   -1.1423767564   -3.9102021219   -2.0849419579
 H   -1.5858060032   -4.3282730597   -0.4245428276