19

 C   -0.0284919735    1.5780255791    0.1844897707
 C    0.0163151191    0.0584275502    0.0851544454
 O   -1.2794018335   -0.4975911743   -0.0076652730
 C    1.0958655723   -0.4760626172   -0.9145356347
 C    2.0581901427   -0.6850538697    0.2884713457
 C    0.8278973465   -0.6266533145    1.2125838397
 O    0.9879873658    0.0824282204    2.4336404867
 C    0.4114921242   -0.4131894177    3.5476032857
 O    0.4625335223    0.1437679913    4.6020471599
 H    0.9690696271    2.0073920478    0.3088055740
 H   -0.4601274428    1.9985604613   -0.7321039323
 H   -0.6399110125    1.8877899481    1.0359434993
 H   -1.7935766345    0.0234788427   -0.6334851772
 H    0.7705460996   -1.4205148094   -1.3560111200
 H    1.4217701532    0.2026491085   -1.7052645136
 H    2.6590355588   -1.5949796050    0.3157087165
 H    2.7090390183    0.1764140078    0.4541125048
 H    0.4064536028   -1.6203098045    1.4016730218
 H   -0.0972278660   -1.3806216350    3.3714620305