21

 C    0.1239594489    1.2190208711    0.2190327036
 O   -0.4364980174    0.0848927990   -0.4115140321
 C    0.3997568569   -0.4758727123   -1.3716552424
 C    1.4943543980   -1.4192012349   -0.9413418874
 C    0.2457615988   -1.9552534990   -1.6247677197
 C   -0.7987808656   -2.7915649793   -0.8672164760
 C   -1.5346013554   -3.6150613086   -1.9631623916
 C   -0.6954114721   -3.4020611583   -3.2011386850
 C    0.2629132417   -2.4959609079   -3.0099710237
 H    1.0666019223    0.9750754857    0.7294808171
 H    0.3202628131    2.0270934250   -0.5019375752
 H   -0.6030100475    1.5710699932    0.9548178066
 H    0.5925314985    0.1730847442   -2.2287870330
 H    2.4337595719   -1.4207941249   -1.4856182088
 H    1.5823667871   -1.6117041715    0.1236266712
 H   -0.2993881394   -3.4627643716   -0.1615154640
 H   -1.4739978285   -2.1571564011   -0.2905442496
 H   -1.6216621300   -4.6746508951   -1.6952011529
 H   -2.5612049561   -3.2587453040   -2.1233361532
 H   -0.8891488197   -3.9174198338   -4.1353652863
 H    0.9739856746   -2.1585003556   -3.7566529374