15

 C   -0.0315970946    1.5370687276   -0.0095146153
 C   -0.0126493701    0.0479413686   -0.0247788219
 C   -0.0236957192   -0.8485763740   -1.0651638323
 N    0.0033595120   -2.1243458620   -0.5772232776
 N    0.0309103350   -2.0789109872    0.7117052874
 N    0.0217780788   -0.7619811926    1.0788391188
 C    0.0472402689   -0.3897481453    2.4647025694
 N    0.0774690188   -1.4629485948    3.2795161842
 O    0.0404074917    0.7727500043    2.7972160546
 H    0.8501721718    1.9415476440    0.4936558365
 H   -0.0584541098    1.9070795508   -1.0369013008
 H   -0.9011907156    1.9188797366    0.5311898957
 H   -0.0493045896   -0.6493723548   -2.1243659322
 H    0.0821261396   -2.3939155737    2.8943504330
 H    0.0988970523   -1.3002672675    4.2703787903