14

 N    0.0154711239    1.3816892344    0.0515999790
 C   -0.0419824888    0.0240185839   -0.0097778734
 N   -1.1498567685   -0.6128245978    0.0231573908
 C   -1.1339235999   -2.0461528421   -0.1006549027
 C    0.1787506332   -2.7548317510   -0.3741827702
 O    0.2940229774   -3.9198989831   -0.5992063556
 O    1.3269299438   -1.9791603401   -0.3410933466
 C    1.3007651640   -0.6260640613   -0.1329367318
 N    2.3634781115    0.0499971199   -0.0425529577
 H    0.9148845540    1.7971437302    0.2319751747
 H   -0.8203216522    1.8670136882    0.3313799014
 H   -1.5435228515   -2.5041217868    0.8114258044
 H   -1.8198043492   -2.3587575009   -0.8985645712
 H    3.1903896623   -0.5414751635   -0.1365095712