22

 C   -0.0297762484    1.5255597963   -0.2153196173
 C   -0.1236070628    0.0127220242   -0.1895255773
 C   -0.2555036639   -0.7251504898    1.1205825757
 C   -1.4200978072   -0.6697931884    0.1614697818
 C    1.3824500752    2.0418114691   -0.0438083361
 C    2.6396365857    1.7852722771   -0.9160635762
 N    3.2005961592    2.7190884970    0.1696750699
 C    1.8924074913    3.5034136449   -0.0311722842
 C    2.3696970010    1.8594638791    1.1374855471
 H   -0.4342208161    1.9079571616   -1.1631288040
 H   -0.6633584851    1.9441537192    0.5787207156
 H    0.4772432458   -0.4820502304   -0.9488856706
 H    0.2679261025   -1.6669278997    1.2428148261
 H   -0.3222589237   -0.1352604248    2.0292221972
 H   -2.2653287960   -0.0431318414    0.4272946025
 H   -1.6901836187   -1.5737144897   -0.3731755133
 H    3.0862075788    0.7867013196   -0.9022651632
 H    2.6679742709    2.2186014024   -1.9205457634
 H    1.8629484762    4.0699192465   -0.9670526334
 H    1.6272790519    4.1348258818    0.8223977550
 H    2.1422867591    2.3640219873    2.0816268045
 H    2.7928066241    0.8662016581    1.3102240739