15

 O    0.0056507366   -0.0088155775    0.2492084063
 C   -0.0130421741    1.1828777408    0.0594453706
 N   -1.1479364364    1.9818882204   -0.0959811722
 C   -0.8293617611    3.3803969955    0.0140347343
 C   -0.7724379683    4.0376114638    1.4197146808
 O   -0.0104276389    3.1742834451    2.2604302540
 C    0.7051588904    4.0575524005    1.3998582180
 C    0.7419806619    3.4016684120   -0.0071165310
 N    1.0952130347    2.0122586883   -0.1262174984
 H   -2.0131968984    1.5985853577    0.2490222677
 H   -1.3176665142    4.0049685193   -0.7379698898
 H   -1.4846657301    4.7012924700    1.8967278563
 H    1.4117755872    4.7403856693    1.8578039900
 H    1.1927848925    4.0389732368   -0.7717488175
 H    1.9794973280    1.6526437880    0.1952530109