17

 C    0.0111368391    1.5536580902    0.0075242513
 C    0.1734666634    0.0303064707   -0.0087184818
 C    0.6942298766   -0.4812710593   -1.3502725863
 C    0.7206231893   -2.0222351385   -1.5813789186
 O   -0.1789727314   -1.8752015566   -2.7196819855
 C   -0.2712327865   -0.5029840282   -2.5216218738
 N   -0.9560788151    0.3557725891   -3.1178564759
 C    1.9962153915   -2.6250178695   -1.9499369561
 N    3.0184302334   -3.0920803899   -2.2174320000
 H    0.9732109875    2.0532026508   -0.1486798381
 H   -0.6693588010    1.8799364539   -0.7831795813
 H   -0.3875900909    1.8880212805    0.9693452615
 H    0.8698502213   -0.2852567268    0.7777255377
 H   -0.7879913208   -0.4505123726    0.2100544479
 H    1.6441991878   -0.0058499815   -1.6090798630
 H    0.2436277562   -2.6076483433   -0.7900612152
 H   -1.5184008004   -0.0507856389   -3.8669229628