20

 C    0.6187219667    1.5790154045   -0.2380643754
 C    0.0213906298    0.2037867222    0.0865988474
 C    0.3370977202   -0.8346669963   -1.0065874132
 O    1.5847177433   -1.4436812870   -0.6239667135
 C    1.7716549294   -1.3167942756    0.7239446633
 N    2.7170253885   -1.8430052649    1.3774103081
 C    0.6821513263   -0.4667979070    1.2873857424
 C    0.8371744681    0.1439237743    2.6524425073
 C   -0.0952897763   -1.0175586157    2.4714802097
 H    1.6950098990    1.5048524267   -0.4261199502
 H    0.1479021039    2.0077059055   -1.1288695701
 H    0.4728739612    2.2788789888    0.5897548234
 H   -1.0603613032    0.2964883635    0.2215595709
 H   -0.4330392922   -1.6137054613   -1.0634589429
 H    0.4736387234   -0.3987143443   -1.9992656620
 H    3.3105417736   -2.4069408375    0.7684142317
 H    1.7826804608   -0.0392885931    3.1500402225
 H    0.4064401361    1.1262370527    2.8149064250
 H   -1.1641643403   -0.8311388233    2.4957433013
 H    0.2171270116   -1.9828043621    2.8529479641