12

 N    0.0461067956    1.3555027401    0.0866717824
 C   -0.0326512736    0.0044310588    0.0310832371
 C   -1.2142939108   -0.6970724692    0.0165361078
 C   -1.2190620194   -2.1192348029   -0.0102965631
 O   -2.1245800354   -2.9021466802   -0.0246237068
 O    0.1179610527   -2.6914749874   -0.0242578044
 C    1.1789350092   -1.9028982421   -0.0136954080
 N    1.2044018834   -0.6201309482    0.0127066981
 H    0.9500191004    1.7746716372   -0.0499042922
 H   -0.7724125884    1.9230226226   -0.0443757526
 H   -2.1772996609   -0.2034915574    0.0288474139
 H    2.1092052974   -2.4662348513   -0.0312843122