21

 C   -0.1106955255    1.5056147815    0.1994606809
 C    0.0234166077   -0.0055797801    0.0471138279
 C    1.1031284517   -0.4598543993   -0.9786465457
 C    2.0854648984   -0.7216381052    0.1937540529
 C    0.8803716831   -0.6896308144    1.1779268975
 O    1.0792402816    0.0622360585    2.3699676084
 C    0.6782933860   -0.6841836850    3.5161253173
 C    0.2478071584   -2.0185257169    2.9764863764
 C    0.3695647192   -2.0171521342    1.6543583479
 H    0.8640709941    1.9851625462    0.3325566991
 H   -0.5829933444    1.9378247894   -0.6894935626
 H   -0.7198038684    1.7608459409    1.0712132977
 H   -0.9671137257   -0.4514779814   -0.0914412198
 H    0.8245403658   -1.3755881709   -1.5070598538
 H    1.4086601773    0.2842140800   -1.7183624337
 H    2.6896705739   -1.6321535005    0.1716291324
 H    2.7404035976    0.1317183357    0.3850007519
 H    1.5210005564   -0.7628238174    4.2203534036
 H   -0.1352132500   -0.1613286107    4.0439537798
 H   -0.1033590746   -2.8294007762    3.6017926234
 H    0.1354619974   -2.8291412099    0.9771328588