17

 C   -0.4534294664    1.3793087534   -0.1809911298
 C    0.0748347463   -0.0158602454    0.0881695660
 O   -0.9385373657   -0.9121297994    0.5167030105
 C    0.9331030685   -0.7233810820   -1.0310517216
 C    2.0004965093   -1.1376440845    0.0430425132
 C    1.3075726145   -0.1828393141    1.0208073369
 O    1.5843617870    0.2793948869    2.0895251974
 C    0.3140996195   -1.7660750111   -1.8180131107
 C   -0.1828623655   -2.6330789542   -2.4856574339
 H    0.3348100955    2.0412423574   -0.5529248765
 H   -1.2595323451    1.3384790231   -0.9197159675
 H   -0.8467738018    1.8193826350    0.7421317183
 H   -1.2681832992   -0.5915957311    1.3646973399
 H    1.3489897467    0.0459127350   -1.6898231724
 H    1.8969393239   -2.1805649677    0.3549456073
 H    3.0488495505   -0.9330759773   -0.1825942243
 H   -0.6320252781   -3.4007643239   -3.0655029628