20

 C   -0.0322393937    1.4460323589   -0.1063851630
 N    0.0407252546    0.0031312389    0.0771657149
 C    0.8026653921   -0.3400897656    1.2706995086
 C   -1.2706579396   -0.5948940062    0.0910241765
 C   -2.1144804410   -0.4993180953   -1.1929609184
 O   -2.3921606204   -1.9152329938   -1.1633041584
 C   -1.4006963046   -2.1397729603   -0.1284580745
 C   -0.2307365055   -2.8573801429   -0.6121065463
 C    0.7138520450   -3.4871041115   -1.0076533190
 H    0.9800570125    1.8544338448   -0.1812477777
 H   -0.5602993011    1.6850174425   -1.0342156153
 H   -0.5477307460    1.9648537803    0.7249157857
 H    0.3404158391    0.0459581490    2.1998885361
 H    0.8963992203   -1.4254633434    1.3532644087
 H    1.8097306215    0.0806100252    1.1941242214
 H   -1.8596573234   -0.3009089386    0.9799438229
 H   -3.0306014649    0.0979896666   -1.1504168773
 H   -1.5266527468   -0.2209420014   -2.0767728647
 H   -1.8440838240   -2.6817177133    0.7152896549
 H    1.5522399859   -4.0333471340   -1.3636492253