16

 O    0.0607465006    0.0416005358    0.3062320885
 C   -0.0379154436    1.2075155567    0.0649106985
 C   -1.1238441083    2.2436504877   -0.0762071417
 C   -1.1456872116    3.1361398214    1.2261859113
 C    0.2594341055    3.4721063030    1.7288103455
 C    1.4383546286    2.6221450923    1.2513120550
 N    1.0023175066    2.2096797889   -0.1008533905
 C   -0.0259903973    3.2254871421   -0.5760421941
 C   -0.3130054279    4.2222918843    0.5686503326
 H   -2.0953679378    2.0726316217   -0.5381588792
 H   -2.0045968796    3.2230444611    1.8784352706
 H    0.3012712441    3.9643412824    2.6945852746
 H    2.3590123706    3.2152906277    1.2133614849
 H    1.6264140534    1.7267851267    1.8495515001
 H    0.0946119260    3.5437917260   -1.6076608957
 H   -0.4558852592    5.2912293921    0.4949192197