22

 C   -0.1814905236    1.5390181036   -0.0270966851
 C    0.0168024428    0.0208568837   -0.0233060643
 C    0.7255833388   -0.4853567080    1.2398098707
 C    0.8974036320   -2.0039424981    1.2931540458
 C    1.8088512393   -2.5884173118    0.1994887955
 O    2.3106156878   -3.8259412200    0.7273737981
 C    2.2148985281   -3.8365248520    2.0932826426
 N    2.5947245332   -4.7880713085    2.8303392345
 C    1.5859200190   -2.5421949710    2.5578678634
 H    0.7785733870    2.0640815374    0.0273391488
 H   -0.6919862716    1.8724262585   -0.9356879511
 H   -0.7823755336    1.8605335442    0.8307076550
 H   -0.9576800492   -0.4771803078   -0.1134351541
 H    0.5903848328   -0.2720492836   -0.9123021076
 H    1.7135519507   -0.0099705736    1.3220632031
 H    0.1594525308   -0.1615829926    2.1229303906
 H   -0.0878402275   -2.4799223935    1.2032871703
 H    1.2970472137   -2.8107518714   -0.7393924251
 H    2.6547167067   -1.9190900912   -0.0128794731
 H    2.9974490334   -5.5375284856    2.2644630810
 H    2.3793505180   -1.8586473360    2.8873643964
 H    0.9206081314   -2.7076974728    3.4056313246