19

 C   -0.1346152753    1.5212474663   -0.0589216256
 C   -0.0553264082    0.0204002904    0.0819943103
 N    1.2934132818   -0.5894950545   -0.0605442712
 C    0.6017275685   -0.6510932391    1.2210897829
 C    1.2535656654   -0.1918486946    2.4957617968
 C    0.4294432510   -0.7102691719    3.6324113760
 C   -0.7527345587   -1.4875711790    3.0740630435
 C    0.2549342858   -1.9210155141    1.9895887932
 N    1.4360253248   -1.6128250978    2.9770491663
 H    0.7276776114    1.9975641455    0.4148323860
 H   -0.1430353335    1.8146235767   -1.1140554876
 H   -1.0459773160    1.9097675227    0.4085572039
 H   -0.8834091313   -0.5265099059   -0.3703348933
 H    1.2355544025   -1.4828918926   -0.5445407858
 H    2.0360092661    0.5470541821    2.6187220363
 H    0.5742062182   -0.3591775025    4.6483629549
 H   -1.0150571427   -2.3176558481    3.7349840480
 H   -1.6574983157   -0.9565806661    2.7606194377
 H    0.1986669559   -2.8903867276    1.4951394877