17

 C   -0.1142202934    1.4232413478    0.0228542045
 C   -0.0636357694   -0.0871672870    0.0180727104
 O   -0.1765032980   -0.7508410052    1.0252264881
 C    0.1430770492   -0.7560761766   -1.3345528961
 N    0.2367094370   -2.1775581252   -1.1644080681
 C    0.1929188757   -3.0332410392   -2.2217024610
 N    0.1753626882   -2.6348993451   -3.4382636912
 C    0.1848832730   -4.4949766185   -1.8269567036
 O    0.1540132643   -5.3834755335   -2.6362110688
 H    0.8544675380    1.8291499543   -0.2902942121
 H   -0.8582160957    1.7874587746   -0.6935035643
 H   -0.3524611761    1.7829611411    1.0240124063
 H   -0.6863812936   -0.4880552613   -2.0069271346
 H    1.0429942447   -0.3446994261   -1.8149906523
 H    0.1000929269   -2.5014655771   -0.2170941768
 H    0.1598024940   -3.4588011062   -4.0422712122
 H    0.2089507250   -4.7036403370   -0.7335426281