22

 C   -0.0397031630    1.5095551560    0.1392366169
 C   -0.0813623702   -0.0134225873   -0.0191924023
 N    0.6395503591   -0.4908990466   -1.1859852128
 C    0.1124307925   -0.6473887562   -2.4437781726
 C    1.1258171719   -1.0196584247   -3.2954271825
 C    2.3295996729   -1.0923193313   -2.5316247486
 C    3.6994358628   -1.4558846424   -3.0297237113
 C    4.3153823571   -0.3942829160   -3.9569569685
 C    1.9882151603   -0.7551703284   -1.2395876148
 H    0.9910312920    1.8615626501    0.2388616926
 H   -0.4837736805    2.0021818643   -0.7305112390
 H   -0.5962942162    1.8150891975    1.0310373253
 H    0.3463399281   -0.4981526053    0.8647214853
 H   -1.1174035040   -0.3577496013   -0.1003095823
 H   -0.9405203694   -0.4888067637   -2.6189548504
 H    1.0175460227   -1.2397488181   -4.3473426128
 H    4.3644602522   -1.6165364272   -2.1728005242
 H    3.6592681703   -2.4135909734   -3.5652917063
 H    4.4162829785    0.5643047957   -3.4380757695
 H    5.3072625296   -0.7011957500   -4.3056151970
 H    3.6854478775   -0.2274810496   -4.8365787532
 H    2.5952151756   -0.6911625422   -0.3490096023