17

 C    0.0639077975    1.5805375591   -0.0204280248
 C    0.0479861441    0.0482815614    0.0234567922
 C    0.7442547063   -0.6360308153   -1.1822925494
 C    1.4869131798   -1.8764990224   -0.6174476841
 O    2.7499619265   -2.1279856176   -1.2210687734
 C    1.5507613751   -1.5829966251    0.8644814210
 C    0.7849650314   -0.5483449348    1.2043092687
 H    1.0915038890    1.9595163834   -0.0517501328
 H   -0.4598842873    1.9544051061   -0.9064295064
 H   -0.4251896275    2.0086265960    0.8612763319
 H   -1.0034549014   -0.2735865531    0.0683615847
 H    0.0552063452   -0.8863123623   -1.9926510297
 H    1.4985030821    0.0421676442   -1.6011086907
 H    0.9202155135   -2.7977520989   -0.8050587782
 H    3.3199850680   -1.3798267061   -1.0100556117
 H    2.1439311658   -2.1919195865    1.5381562351
 H    0.6522581920   -0.1694658379    2.2133105975