18

 C   -0.1378533775    1.5683585342    0.0631551787
 C    0.0767722913    0.0601814787    0.0255287812
 C    1.1684958919   -0.5341036989   -0.9300160839
 C    1.8097203394   -1.2653898399    0.2668239808
 C    2.2165140301   -0.2450552249    1.3072989992
 C    0.7696470512   -0.6202922313    1.2161888376
 C    2.3174177452   -2.5935630024    0.2426170794
 C    2.7401104465   -3.7204662051    0.1982595913
 H    0.7935909548    2.1052386201    0.2702596110
 H   -0.5235523294    1.9317642528   -0.8957068547
 H   -0.8605519594    1.8438214346    0.8390779360
 H   -0.8776167856   -0.4368778618   -0.1729189495
 H    0.7557427330   -1.2143595585   -1.6763597625
 H    1.8224705887    0.1871718836   -1.4314271455
 H    2.7467142668   -0.6529035250    2.1608614333
 H    2.5694601665    0.7322163175    0.9860975538
 H    0.2608597405   -1.0932444757    2.0479206924
 H    3.1163807260   -4.7123303579    0.1644047312