16

 N   -0.1981635797    1.3076301026   -0.1741843558
 C   -0.0356549882    0.0767907929    0.1276834920
 N    1.1268818997   -0.5293094072    0.5496820313
 C    1.3332709052   -1.9510651279    0.7522756294
 C    0.0862495583   -2.6238759136    1.2843959257
 N   -0.6665973630   -1.8789040108    2.2816543031
 C   -1.2421245069   -2.0456136067    0.9212224602
 C   -1.2618655785   -0.8310242363    0.0497997449
 O   -2.1776331623   -0.6065256350   -0.7012891322
 H    0.6767845687    1.8313999215   -0.0851816282
 H    1.9414165847    0.0614853539    0.6038121011
 H    1.6346740121   -2.4646472653   -0.1751096543
 H    2.1521926515   -2.0765075041    1.4699862934
 H    0.1504905921   -3.7063271877    1.3655336446
 H   -1.1445018248   -2.5113972583    2.9179509321
 H   -2.0950152288   -2.7030512779    0.7855688226