17

 C   -0.0465446703    1.5089809126   -0.0116681457
 C   -0.0269874267    0.0538789349    0.0150779180
 C   -0.0209099057   -1.1503128408    0.0438370975
 C   -0.0074194704   -2.6002805117    0.0705447922
 C    0.2089127803   -3.3721862008    1.3830861151
 C   -1.1984462581   -3.5316680685    1.9801732573
 O   -2.1213074852   -2.8449732172    1.1365152720
 C   -1.3681533277   -3.3794210683    0.0202409740
 C   -0.7315564425   -4.4882593302    0.9385084644
 H    0.9682116180    1.9219359392   -0.0353851900
 H   -0.5752773643    1.8829985922   -0.8956010663
 H   -0.5504900911    1.9164319307    0.8717592084
 H    0.6598230062   -3.0078038485   -0.6964304166
 H    1.1136105294   -3.4432827254    1.9725976836
 H   -1.4201754306   -3.6362599320    3.0334609087
 H   -1.9482418950   -3.4832934556   -0.8936875513
 H   -0.6303915864   -5.5623391104    0.8798564287