19

 C    0.0042785382    1.5038779570    0.0715963426
 C    1.2820705624    0.7377567344    0.0307093824
 C    2.2332309466    0.6723813514    1.2116856805
 C    2.6753121022   -0.7641815611    1.5343224521
 O    1.7059358372   -1.5075697620    2.2491118085
 C    0.5311573839   -1.8550559963    1.5371286133
 C   -0.4001427364   -0.6727163534    1.2568954298
 N   -0.0084657911    0.0446597991    0.0436784463
 H   -0.2437745520    1.9950430486    1.0125179011
 H   -0.3808836074    2.0043404960   -0.8134803498
 H    1.7845458323    0.6497641521   -0.9329865047
 H    3.1204697655    1.2737773855    0.9770268199
 H    1.7894536205    1.1040408869    2.1147905335
 H    2.9575901084   -1.2880407018    0.6050253143
 H    3.5552809047   -0.7441365215    2.1853998343
 H    0.7801854477   -2.3534969511    0.5866196059
 H    0.0154271555   -2.5787705930    2.1762625602
 H   -1.4193791705   -1.0473630295    1.0988748392
 H   -0.4261356178   -0.0367057316    2.1561914709