18

 C   -0.2830010483    1.4398504018   -0.0855188359
 N   -0.3173766494   -0.0091612998   -0.2276201229
 C    0.5422602722   -0.5765965702   -0.9327133672
 O    1.5990324439   -0.0573015087   -1.6725973068
 C    1.9917203051   -1.3912515921   -2.1199601710
 C    3.2544205120   -1.8912689641   -1.4327452824
 O    2.8572257940   -2.2446298664   -0.1149457966
 C    1.5603713812   -2.8228908447   -0.2109548984
 C    0.8352300563   -2.0173923224   -1.2965370287
 H    0.5082825985    1.9287745318   -0.6654093121
 H   -1.2508823404    1.8516920576   -0.3911904509
 H   -0.1486835625    1.6912727265    0.9723137528
 H    1.9907630073   -1.4570928936   -3.2085101184
 H    3.6446423167   -2.7659000922   -1.9806474138
 H    4.0376727884   -1.1328133307   -1.3647939280
 H    1.6222945805   -3.8826882332   -0.5067421566
 H    1.0856188337   -2.7533777168    0.7698265858
 H    0.0399861108   -2.5556585627   -1.8102629190