16

 N   -0.1402256297   -1.1467033746   -0.3271907492
 C   -0.0578350196   -0.0080131681   -0.1515086430
 C    0.0091625569    1.4411482924    0.0537583409
 C   -0.7084992344    1.8778945802    1.3570374773
 O    0.0853603049    1.6587224244    2.4964893246
 C    1.2038525057    2.5209828409    2.5499975907
 C    2.0421953748    2.4694899433    1.2922544438
 O    2.3865694583    1.1694482212    0.8219698580
 C    1.4631838853    1.9295331352    0.0510600520
 H   -0.5118373214    1.9124568981   -0.7887967274
 H   -0.9658871165    2.9453382471    1.2607437527
 H   -1.6302506950    1.3094203697    1.4964163608
 H    0.8860698503    3.5650452476    2.7167711049
 H    1.7962591094    2.2029830928    3.4130510584
 H    2.8377972220    3.2126434315    1.2283048704
 H    1.8453854989    2.2593445081   -0.9135138149