17

 C   -0.0756299060    1.5357376964    0.0011628084
 C    0.0391591815    0.0194913215   -0.0187527502
 O    0.8594280221   -0.4312365254   -1.1138155147
 C    1.8979534417   -1.1784556006   -0.6449026640
 N    2.8062622740   -1.7364496112   -1.3191221767
 N    1.8141234207   -1.2400312111    0.7428773862
 C    2.7715512269   -1.9483858511    1.5693981013
 C    0.7280750179   -0.5460561124    1.2216723019
 O    0.3983544049   -0.4076431766    2.3752244491
 H    0.9138608906    1.9967520334    0.0672825704
 H   -0.5708009948    1.8940729947   -0.9043094671
 H   -0.6615338479    1.8376392798    0.8731689331
 H   -0.9500475712   -0.4418517927   -0.1219446917
 H    2.6735234374   -1.5615878319   -2.3130518884
 H    2.7847683017   -3.0094041133    1.3088227159
 H    3.7747496906   -1.5423895909    1.4193519794
 H    2.4608186400   -1.8170101083    2.6066483871