20

 C   -0.0167890854    1.0384538722   -1.3912489286
 C   -0.1481952905    0.3844126271   -0.0095674765
 C   -1.4176940302   -0.4385783631    0.0939356411
 C   -1.4985977954   -1.8990955317   -0.1904918447
 C   -0.2258498044   -2.7136240285   -0.2522127089
 C    0.4210196377   -2.5390304550    1.1323212595
 O    1.5071228346   -2.9306842586    1.4654376344
 C   -0.5804964296   -1.7767457229    2.0156488775
 N   -1.7215873755   -1.3745630756    1.1937494644
 H    0.8799866109    1.6620905661   -1.4474149455
 H    0.0467526760    0.2836249436   -2.1819525690
 H   -0.8811746274    1.6743785687   -1.6101925892
 H    0.7460553484   -0.2139422141    0.1904976179
 H   -0.1700580209    1.1637485861    0.7635565901
 H   -2.3026280081    0.1394520147   -0.1731346169
 H   -2.3818284992   -2.2971716570   -0.6817564015
 H   -0.4372360685   -3.7777577357   -0.4072272547
 H    0.4806503787   -2.4133981131   -1.0316412597
 H   -0.9288245809   -2.4472734465    2.8110586279
 H   -0.0886528103   -0.9295572768    2.5040092324