21

 C    0.1099940099    1.4464986434   -0.2693906746
 C   -0.0591199337   -0.0582098634   -0.0432913151
 C   -1.5080786312   -0.5154225935    0.1008319058
 C   -2.2432760210    0.0692956168    1.3072437209
 O   -2.2173899617   -0.1995743807   -1.1079334625
 C   -3.1094418249   -1.2571830383   -1.3506296546
 C   -2.5199805958   -2.4827917485   -2.0149504307
 C   -2.6474069554   -2.3999605023   -0.5087144088
 O   -1.5091092051   -1.9500400671    0.1800429570
 H    1.1624969810    1.6886989618   -0.4431196966
 H   -0.4629992504    1.7725152624   -1.1416117162
 H   -0.2228150399    2.0309974091    0.5938730478
 H    0.3621715943   -0.6152153875   -0.8858307507
 H    0.4830850595   -0.3780244664    0.8534476859
 H   -2.3174851466    1.1565133710    1.2284204992
 H   -3.2556798440   -0.3406915001    1.3578350658
 H   -1.7192859886   -0.1859338776    2.2325177097
 H   -4.1451301972   -0.9679820377   -1.4917418584
 H   -3.2011894798   -3.1447841193   -2.5406616258
 H   -1.5257623835   -2.3920603990   -2.4368863621
 H   -3.2986159360   -3.0622919329    0.0511473341