17

 C   -0.2397361755    1.1563538806   -0.0137886125
 O    0.5878477269    0.0170313614    0.1457823286
 C    0.9212845825   -0.5850331015   -1.0607694511
 C    1.4779939350   -1.9889107673   -0.9909425959
 C    0.1147632593   -1.7438380998   -1.5491065104
 C   -1.2443488653   -2.2696697128   -1.1252176925
 C   -1.4496485174   -2.4226552754   -2.6368925856
 O   -2.2935444787   -2.7912897434   -3.3855913818
 O   -0.1957839485   -1.9432727536   -2.9527092944
 H    0.2603732639    1.9337276128   -0.6096538156
 H   -1.1929247472    0.9079805912   -0.5010131906
 H   -0.4395542759    1.5476639806    0.9857804466
 H    1.3422333209    0.0791760185   -1.8178725807
 H    2.2794992063   -2.2424899140   -1.6757163397
 H    1.5349250598   -2.4518654302   -0.0111472065
 H   -1.2505778179   -3.2141159643   -0.5779008271
 H   -1.9193951779   -1.5604136528   -0.6439390509