15

 N   -0.1811428832    1.5405215739   -0.0980187178
 C    0.0740315026    0.0977775658   -0.0032902265
 C   -1.2788220326   -0.7280447032   -0.0340061832
 O   -1.3907552351   -1.4781758408   -1.2880305150
 C   -0.1600570915   -1.3697472099   -1.8289353958
 C    0.7094315505   -0.5880182720   -1.1671935660
 O    1.8706212259   -0.5614061154   -1.8965739422
 C    1.5849438958   -1.3718681587   -2.9527509666
 N    0.3859307105   -1.8857991540   -2.9744070741
 H    0.6862646025    2.0516048343    0.0396264940
 H   -0.4979077521    1.7690770841   -1.0375843918
 H    0.5782121999   -0.0685829037    0.9541588360
 H   -1.3084296512   -1.4556066189    0.7808950561
 H   -2.1362791527   -0.0570674015    0.0372550982
 H    2.3782214107   -1.5221669299   -3.6677209252