17

 C   -0.1165538903    1.4703518674   -0.0615834336
 C   -0.0646670308   -0.0218358147    0.0278747625
 N   -0.0801508774   -0.7633485014   -1.0742418773
 N   -0.0168145621   -2.0408017589   -0.6195877390
 C    0.0476189530   -2.1177670627    0.7334419864
 N    0.0666073641   -3.3592900423    1.3837615045
 C    0.0211395767   -0.8168967284    1.2054741866
 C    0.0868865624   -0.3597022822    2.6292407926
 H    0.7564963502    1.9349260680    0.4122198108
 H   -0.1417727188    1.7769347220   -1.1094409119
 H   -1.0048734163    1.8744620956    0.4379436108
 H   -0.0887704855   -2.8040329988   -1.2696232935
 H    0.8792577080   -3.9187865351    1.1470570075
 H    0.0339593838   -3.2476186425    2.3889409152
 H    0.5063753211   -1.1351881766    3.2812681674
 H    0.7249901807    0.5244204722    2.7358397074
 H   -0.8968124188   -0.0938204615    3.0374611332