21

 C   -0.2219444139    1.6328456300    0.0631441393
 C   -0.1213389909    0.1067435175   -0.0495846459
 O    0.4709970197   -0.4325589062    1.1434277559
 C   -1.5300815956   -0.5179842097   -0.0504136216
 O   -2.2311600610   -0.2266721342    1.1388274692
 C    0.6506228490   -0.3992859396   -1.2748535695
 C    1.2426673816    0.5034714519   -2.3425673498
 C    2.1380497531   -0.2195828553   -1.3733574681
 O    2.7438525381    0.4878699593   -0.3197530460
 H    0.7662872286    2.0834681388    0.1813641729
 H   -0.6991336622    2.0659828968   -0.8215482702
 H   -0.8333652737    1.8789311437    0.9334375360
 H    1.3746791246   -0.0965172773    1.1823088794
 H   -2.1179250306   -0.1214339874   -0.8847638411
 H   -1.4250571774   -1.6056749783   -0.1917968246
 H   -1.6143789317   -0.4375173284    1.8516375495
 H    0.3021973556   -1.3679790693   -1.6237898875
 H    1.2181127648    0.1745334546   -3.3759562568
 H    1.1412362369    1.5738420691   -2.2062338374
 H    2.7290814647   -1.0578664593   -1.7387317983
 H    3.4587064104    1.0256003734   -0.6749202354