23

 C   -0.1235637644    1.4203756791   -0.1752602514
 C    0.1320731576   -0.0557744252    0.0416332159
 O   -0.8886041998   -0.8626489016   -0.4952969823
 C    1.5370323425   -0.6191930584    0.0086571278
 C    0.7453123532   -0.6101156585    1.3100169703
 C    1.1924516645    0.3495165938    2.4028199231
 C    0.1962858506   -1.8926134580    1.8822292917
 C    0.3105089436   -3.2417199356    1.2349939662
 C    1.1277498678   -2.9346298335    2.4635407374
 H    0.6754845022    2.0474989644    0.2250830600
 H   -0.1963496225    1.6332832228   -1.2496449237
 H   -1.0690615159    1.7214771651    0.2877412539
 H   -0.8603742337   -0.7689322936   -1.4539896990
 H    1.6753784396   -1.5595342908   -0.5132865218
 H    2.3729932630    0.0687288485   -0.0760158973
 H    1.6383195401    1.2648887700    2.0064782395
 H    0.3502569354    0.6374830369    3.0430421124
 H    1.9404162192   -0.1333531710    3.0406284159
 H   -0.7219818829   -1.7357277760    2.4444210726
 H   -0.5356068065   -3.9136722950    1.3276560081
 H    0.8303436719   -3.3254047211    0.2882971036
 H    2.1932033970   -2.7798548883    2.3252859219
 H    0.8644305573   -3.4071074841    3.4035685252