15

 C   -0.2654588268    1.5010322214    0.0183196475
 C    0.0303498780    0.0051691248   -0.0519623665
 C   -1.2135923403   -0.8654611504    0.1713759939
 O   -2.2275273065   -0.4552956994    0.6644211391
 N    0.6836403941   -0.3965178142   -1.2924996657
 C    0.2842870700   -0.3066568355   -2.5765229327
 N    1.2089868144   -0.8260227712   -3.3530551505
 N    2.1947787494   -1.2449828219   -2.5145483612
 N    1.8966551088   -0.9989740714   -1.2847367129
 H    0.6581376638    2.0772443329   -0.0656978551
 H   -0.9497574224    1.8074879346   -0.7772718414
 H   -0.7472496544    1.7258652763    0.9713208660
 H    0.7453157768   -0.2791841506    0.7305771431
 H   -1.0912851912   -1.9224283318   -0.1501128016
 H   -0.6474305837    0.1305737063   -2.8965335521