15

 O   -0.0817094995    1.4572043460    0.0827107409
 C    0.0287291178    0.0504513578   -0.0391040854
 C   -1.3892230357   -0.5085427904    0.0032492809
 C   -1.4311047319   -2.0597317214   -0.0287899639
 C   -2.7963617344   -2.5666548548    0.1157344454
 C   -3.9233003219   -2.9563193907    0.2494900330
 C   -0.8075208224   -2.5850159427   -1.2569660706
 N   -0.2969659016   -2.9773206620   -2.2159523303
 H    0.7896276666    1.8417402080   -0.0494625983
 H    0.5177176626   -0.2382269772   -0.9810229373
 H    0.6227750505   -0.3793509330    0.7854952806
 H   -1.8799758378   -0.1802560990    0.9236983576
 H   -1.9672098224   -0.1120135402   -0.8357471401
 H   -0.8295163624   -2.4353363328    0.8115670417
 H   -4.9183284476   -3.3106406776    0.3633647159