25

 C   -0.0859322776    0.8743375309   -2.0015652159
 C    0.0196904381   -0.2523344689   -0.9962512893
 C    1.3051627874   -0.6078949183   -0.2767747902
 C    2.6018646212    0.1443848738   -0.4853611188
 C    0.1368795603   -0.0219006371    0.4967095715
 C    0.2160011262    1.3819960541    1.1262600878
 C   -0.6929152558    1.3131420882    2.3730121641
 C   -0.6178310330   -0.1599282242    2.8038260685
 C   -0.6655589902   -0.9084411417    1.4618761402
 H    0.5478881922    1.7276083184   -1.7472623094
 H    0.2074388962    0.5358902448   -3.0017926487
 H   -1.1160273243    1.2436336038   -2.0686150564
 H   -0.5969231950   -1.1101107365   -1.2619092151
 H    1.4565874321   -1.6750253973   -0.1229062366
 H    2.4478859128    1.2144418393   -0.6464807992
 H    3.2594958003    0.0390731112    0.3855003446
 H    3.1446335148   -0.2428840832   -1.3551057555
 H    1.2448883652    1.6091026176    1.4295859538
 H   -0.0915153543    2.1777363100    0.4415752189
 H   -0.3905196996    2.0138919642    3.1565280029
 H   -1.7257386810    1.5594651789    2.0974424928
 H    0.3368271559   -0.3525102171    3.3093230444
 H   -1.4177219912   -0.4527874689    3.4901122310
 H   -1.7078308527   -0.9856674795    1.1235951149
 H   -0.2734346279   -1.9287505225    1.5219784599