15

 C   -0.0017423722    1.4522451553    0.0111714357
 C    0.0210609697   -0.0026414942    0.0229843580
 C    0.0245777276   -1.2069627960    0.0371105586
 C    0.0715240789   -2.6509146368    0.0261239816
 C    1.2678048712   -3.2682058253   -0.6688826600
 C   -0.6412712046   -3.4024137121    1.0808018582
 O   -1.1865412658   -3.3113201869   -0.2307477920
 H    0.7132154467    1.8555792709   -0.7141664480
 H   -0.9953046691    1.8266534719   -0.2586115713
 H    0.2524346833    1.8636648365    0.9942829875
 H    2.1978320741   -2.9479492262   -0.1895777630
 H    1.2034110410   -4.3584814879   -0.6323834179
 H    1.3005420228   -2.9546815571   -1.7163594219
 H   -0.2699850052   -4.3852992222    1.3712601098
 H   -1.1798833784   -2.8567691099    1.8534588346