19

 C    0.4060878943    1.3165105371    0.0251219630
 C   -0.0394320516   -0.1633674307   -0.0004394827
 C    0.5498920548   -0.9618480064   -1.2139675760
 C    1.6190137990   -1.8677571722   -0.6253898347
 C    2.6884671628   -1.2653820918    0.2108159371
 N    1.5264206860   -1.9046482123    0.8445600702
 C    0.4598209115   -0.9861949522    1.2519395391
 C   -1.5053564460   -0.1825177938   -0.0495855864
 N   -2.6612730558   -0.1931316476   -0.0809912294
 H    1.4945532216    1.4001178678    0.0369905170
 H    0.0338026733    1.8464530146   -0.8560964983
 H    0.0151642029    1.8206846479    0.9132410938
 H   -0.2272176397   -1.5700270412   -1.6830618507
 H    0.9372535383   -0.2824180528   -1.9787860206
 H    1.7980141250   -2.8166164850   -1.1231365019
 H    3.6240105301   -1.7979818102    0.3556516748
 H    2.7831233414   -0.1841536811    0.2431206146
 H    0.8042597446   -0.3202171569    2.0489060995
 H   -0.3608338525   -1.5875950230    1.6513157714