19

 C    0.7598091202   -0.3519789744    1.3138872305
 C    0.1045037309   -0.1191118429   -0.0460273205
 O    0.8638133466   -0.6832467809   -1.1041207226
 C   -1.3654484211   -0.6276636147   -0.0966663967
 C   -2.0710257098   -0.1567275441   -1.4023169953
 C   -2.2871835186    1.2836671030   -1.4323551943
 C   -2.4625906810    2.4730817885   -1.4297613781
 C   -1.3977662118   -2.0855820347   -0.0047629741
 C   -1.3824488189   -3.2883408987    0.0307139029
 H    1.7948330474   -0.0016717005    1.2890719737
 H    0.2290552615    0.1872506163    2.1055660574
 H    0.7599425781   -1.4169717242    1.5703813747
 H    0.0753871854    0.9545567547   -0.2582528273
 H    0.8633151221   -1.6404614873   -0.9750138260
 H   -1.9056242081   -0.2017342980    0.7576562428
 H   -1.4461537656   -0.4632358213   -2.2480000199
 H   -3.0289514882   -0.6778015344   -1.5019619386
 H   -2.6215228659    3.5228124410   -1.4458614590
 H   -1.3970119932   -4.3491874675    0.0837146704