21

 O    0.0415072322    1.2754434882   -0.3783273890
 C    0.0375786550   -0.0771360355    0.0440516023
 C    0.3374649585   -1.0799876800   -1.1167977340
 C   -1.1705921337   -1.4602528756   -1.1664331747
 C   -1.4179053072   -0.6321488413    0.1317745969
 C   -1.5131073633   -1.3712873519    1.4567087737
 C   -0.5722771368   -2.5255249208    1.7191674598
 C   -0.2288558214   -1.1554870317    2.2421911430
 C    0.7156635814   -0.2849771281    1.4212405297
 H    0.9486936042    1.5129473189   -0.6000869400
 H    0.7331074716   -0.6020629190   -2.0168028356
 H    1.0029716518   -1.9014047717   -0.8371414893
 H   -1.6838999946   -1.0498533016   -2.0384744507
 H   -1.4019373110   -2.5252195263   -1.0967774080
 H   -2.1891188612    0.1368252192    0.0533734339
 H   -2.4724863159   -1.3898814832    1.9616945372
 H   -0.8953007035   -3.2670146346    2.4422631508
 H    0.0070806790   -2.9430929228    0.9019689778
 H   -0.2543253075   -1.0010354690    3.3154282672
 H    1.7205981236   -0.7154921626    1.3309215836
 H    0.8160387886    0.6972312694    1.8950532552