23

 C   -0.1858146788    1.5313323945   -0.0763007431
 C   -0.0239401032    0.0115025716    0.0223772576
 C    0.7511215029   -0.5647342101   -1.1683238864
 C    0.8460944031   -2.0996480991   -1.2333529189
 C    1.6066138085   -2.5155804898   -2.4981260001
 C    1.4871459791   -2.6899249243    0.0293042062
 O   -0.5536884494   -2.5229474643   -1.3425780319
 C   -0.8752353327   -3.8221799287   -1.4007884346
 O   -2.0083132428   -4.1979620131   -1.4958421873
 H    0.7866616414    2.0357375172   -0.1106736762
 H   -0.7355109697    1.8125590026   -0.9812428267
 H   -0.7352927674    1.9273277238    0.7830327626
 H    0.4891481363   -0.2345151793    0.9596490703
 H   -1.0087060355   -0.4644361589    0.0698975901
 H    0.2786636143   -0.2269567824   -2.0988015193
 H    1.7736522145   -0.1661338393   -1.1747089054
 H    2.6209021968   -2.1057619972   -2.4750391653
 H    1.6919272357   -3.6023983289   -2.5869530094
 H    1.1014063616   -2.1344668784   -3.3898877439
 H    0.8570285331   -2.5209284978    0.9051214471
 H    1.6614739428   -3.7652246444   -0.0653861855
 H    2.4568958655   -2.2148349252    0.2066606860
 H   -0.0100554260   -4.5063193683   -1.3532432056