12

 O   -0.0464073908    0.0824349334   -0.4219850320
 N   -0.0281644723    1.2218304663    0.0072396802
 O    0.9380837585    1.8311556760    0.4289945747
 C   -1.3405243899    1.9556312105    0.0175786406
 N   -1.2615661802    3.2430810259   -0.2518342980
 C   -2.4342293088    3.8842481517   -0.2550378500
 C   -3.6301269761    3.2358714527    0.0356233080
 C   -3.5528675031    1.8756044985    0.3162497282
 N   -2.3927333725    1.2123786260    0.2946620355
 H   -2.4048259019    4.9437820596   -0.4938040444
 H   -4.5752201967    3.7643241932    0.0430729480
 H   -4.4372275261    1.2941227162    0.5617539091