20

 C    0.0004175103    1.5550411674    0.0598153582
 C    0.0184877323    0.0277149822    0.0095064431
 O   -1.3157671526   -0.4936217138   -0.0373446270
 C    0.7013583234   -0.5612284283   -1.2347686560
 C    2.1671393116   -0.3432183360   -1.5059066612
 C    1.7154711131   -1.6043399334   -0.8113865994
 C    1.7413546946   -1.5969614946    0.7046126453
 N    2.1835404890   -0.3140098945    1.3046666162
 C    0.7445549218   -0.6195983458    1.2031554311
 H    1.0166186822    1.9518762288    0.1125382328
 H   -0.4963685330    1.9604285234   -0.8263734889
 H   -0.5412338859    1.9074097583    0.9473500966
 H   -1.8228256497   -0.0587396245    0.6565083203
 H    0.0369173329   -0.7251362491   -2.0752495015
 H    2.4814116957   -0.4300081018   -2.5406841115
 H    2.7193449254    0.3765159814   -0.9152045788
 H    1.7970501025   -2.5610968944   -1.3129337758
 H    1.9598006794   -2.5184384664    1.2328832033
 H    2.4973087703   -0.4727030785    2.2588496289
 H    0.1692161869   -0.7724035503    2.1128752244