17

 O    0.0515557306    0.1950649146   -0.6816832160
 C   -0.0489778393    1.2641508404   -0.1595457969
 C   -1.2935929107    1.9478562265    0.3963551625
 C   -0.8576843401    3.4070523896    0.5432801398
 C    0.6625288623    3.2875590782    0.7173534817
 C    1.5506935687    4.4966275679    0.3779813296
 O    1.9173888124    4.6641526165    1.7622226327
 C    1.2687716096    3.4326925168    2.1339866461
 O    1.0286042113    2.0838711128    0.0376384817
 H   -2.1451415805    1.7814210930   -0.2639604624
 H   -1.5295988873    1.4838249231    1.3608807062
 H   -1.0745481510    3.9639320646   -0.3744477216
 H   -1.3270396311    3.9369801807    1.3739658764
 H    2.4066855054    4.2400214655   -0.2576062380
 H    1.0391183698    5.3784939809   -0.0254384631
 H    0.5668527879    3.5680390746    2.9653737819
 H    1.9851453320    2.6384143240    2.3767282294