17

 O    0.1487616715    1.3263602903   -0.2498934294
 C    0.0534045921   -0.0607309279   -0.0350114370
 C    0.3048848768   -0.5580495530    1.4013433634
 C    0.1041932380   -2.0551384743    1.4521928046
 C   -1.1050844339   -1.1645905670    1.4759208721
 O   -2.0092523562   -1.1356671337    2.5195537451
 C   -1.3849528579   -0.6259842820    0.0930226804
 C   -2.6111120159    0.0008218794   -0.3928914334
 O   -2.1585838773   -1.2635733469   -0.9087811359
 H   -0.4110635431    1.7665307179    0.4000238666
 H    0.6717221582   -0.5306315736   -0.8050933542
 H    0.8638075501   -0.0180886397    2.1546530497
 H    0.3325355679   -2.6777063105    0.5900339589
 H    0.3382378491   -2.5050005981    2.4125334172
 H   -2.3710155480   -2.0210397858    2.6337497841
 H   -3.5099824982   -0.0410965530    0.2199414616
 H   -2.5440658934    0.8376323679   -1.0861935338