19

 C    0.0552197986    1.4942634871   -0.1599203606
 N   -0.0339206001    0.0474009125    0.0192256566
 C    0.6700529537   -0.4283586101    1.2082319362
 C    2.1913060609   -0.2383978624    1.1120717115
 C    2.9163712380   -1.0768081541    2.1432109257
 O    3.6947176541   -0.6497999485    2.9542590208
 C   -1.4192878048   -0.4085876824    0.0265539503
 C   -2.0773310988   -0.1895735717   -1.2672855505
 N   -2.6090809406   -0.0143867641   -2.2774357502
 H    1.0985765376    1.7931058118   -0.2756115078
 H   -0.4765262437    1.7830310582   -1.0696894078
 H   -0.3757756838    2.0564793349    0.6893721376
 H    0.2977252086    0.0564977337    2.1312692811
 H    0.4589138625   -1.5004713549    1.3087178908
 H    2.5112277838   -0.5789896938    0.1174812795
 H    2.4960546436    0.8019693781    1.2422979851
 H    2.6742150670   -2.1654777514    2.0986046223
 H   -1.4393903127   -1.4840161947    0.2343769725
 H   -2.0366786439    0.0785811619    0.8065109268