20

 C   -0.0671718082    1.4958818395    0.1363693502
 C    0.0320410397    0.0074295257    0.0135289294
 C    0.0205654615   -0.7447336271   -1.0954322811
 C   -0.0946541207   -0.3074004689   -2.5222697624
 C    0.0806805141   -2.2232219827   -0.7705486640
 C    0.5092877861   -2.2406945237    0.7237995604
 C    0.1016837638   -0.8418197125    1.2661255709
 C   -0.0375475025   -3.3576824239    1.4870849296
 N   -0.4781994996   -4.2402021926    2.0902395196
 H    0.8005114260    1.9054584142    0.6691499663
 H   -0.1314992372    1.9938127605   -0.8335773960
 H   -0.9518360164    1.7825806095    0.7197966568
 H   -0.1506650177    0.7784666753   -2.6253454046
 H    0.7617384842   -0.6586984633   -3.1119048087
 H   -0.9898556678   -0.7354185973   -2.9919875074
 H   -0.8999719641   -2.6976531185   -0.9116586971
 H    0.7860232856   -2.7767558012   -1.4001926780
 H    1.6010842815   -2.3169473862    0.7642649096
 H    0.8211338840   -0.4683681001    2.0032012598
 H   -0.8722819225   -0.8768098770    1.7729260467