19

 C   -0.0416439349    1.5254206177    0.2536969198
 C    0.1488100507    0.0463554480    0.0859681408
 C   -0.6891654925   -0.9586709076    0.8011491518
 C    0.7971682361   -0.8945555765    1.1447653166
 C    1.7240948754   -1.7938498780    0.3475756497
 C    1.2535511785   -1.5882871861   -1.1097859287
 O    0.6707487655   -0.2882416853   -1.1683213422
 C    1.2104137986   -0.3478825575    2.4474519704
 O    0.4806870199    0.2397795640    3.2163201253
 H    0.8714322392    2.0621703568   -0.0196113304
 H   -0.8502405667    1.8752225360   -0.3961134339
 H   -0.2991488410    1.7596339510    1.2882832881
 H   -1.3412279603   -0.5795383909    1.5807678194
 H   -1.0515597730   -1.8363595623    0.2767327192
 H    2.7607029189   -1.4632880348    0.4803932578
 H    1.6698667713   -2.8479554299    0.6363730127
 H    2.0635783002   -1.6218686237   -1.8424905363
 H    0.5139849399   -2.3507541651   -1.3887648838
 H    2.2896944742   -0.4877592459    2.6844376137