17

 O    0.0591378615    1.4085381139    0.2375772974
 C    0.0386123902    0.0269951460   -0.0161140948
 C   -1.4050058170   -0.5128513943   -0.0472160405
 O   -2.0548769417   -0.1321682577    1.1762544974
 C   -1.9401807236   -1.1062843202    2.2073941796
 C   -2.5018278039   -0.5748811575    3.4403401040
 C   -2.9566012191   -0.1570470420    4.4698649070
 C   -2.1777158513    0.0265376259   -1.1619441718
 C   -2.7902353279    0.4503536825   -2.1036085658
 H   -0.5714467058    1.5573819269    0.9540604976
 H    0.5199181929   -0.1450260406   -0.9836364048
 H    0.6034313074   -0.5383306250    0.7449212157
 H   -1.3780155324   -1.6106746375   -0.1288080164
 H   -2.4740358418   -2.0248716373    1.9159291356
 H   -0.8883280977   -1.3852540613    2.3755746072
 H   -3.3619006180    0.2170358145    5.3775732960
 H   -3.3361134019    0.8335555938   -2.9301982434