16

 C    0.0315033187    1.4309483268    0.0964169516
 O    0.0499690612    0.0097737534   -0.0139385758
 C    0.6192400028   -0.6740214235    0.9838454814
 C    0.7794352552   -2.0144232329    1.1479685273
 C    1.4607685725   -2.1713426480    2.4092739629
 C    1.8726001424   -3.4595006185    3.0503787846
 C    1.6516525966   -0.9192330582    2.8943792462
 O    1.1358195500    0.0190249639    2.0226868770
 H    1.0464951425    1.8385431917    0.1459651638
 H   -0.4681942247    1.7896907399   -0.8038953589
 H   -0.5236867492    1.7531123688    0.9834189512
 H    0.4579926271   -2.7849456548    0.4670876553
 H    2.5615593416   -4.0222655941    2.4102242593
 H    2.3729205867   -3.2829260610    4.0066311771
 H    1.0083052194   -4.1066311662    3.2384741038
 H    2.1057294972   -0.5224226073    3.7859901934