19

 C   -0.1664656763    1.3370054477    0.1804220475
 O   -0.3617891107   -0.0253303758   -0.1476849890
 C    0.5925677824   -0.5434152182   -1.0583431104
 C    1.9540274147   -0.7210989312   -0.3835794736
 O    3.0044932009   -0.5862938635   -0.9543654308
 C    0.0655395232   -1.8986968656   -1.4991075517
 O   -0.2287241844   -2.7411580031   -0.4211335741
 C   -0.7764379714   -2.0004249683   -2.7478602695
 C    0.6317622883   -2.5647225894   -2.7095502917
 H    0.8100147160    1.5152135921    0.6535928788
 H   -0.2398238995    1.9767540406   -0.7110621106
 H   -0.9541110743    1.6141160249    0.8842942148
 H    0.7244616988    0.1140507261   -1.9295665790
 H    1.8910131681   -1.0156040192    0.6871774766
 H   -0.8541497701   -2.2581039390    0.1336274445
 H   -1.5951065353   -2.7098808566   -2.7143842575
 H   -0.9644423469   -1.1049468261   -3.3301441810
 H    1.4172466388   -2.0567496426   -3.2576480764
 H    0.7370534479   -3.6417511228   -2.6523320571