20

 C    0.6488734824    0.2187831778   -1.0308421374
 N   -0.0919436302    0.0688606656    0.2231675252
 C    0.0243144467    1.2462801614    1.0738736397
 C   -1.4047360853   -0.4046696915    0.0775641805
 C   -2.6408060929    0.2175197819    0.1635302643
 C   -3.5702968690   -0.8176400954   -0.0510689819
 N   -2.9774680079   -1.9889462111   -0.2586913809
 N   -1.6538829378   -1.7252446647   -0.1630980263
 C   -0.6931057207   -2.7975822817   -0.2833299592
 H    1.7051210970    0.3980477492   -0.8066792832
 H    0.5772619228   -0.6938434959   -1.6258747952
 H    0.2750292530    1.0572783554   -1.6421675531
 H   -0.3851026345    2.1589736625    0.6076308490
 H   -0.5014858819    1.0727418961    2.0150465211
 H    1.0816804167    1.4270937556    1.2915528185
 H   -2.8321551825    1.2616584915    0.3475224054
 H   -4.6491411999   -0.7576807837   -0.0646367167
 H   -0.4138747657   -2.9800113256   -1.3277308317
 H    0.2003591973   -2.5322869857    0.2854048244
 H   -1.1409517674   -3.7055454316    0.1221409076