17

 O    0.0116272066   -0.0252819531    0.2801369949
 C   -0.0363275216    1.1433469069    0.0558368337
 C   -1.2165510736    2.1540045887   -0.2087338659
 C   -0.1491361764    2.9919105189   -0.9080493590
 C    0.4308997942    4.3439121617   -1.3397914248
 C    1.2874435409    3.3257704434   -2.1708349457
 C    2.1383135552    2.4863512198   -1.1676847021
 C    0.9994738769    2.2840312067   -0.1416836126
 O    0.0978169035    2.4882066551   -2.2578010168
 H   -2.0652446756    1.8128582232   -0.8029331885
 H   -1.5640972187    2.5819546147    0.7363062442
 H   -0.2196021537    4.9219858198   -1.9967960594
 H    0.9104619604    4.9718313231   -0.5847956096
 H    1.7194288625    3.5866009221   -3.1369744454
 H    2.4882846041    1.5695213659   -1.6461538599
 H    2.9980270557    3.0180503595   -0.7513479388
 H    1.2084074096    2.7220999236    0.8410482859