19

 C   -0.0398401320   -1.2477948691   -0.0391458082
 C   -0.0167585601   -0.0457013947   -0.0241090495
 C    0.0162652094    1.4125180138   -0.0003327148
 C   -0.6444164258    2.0388308984    1.2713241957
 C    0.2291411484    3.2525792991    1.6106484423
 C   -0.3395171735    4.6549071280    1.7337998698
 C    0.1652877777    3.9332216324    2.9557149249
 C    1.5089321664    3.0155416139    0.8929131201
 C    1.4191082207    2.0096019483    0.0257574508
 H   -0.0599780258   -2.3091541345   -0.0537037673
 H   -0.5014990801    1.7735288053   -0.9023165118
 H   -1.6946252753    2.2919179751    1.1068174744
 H   -0.6006783753    1.3082578631    2.0846569896
 H    0.2468603050    5.4804466404    1.3440308899
 H   -1.4117045495    4.7742074053    1.6152125713
 H   -0.5648219328    3.5640846127    3.6691758828
 H    1.0946149409    4.2681052948    3.4052633100
 H    2.3890458168    3.6284696868    1.0568586218
 H    2.2031120550    1.6529723107   -0.6304120719