17

 N   -0.1210769205   -1.1120423686   -0.1559561422
 C   -0.0650338353    0.0411884379   -0.1152850013
 C   -0.0041041478    1.4980669782   -0.0364676256
 C    1.4318287420    2.0330133199    0.0678098866
 O    2.1221829223    1.6608379821   -1.1196699085
 C    3.0389471990    2.6815345292   -1.5066603447
 C    2.5203609138    3.9555216944   -0.8754919137
 N    1.0831146391    4.1713964330   -1.1386529705
 C    1.5153317848    3.5479117639    0.1293626048
 H   -0.4629939331    1.9374131008   -0.9269321882
 H   -0.5811006957    1.8222987131    0.8372418190
 H    1.9238885876    1.6071393598    0.9565275404
 H    4.0535846114    2.4689903378   -1.1360596459
 H    3.0597560728    2.7069807885   -2.6004527721
 H    3.1806667007    4.8032105101   -0.7294273884
 H    0.8544153150    5.1480325005   -0.9699016148
 H    1.3778613037    4.0632852496    1.0735621851