23

 C   -0.1451278926    1.4895012836   -0.2805181057
 C   -0.0123923110   -0.0113293102   -0.0363410348
 O    0.8184345865   -0.3100788670    1.0844427601
 C   -1.3781044117   -0.6679062724    0.1481144036
 O   -2.2394172804   -0.4829137509   -0.9952932999
 C   -2.5567018275   -1.8973359597   -1.0534605260
 C   -2.3859941652   -2.4660101871   -2.4479541370
 C   -1.5260353804   -2.2113744044    0.0718500369
 C   -0.2981885348   -3.0512394875   -0.2615417909
 H    0.8386748205    1.9414376292   -0.4330424458
 H   -0.7677165866    1.6769011994   -1.1594472988
 H   -0.6210849707    1.9808103773    0.5782412501
 H    0.4933720738   -0.4696732402   -0.8922823224
 H    0.4639644723    0.1652353191    1.8444957573
 H   -1.8402116061   -0.2432984403    1.0565355972
 H   -3.5915348627   -2.0614321802   -0.7193424609
 H   -1.3708727437   -2.3157204219   -2.8239865645
 H   -2.6090400618   -3.5384418653   -2.4580002603
 H   -3.0784013857   -1.9697636762   -3.1354895107
 H   -2.0037204721   -2.6231951145    0.9646209284
 H    0.1914731828   -2.7343698063   -1.1862750965
 H    0.4392220658   -2.9752305989    0.5419894542
 H   -0.5727867289   -4.1046997354   -0.3790000134