23

 C   -0.1549237258    1.3573885450    0.0905390500
 O   -0.1057511747   -0.0441879821   -0.0110222006
 C    0.6954900526   -0.4901223584   -1.0846421109
 C    0.6915980790   -2.0143970936   -1.0777034532
 C    1.4078100275   -2.6563376564   -2.2771877034
 C    2.9051035498   -2.3256285116   -2.3251291539
 C    1.1790398060   -4.1893445538   -2.2468869786
 C    1.6777552880   -4.8836355084   -3.4278404448
 C    2.0862159214   -5.4378610568   -4.4136812719
 H    0.8436221176    1.7923127300    0.2588305053
 H   -0.5787420756    1.8200294622   -0.8154807627
 H   -0.7937121367    1.6029954173    0.9425961903
 H    0.2978089225   -0.1108388934   -2.0432983287
 H    1.7185858411   -0.0925341963   -0.9823453183
 H    1.1452696578   -2.3639310434   -0.1410485518
 H   -0.3555602007   -2.3396872920   -1.0569932259
 H    0.9421245903   -2.2806148976   -3.1983767461
 H    3.0796152031   -1.2542470470   -2.4577099886
 H    3.4014536853   -2.6328180274   -1.3963188526
 H    3.3895362413   -2.8486958854   -3.1540731226
 H    1.6572785908   -4.6052218561   -1.3491773094
 H    0.1055736232   -4.3906247262   -2.1394340421
 H    2.4441519060   -5.9380924884   -5.2790069094