15

 O    0.7107740833    1.8235469150    0.8222063738
 C    0.2424539543    0.6220494101    0.2699068373
 C    0.4060151334    0.6654316644   -1.2819506743
 C   -0.0580808634   -0.5196780394   -1.9871653090
 C   -0.4371935572   -1.5086383327   -2.5553031066
 C    1.0295835705   -0.5508675267    0.8361024566
 O    2.1493224469   -0.4009164880    1.2737624250
 C    0.3835008399   -1.9351964523    0.9198655769
 O   -0.8070123904   -2.0966986292    0.9116117190
 H    1.6219737344    1.6554528131    1.1052352159
 H   -0.8168089595    0.4949142306    0.5135205245
 H   -0.1347755001    1.5544489091   -1.6230034915
 H    1.4680315965    0.8427107999   -1.4929455921
 H   -0.7808639996   -2.3783348114   -3.0588093943
 H    1.1171653509   -2.7533830326    1.0702393987