15

 C   -0.0199780876    1.4272174971    0.1824271605
 C   -0.0115329155   -0.0136367052   -0.0260179357
 C    0.0030394178   -1.2056727666   -0.1918522056
 C   -0.0126598154   -2.6510190788   -0.3956623023
 C   -1.3863722806   -3.2635137489   -0.1799527758
 C   -1.5448479681   -4.6500951704    0.2715042578
 O   -1.7556589456   -3.5543219752    1.1650650919
 H    0.6860515731    1.7194768373    0.9676042890
 H    0.2579223376    1.9658518086   -0.7303576788
 H   -1.0129036836    1.7780987926    0.4846752121
 H    0.3179053414   -2.8874519157   -1.4167816055
 H    0.6942798994   -3.1407600369    0.2853059206
 H   -2.1842369769   -2.8186771552   -0.7754853672
 H   -2.4359564961   -5.2130671070   -0.0022523849
 H   -0.6602169199   -5.2533584860    0.4738327140