15

 N    0.0524203491    1.1456381528    0.5354749929
 C    0.0018863923   -0.0168982626    0.0813743610
 O    1.0136878397   -0.8377000973   -0.4159108080
 C    0.0647940461   -1.9056906650   -0.7127818784
 C   -0.0674018552   -2.9174394023    0.4541015843
 C   -1.2043789964   -2.0467621186    1.0718875853
 C   -1.0919155361   -1.0383863179   -0.1132585002
 C    0.1544185725   -2.3713662087   -2.0791634478
 N    0.1967729512   -2.7720175323   -3.1624345219
 H    1.0010276667    1.5231326485    0.5241151999
 H   -0.3988680138   -3.9042493414    0.1269358155
 H    0.8526540068   -3.0184479086    1.0312536845
 H   -2.1674162725   -2.5580023811    1.0924011040
 H   -1.0129109389   -1.6169377938    2.0556044005
 H   -1.9888271514   -0.7395276917   -0.6494139718