20

 N   -0.0197781303   -1.1891178408    0.0944329384
 C   -0.0084663648   -0.0340087708    0.0981948948
 C   -0.0003421989    1.4273024148    0.0766535859
 C    1.4174959782    2.0132844936    0.0244171952
 C    1.4091963665    3.5367850044   -0.1497603678
 C    2.8414215816    4.0858631861   -0.0590332540
 C    3.5277826982    3.5775060973    1.2163434041
 C    3.4036459713    2.0560730498    1.3073838768
 O    2.0460069623    1.6403507321    1.2370628804
 H   -0.5748383310    1.7700140354   -0.7904632711
 H   -0.5034953267    1.7992780402    0.9757748130
 H    1.9590476313    1.5596874949   -0.8242262631
 H    0.9509791757    3.8001797281   -1.1100064842
 H    0.7893091764    3.9767023031    0.6423303622
 H    3.4116341401    3.7522227696   -0.9366550973
 H    2.8328002938    5.1800885301   -0.0885314565
 H    4.5850729846    3.8644142540    1.2333193316
 H    3.0533862299    4.0244084977    2.0985347902
 H    3.9812721017    1.5802712341    0.4965926695
 H    3.7847709800    1.6754847962    2.2586640020