19

 N   -0.1087187258    1.3752716756   -0.0117979888
 C    0.0772819696    0.0231882482   -0.0121724008
 O    1.1845858330   -0.4785409650   -0.0453911651
 C   -1.2158954457   -0.7948325221    0.0299886968
 C   -0.9700589993   -2.2862283143   -0.0009956680
 C   -0.1894391697   -3.1780794974    0.9932624820
 N   -0.6785328536   -4.2097345184   -0.0401738119
 C   -2.0053653840   -3.4341046338    0.0222527185
 C   -0.2692818668   -3.1480672182   -1.0778599717
 H    0.7030886959    1.9704237733   -0.0234670956
 H   -1.0197169198    1.7961191379    0.0330641465
 H   -1.7745266647   -0.5241154493    0.9363726059
 H   -1.8499102691   -0.4991176933   -0.8168609216
 H    0.8948121017   -3.0649184329    1.0280056707
 H   -0.6152409700   -3.3307696935    1.9901359839
 H   -2.5677603203   -3.6049053631    0.9456768297
 H   -2.6373999646   -3.5786682394   -0.8596896909
 H   -0.7705549779   -3.2723230941   -2.0430794231
 H    0.8093332009   -3.0330366703   -1.1925568665