19

 C    0.0140856897    1.3450951251    0.7131828207
 C    0.0109232634   -0.0183926969    0.0492023140
 C    0.9166578915   -0.2609488020   -1.1315926314
 C    1.2211931242   -0.9074938886    0.1993139270
 C   -1.3409707514   -0.6991660535    0.0438059588
 C   -2.2544275709   -0.5429338263   -1.1089100903
 O   -1.5216005793   -1.7513998355   -0.9208658196
 C   -1.9083565431   -0.9697055203    1.3471527585
 C   -2.3547639466   -1.1765998579    2.4438459619
 H    1.0211830831    1.7720126841    0.7079614884
 H   -0.6491187170    2.0441231030    0.1902975688
 H   -0.3203578885    1.2795289333    1.7534762015
 H    0.5563466132   -0.9092518347   -1.9210456858
 H    1.5385011938    0.5648225476   -1.4604149624
 H    2.0554455338   -0.5331536567    0.7827518484
 H    1.0564123265   -1.9762415554    0.2796153522
 H   -3.3290106523   -0.6208120785   -0.9580194672
 H   -1.9301766697    0.0745887106   -1.9451654342
 H   -2.7564406504   -1.3681858474    3.4082584105