17

 O    0.0419380615    1.0874895624   -0.6734476535
 C    0.0156376344   -0.0422103576    0.1949047684
 C   -1.3701201109   -0.6255368932    0.1497708453
 C   -1.9307961960   -1.2439669064   -1.1208354006
 N   -1.0227760585   -1.7140161145   -2.1264081410
 C   -0.1401840148   -2.6617662095   -1.6106367255
 O    0.8671507241   -3.0804324998   -2.1330893377
 N   -0.6478952474   -3.0299091012   -0.3647755896
 C   -1.6638668601   -2.1231065700    0.0759880834
 H    0.9268953880    1.4644635205   -0.6422833527
 H    0.7634279328   -0.7869688638   -0.1091089714
 H    0.2527716408    0.2482814547    1.2301471197
 H   -2.1156244237   -0.0719050865    0.7142230167
 H   -2.9328855019   -0.9945843790   -1.4493298517
 H   -0.6489113902   -1.0842849568   -2.8190317312
 H   -0.0204381655   -3.4973768180    0.2690037078
 H   -2.4614433325   -2.5421693614    0.6781802236