20

 C   -0.0240377831    1.5919298508    0.0235795062
 C   -0.0113390791    0.0534915635   -0.0077061299
 C    0.6987220637   -0.5001200979   -1.2201327954
 C   -0.0016856259   -0.8167280130   -2.3886089134
 N    0.5666341921   -1.2761354620   -3.5027432049
 C    1.8906488948   -1.4439601839   -3.4912073853
 C    2.7082513424   -1.1746329844   -2.3918530862
 C    4.1972369918   -1.4010484501   -2.4458855075
 C    2.0783518842   -0.6932429117   -1.2433624611
 H    0.9945934019    1.9929035309    0.0360501146
 H   -0.5282518163    1.9965743121   -0.8595418492
 H   -0.5451849678    1.9604511985    0.9126598783
 H    0.4702348082   -0.3232225118    0.9021791142
 H   -1.0428232729   -0.3165057539    0.0089699245
 H   -1.0835160315   -0.6936984797   -2.4173794136
 H    2.3334918456   -1.8207738297   -4.4117734964
 H    4.7504389757   -0.4800258286   -2.2310225968
 H    4.5152972166   -2.1464174028   -1.7082108560
 H    4.5073409822   -1.7550570083   -3.4326739442
 H    2.6687001771   -0.4705363980   -0.3567814678