13

 O   -0.0383090522   -0.0725472786    0.0033556466
 C   -0.0459592058    1.1408660784    0.0099700186
 C   -1.2814723723    1.9360802489    0.0315206852
 C   -1.2303218942    3.2810445181    0.0376869090
 N   -0.0119768868    3.9150267285    0.0235239128
 C    1.1424272726    3.1631804035    0.0030225591
 N    1.1704468451    1.8730041398   -0.0038547256
 C    2.3563835074    3.9259800288   -0.0102574655
 C    3.3556794521    4.5937596549   -0.0209250999
 H   -2.2276315058    1.4114308565    0.0423028352
 H   -2.1003464455    3.9263595156    0.0534208937
 H    0.0551005344    4.9199591844    0.0277534909
 H    4.2558831611    5.1588427612   -0.0305437501