17

 O   -0.0717501017    1.3707159127    0.0180917336
 C    0.0080960266   -0.0456211681    0.0207287707
 C    0.4511426585   -0.6467865200    1.4109911376
 C   -0.8842339072   -1.3323845648    1.7615892176
 C   -1.2711501797   -2.0764152466    0.4632054468
 C   -1.4478579368   -0.6024706417    0.0466976553
 O   -1.8563546821   -0.2988196262    1.4073414711
 C    0.7951312032   -0.5252128687   -1.1124497151
 C    1.4564504472   -0.8890175265   -2.0491868891
 H    0.8105240414    1.7151092073   -0.1557828140
 H    1.2954133435   -1.3355582235    1.3404625219
 H    0.6850903781    0.1647594823    2.1022184122
 H   -1.0171956993   -1.7469183105    2.7604508389
 H   -0.5300757791   -2.6944130544   -0.0477845046
 H   -2.2321310423   -2.5827932312    0.5524766054
 H   -2.1217213272   -0.2439667523   -0.7293880702
 H    2.0331385369   -1.2139605278   -2.8799617981