16

 O   -0.7555807481    1.1838847700    0.7311633744
 C    0.1750735538    0.8989595418    0.0161311162
 C    1.4161902265    1.7289962299   -0.1217853213
 C    1.7069448282    2.7707301460    0.9885567942
 N    1.9281004391    3.8467237550   -0.0215304004
 C    1.5337819954    2.9496951146   -1.1240345688
 C    2.7456582619    2.2160560009   -1.7425947717
 N    2.5335771736    1.0681083650   -0.8154522249
 H    0.1689274291   -0.0032374562   -0.6338907637
 H    0.8239244010    2.9153350233    1.6191472913
 H    2.5787837362    2.5686640390    1.6211600784
 H    1.2953968639    4.6284965025    0.0986329309
 H    0.7287826181    3.2877358468   -1.7782260542
 H    2.6412479759    1.9192840482   -2.7923721413
 H    3.6781877737    2.7737133031   -1.6111572715
 H    3.3246810917    0.8246408602   -0.2290411676