14

 C   -0.2391967598    1.4800993031    0.1664333060
 C    0.3203702150    0.0898182132   -0.1594053455
 C    0.9788746295   -0.5416901062    1.0399707975
 O    0.1249999847   -1.0609845868    2.0623134871
 C    0.9296040768   -1.9913551445    1.3369484088
 C    0.2339427806   -2.9134478085    0.4642207078
 N   -0.2962614178   -3.6664922817   -0.2342641069
 H    0.5512265293    2.1599557335    0.5022835743
 H   -0.7100783133    1.9237754882   -0.7147805050
 H   -0.9901766436    1.4179915293    0.9593367762
 H   -0.4781136166   -0.5665391766   -0.5190881275
 H    1.0648469572    0.1591683983   -0.9624452238
 H    1.8510650122   -0.0144442643    1.4325953211
 H    1.7395383257   -2.4461350069    1.9047369398