14

 O    0.2615561373    1.5031326425    0.2350374765
 C   -0.0085197781    0.1720670994   -0.0028493425
 C   -1.5077492672   -0.2700232395   -0.1764042525
 C   -1.1506132562   -1.1010544920   -1.4399642617
 C    0.1936796744   -0.3648109153   -1.4779208221
 O    1.0022705877   -0.1216908639   -2.3174417339
 C    0.7226597739   -0.7094484279    0.9848760893
 O    1.4904180887   -0.2394378268    1.7894557785
 H    0.9282604037    1.5208542081    0.9424414774
 H   -1.9557452871   -0.8075490060    0.6610220738
 H   -2.1089642234    0.6100211571   -0.4083385052
 H   -1.0166679902   -2.1695995457   -1.2388435653
 H   -1.7809901019   -0.9917447620   -2.3245218081
 H    0.5188855383   -1.7972779680    0.9351579357