19

 C   -0.2551173540    1.4743965708    0.1585853007
 C    0.0366223928   -0.0020600975    0.0948820705
 O   -1.1039180220   -0.7387803591   -0.2378243723
 C    1.3850133232   -0.5012647539   -0.4166135139
 C    1.0152639114   -0.6802674559    1.0262833303
 C    1.6994929229   -0.0607717397    2.2429366603
 O    1.4579958316   -0.9994898354    3.2922766518
 C    0.4658203423   -1.8773332696    2.8260104605
 O    0.6587762154   -1.9929303672    1.4281520984
 H    0.6427988098    2.0513829116    0.3967241793
 H   -0.6309400096    1.8211458368   -0.8094926036
 H   -1.0193168830    1.6871679679    0.9130242112
 H   -1.0023610463   -1.6043443650    0.1817280640
 H    1.3782631513   -1.3938333942   -1.0336774236
 H    2.1595261814    0.2207603402   -0.6581455330
 H    2.7828307248    0.0364179079    2.1157605597
 H    1.2827789755    0.9224530253    2.4964959910
 H    0.6013733955   -2.8592639784    3.2863730972
 H   -0.5438838329   -1.4837453646    3.0398860514