18

 C   -0.0116135087    1.5789236143   -0.1174906313
 C    1.4806089943    1.9895904869   -0.0387927108
 C    2.1478830932    0.8682944729    0.7775121835
 O    1.8990090565    1.0533590581    2.1767692882
 C    0.6963846117    0.3844834553    2.5511589458
 C    0.3316588235   -0.5417645233    1.4044325582
 C    0.0004399909    0.0566753121    0.0474485495
 C    1.4050487833   -0.4101399030    0.3620907584
 H   -0.6039756427    2.0694175059    0.6633082113
 H   -0.4601697853    1.8615209077   -1.0737485150
 H    1.9133145770    2.0017844039   -1.0462224808
 H    1.6473975227    2.9704089378    0.4138896849
 H    3.2317216690    0.8254192197    0.6437519654
 H    0.8837804122   -0.1844182016    3.4704707457
 H   -0.0930388800    1.1195094477    2.7694856482
 H   -0.0928869047   -1.5101478135    1.6441652974
 H   -0.6402174201   -0.5390319080   -0.5936877832
 H    1.9047759873   -1.2462930028   -0.1093173354