18

 C    0.0079471719    1.5486708470   -0.0042406731
 C    0.0287864348    0.0346242610   -0.0658133789
 N   -1.1127161137   -0.6803493680    0.4558399067
 C    0.6441164206   -0.7500554499   -1.2058878099
 C    1.9274936760   -0.1078034591   -1.7346653558
 N    2.4665426635    0.0379706227   -0.3387363522
 C    1.3150485540   -0.7413459926    0.1766567312
 C    1.4615027666   -1.7592747899    1.1613808215
 N    1.6324561295   -2.5671658542    1.9732877607
 H    0.9621975169    1.9866671382   -0.3011077640
 H   -0.7823052182    1.9437610241   -0.6527953272
 H   -0.2034872083    1.8756556680    1.0199463712
 H   -1.2768638135   -0.4332343035    1.4273740062
 H   -1.9498488815   -0.4331359194   -0.0635572570
 H    0.0912392924   -1.5525925516   -1.6748534801
 H    2.5080468653   -0.8081811971   -2.3417070545
 H    1.8337903404    0.8415466516   -2.2719722578
 H    3.3317481632   -0.4788440372   -0.2243053971