18

 C    0.0406630150    1.4152755222    0.0958775539
 C   -0.0346463281   -0.0976670116    0.0932011842
 O   -0.2533926980   -0.7465865584    1.0832620214
 C    0.1553229781   -0.7762654149   -1.2924684224
 C    0.7991777655   -2.0751515448   -1.1572224995
 C    1.3254473053   -3.1496362384   -1.0450562371
 C   -1.2333678469   -0.8535880513   -1.9525864654
 C   -1.6083521569   -1.9623848882   -2.8607536983
 N   -2.2110567460   -1.8512452297   -1.5189443466
 H    1.0736774871    1.7269181577   -0.1007974266
 H   -0.5773024848    1.8435070827   -0.7003959920
 H   -0.2761951052    1.8021357334    1.0647146599
 H    0.7788978387   -0.1227366888   -1.9173135223
 H    1.8026652993   -4.0922717902   -0.9352363836
 H   -1.6631291034    0.1298361670   -2.1348060795
 H   -2.2885219735   -1.7729718898   -3.6862677010
 H   -0.8726379977   -2.7416362073   -3.0335952172
 H   -1.7598815586   -2.5098920396   -0.8858557281