14

 N   -0.0468549305    1.2690343007   -0.0236587647
 C   -0.0272022219    0.0148735929   -0.0131147941
 O    1.1023089018   -0.7922423394   -0.0055690048
 C    0.6038837755   -2.1320428732    0.0143783246
 C   -0.6232915239   -2.0668249043   -0.8961295791
 C   -1.2132930171   -0.9388864816   -0.0080361369
 C   -1.1287747316   -1.6490895965    1.3548906251
 O   -1.8564144526   -1.6262299656    2.2944331275
 O    0.0401800136   -2.3860021484    1.3084264687
 H    0.8996130156    1.6535812477   -0.0278821891
 H    1.4165562251   -2.8280559450   -0.1690760412
 H   -0.3873832861   -1.7529741911   -1.9137148759
 H   -1.2087873580   -2.9869337546   -0.8966230530
 H   -2.1735471198   -0.4879992015   -0.2297114671