21

 C    0.2605935626    1.3991724233    0.0094704476
 C   -0.1167059546   -0.0994044695   -0.0015782734
 C   -1.6465834808   -0.2460394081    0.0214059066
 C    0.5340620482   -0.8439499454   -1.2112951019
 C    1.8384639913   -1.4876261262   -0.6785590606
 C    1.6027411140   -1.5333495593    0.8145027787
 C    2.4525480618   -2.2680310074    1.7530242200
 O    3.4282636993   -2.9109817325    1.4310010871
 C    0.5450465400   -0.7912389259    1.1711556663
 H    1.3442341235    1.5366164235   -0.0569656242
 H   -0.2016910270    1.9140856378   -0.8398589327
 H   -0.0843271500    1.8888767487    0.9265281306
 H   -2.0883254839    0.1952347315   -0.8787925520
 H   -1.9434453125   -1.2988225113    0.0613552081
 H   -2.0828860557    0.2623151612    0.8884109739
 H   -0.1458294094   -1.6312219969   -1.5531135910
 H    0.7044839412   -0.1757782648   -2.0599440376
 H    2.0318191740   -2.4787958546   -1.0982819821
 H    2.7269876914   -0.8846044995   -0.9037727864
 H    2.1348331873   -2.1994642589    2.8181783244
 H    0.2063771093   -0.6511959055    2.1945147284