19

 C   -0.3212279837    1.4478400584    0.0463800684
 C    0.0552820752   -0.0213284242    0.0219053199
 O    1.2680280323   -0.2509069237   -0.7520431760
 C    1.9671766858   -0.8105333609    0.3763676392
 C    0.7275542515   -0.6457838121    1.2488658968
 C    0.7341467786   -0.3112570679    2.7189837082
 C   -0.6970663366   -0.1228948668    3.2137649029
 O   -1.1224483847   -1.3714251137    2.6003049656
 C    0.2260625714   -1.6541713953    2.2162602393
 H    0.4597147581    2.0479078289    0.5230349748
 H   -0.4543144670    1.8075402798   -0.9787975608
 H   -1.2629238701    1.6011616924    0.5832319489
 H   -0.7733967048   -0.6242201435   -0.3719147262
 H    2.2933237425   -1.8432601544    0.1935550912
 H    2.8402000753   -0.2071124959    0.6600920464
 H    1.6356610248   -0.0493166648    3.2581064179
 H   -0.7864371109   -0.1873088548    4.3039192683
 H   -1.2641973652    0.7391013696    2.8469915157
 H    0.5847964373   -2.6733094110    2.3172321395