19

 C   -0.1311917499    1.5749687609    0.0578003726
 C    0.0673738787    0.0677261029   -0.0045097736
 C    0.8197952761   -0.6075783049   -1.2115455792
 C    2.1024350301    0.1922218122   -1.5315579775
 C    3.0333895662    0.1542437196   -0.3030110703
 O    2.3248214871    0.2068225546    0.9369448745
 C    1.1449774524   -0.5849857946    0.9260466955
 C    1.1982568061   -1.6835483430   -0.1765318140
 O    1.2689164038   -2.8768667080   -0.1755593923
 H    0.8216754797    2.1038826610    0.1224206482
 H   -0.6754987821    1.9401549580   -0.8193292620
 H   -0.7140504931    1.8419171555    0.9452535446
 H   -0.8873890570   -0.4490384972    0.1436126905
 H    0.2564550214   -0.8990729793   -2.0990117708
 H    2.6257882871   -0.2541463458   -2.3833616517
 H    1.8407698134    1.2174115063   -1.8103870910
 H    3.6222339952   -0.7752767816   -0.3339337697
 H    3.7322704849    0.9942121081   -0.2914148030
 H    0.9001871900   -0.8476457548    1.9560853290