21

 C   -0.3743386059    1.4341981791    0.1415431428
 C    0.0806150191   -0.0085233826   -0.0437141119
 C   -1.0455740830   -1.0522050206    0.2580775759
 C   -0.3519624631   -1.4145848265    1.6005807948
 C    0.9049622275   -0.6138075958    1.1533403513
 C    2.0063936888   -1.4206258564    0.5006442376
 O    1.5222395271   -2.4285911857   -0.4042375233
 C    2.0068645895   -1.1976929584   -0.9560427554
 C    0.9109236796   -0.2208596066   -1.3346087547
 H    0.4778606256    2.1237649850    0.1529737622
 H   -1.0435113226    1.7421132043   -0.6707154247
 H   -0.9198074843    1.5613659854    1.0832452912
 H   -2.0559217037   -0.6391867058    0.3317053686
 H   -1.0509344675   -1.8835691213   -0.4478145224
 H   -0.8412197268   -0.9697187397    2.4705186376
 H   -0.1961424140   -2.4777369144    1.7921049764
 H    1.3213418460    0.0933081041    1.8776216498
 H    2.9007545242   -1.6991019008    1.0537919974
 H    2.9022465698   -1.2894516426   -1.5675525823
 H    0.2986629026   -0.5931317496   -2.1637378488
 H    1.3698522811    0.7192266790   -1.6667365224