21

 O    0.0014427987    1.2642624099   -0.5477097457
 C   -0.0201615329   -0.0153663422    0.0725530897
 C   -1.4459899019   -0.5031066196    0.1007487808
 C   -1.9671903977   -1.1961163385   -1.1351529201
 C   -1.6650648394   -1.9982494865    0.1211535360
 C   -3.0635080676   -2.5820434621    0.4083125338
 C   -3.4640385422   -3.0520590439   -1.0362088633
 C   -3.4706095869   -1.5019606167   -1.2907571040
 C   -4.0385932642   -1.4010383167    0.1512148890
 H    0.8964280666    1.6107072738   -0.4836016028
 H    0.6087059202   -0.7347102260   -0.4780095094
 H    0.3708670718    0.0381054435    1.1014911159
 H   -2.0968807346    0.1514137111    0.6696618347
 H   -1.3349939002   -1.2386935910   -2.0152452179
 H   -0.8074878986   -2.6593247468    0.1914382961
 H   -3.1681356156   -3.2303855103    1.2788824079
 H   -2.7375900394   -3.6522743340   -1.5916582230
 H   -4.4576524450   -3.5068333064   -1.0865558160
 H   -3.9876824802   -1.0562753344   -2.1407794662
 H   -5.0787083288   -1.7310984159    0.1914989336
 H   -3.9365335222   -0.4739330474    0.7159395910