19

 C   -0.0598791888    1.5403453591    0.0140977046
 C   -0.0617410962    0.0399223226    0.1117862372
 C   -1.2998428515   -0.7638605044   -0.2970746921
 C   -1.2744748033   -2.0672862150    0.5082834940
 C   -0.1814030889   -3.0745312256    0.2656362395
 O    0.5982631252   -3.1384741074   -0.8776044241
 C   -0.0067726997   -2.0584625030    1.3832943853
 C    0.6982221518   -0.7604789808    1.0912861284
 O    1.1803751109   -0.5984879031   -0.2719613400
 H    0.8943133286    1.9458505783    0.3591461245
 H   -0.2116549891    1.8623078399   -1.0219694895
 H   -0.8650905646    1.9682556229    0.6201015701
 H   -2.1996146198   -0.1906521284   -0.0524221986
 H   -1.3090575998   -0.9379215930   -1.3796929812
 H   -2.2199649589   -2.4287995672    0.8992959799
 H   -0.4162987603   -4.0789388314    0.6088430331
 H    0.9961319186   -2.2608356591   -0.9906898794
 H   -0.0056976977   -2.3946075476    2.4141186274
 H    1.3449528839   -0.3150172165    1.8420201509