18

 C   -0.0338583012    1.4349539793    0.0903572692
 N    0.1007277036   -0.0026374854   -0.0256364181
 C    0.5550108978   -0.6087570448   -1.1628346445
 O    0.8845893069   -0.0069624876   -2.1706178916
 C    0.6107709176   -2.0593786859   -1.0608988835
 C    0.6739518278   -3.2629443548   -1.0226359469
 C    0.7649848138   -4.7147167630   -1.0170309769
 C    1.2863857867   -5.2784576839   -2.3446775355
 O    1.3235223013   -6.6868174889   -2.1991481315
 H    0.5961295458    1.8308331948    0.8948884787
 H    0.2851234307    1.8688449136   -0.8578006923
 H   -1.0729773514    1.7238549641    0.2843886493
 H   -0.1460664226   -0.5909837634    0.7529599139
 H    1.4280484879   -5.0498161983   -0.2100144465
 H   -0.2183333535   -5.1553694985   -0.8117700789
 H    0.6180664277   -4.9671679291   -3.1606457529
 H    2.2821011518   -4.8604422743   -2.5524527749
 H    1.6480457196   -7.0673633838   -3.0202812568