21

 C    0.2263509355    1.4930993946   -0.0735900229
 N    0.0201458904    0.0746226940    0.1122893715
 C   -1.3081043946   -0.4030444636    0.5487118266
 C   -0.5849242498   -1.5342940840    1.3346411636
 O   -0.4140055947   -2.7114942433    0.5670259254
 C    0.6562542677   -0.5953740560    1.2653434972
 C   -1.1211166399   -1.9261485686    2.6854360389
 C   -2.0722335771   -3.0564049807    2.8231589590
 N   -0.6881042052   -3.1806101375    3.3173818529
 H    1.2777550088    1.6888528986   -0.3091801615
 H   -0.3783034960    1.8501271904   -0.9139897295
 H   -0.0418186807    2.0888758005    0.8197429980
 H   -1.8262341517    0.3008767503    1.2218164924
 H   -1.9896163223   -0.7094354159   -0.2520716885
 H   -0.0501105604   -2.4429232899   -0.2840517154
 H    1.6277765892   -1.0607892015    1.0664165858
 H    0.7359294626    0.0494278873    2.1564810313
 H   -1.2040120353   -1.0895288080    3.3758095992
 H   -2.8351878248   -3.0271254074    3.5959135658
 H   -2.3418998794   -3.5947068550    1.9204497017
 H   -0.1542141622   -3.7071585244    2.6284456686