22

 C   -1.4837755823   -0.1968497130   -0.2004440027
 C    0.0322196647   -0.2118305210    0.0336943906
 C    0.8520718787   -0.7296854584   -1.1439695544
 C    2.1867267217   -1.3607869543   -0.8292371569
 C    1.0203041001   -2.2277775713   -1.2418468867
 C    0.7174776364    0.0995182276   -2.4351424380
 C    1.2220333453    1.5511190941   -2.2764523751
 C    1.4044937108   -0.5293656646   -3.5687363996
 N    1.9525121492   -1.0112025883   -4.4654798798
 H   -1.7737907090    0.5136718360   -0.9815337522
 H   -1.8470380622   -1.1859311258   -0.4981103915
 H   -2.0120880386    0.0950503455    0.7121056713
 H    0.3713340588    0.7920210106    0.3176870536
 H    0.2524497802   -0.8520831012    0.8955959353
 H    2.9941731064   -1.2449372331   -1.5443108377
 H    2.5072716195   -1.3785467320    0.2069446540
 H    0.5358789685   -2.8338525978   -0.4835649469
 H    1.0633053416   -2.6885653334   -2.2220197226
 H   -0.3447002074    0.1327089841   -2.7105254410
 H    2.2683354282    1.5608606873   -1.9600474489
 H    1.1418225666    2.0934847440   -3.2215477673
 H    0.6285814428    2.0811355852   -1.5282883535