17

 C   -0.0223481681    1.5527667377   -0.0075118889
 C   -0.0377218085    0.0257370528    0.0745403149
 N   -1.3769570602   -0.5285134269   -0.0284911273
 N   -2.0605283055   -0.9380417503    1.0846353645
 N   -3.2317129595   -1.3515252462    0.6970591010
 C   -3.3360978294   -1.2182709543   -0.6536603206
 N   -4.4318103443   -1.5514379895   -1.4834663957
 C   -2.1514451993   -0.6903045221   -1.1166271688
 O   -1.7399050338   -0.3697260379   -2.3545213881
 H    1.0030417704    1.9207750268    0.0926740410
 H   -0.4165991194    1.8957597762   -0.9680532901
 H   -0.6266011500    1.9864570187    0.7937875973
 H    0.5727486280   -0.4115065890   -0.7216276106
 H    0.3510327824   -0.3222035519    1.0339820218
 H   -5.2645116444   -1.0335146935   -1.2181243283
 H   -4.6656017110   -2.5369585845   -1.4048563509
 H   -2.4757163274   -0.5973902660   -2.9419789813