23

 C   -0.1426371547    1.4985401962   -0.0852446346
 C    0.0261111429   -0.0144760794    0.0033628986
 C    1.2107845752   -0.6065490520   -0.8133977803
 C    2.1036928184   -0.4193451591    0.4421928660
 C    0.7831478038   -0.5811273765    1.2609077741
 C    0.6433154584    0.1017044094    2.6097763127
 C    0.4450117384   -2.0874692306    1.3178800040
 C    0.9582007052   -2.8053592429    0.0499441954
 O    0.9619438954   -1.9740097272   -1.1082733789
 H    0.7939915959    2.0399359704    0.0834056164
 H   -0.5085780575    1.7815737999   -1.0784034639
 H   -0.8689624297    1.8617351613    0.6495761815
 H   -0.9294933868   -0.5054963352   -0.2112659168
 H    1.4959475720   -0.1293231604   -1.7543375580
 H    2.9226695459   -1.1231843660    0.6100682188
 H    2.4991988452    0.5969448953    0.5007261418
 H    0.8444453877    1.1753704282    2.5423502217
 H   -0.3672415608   -0.0246738215    3.0168931165
 H    1.3456127616   -0.3230007262    3.3367530368
 H    0.9087992959   -2.5549353279    2.1955137491
 H   -0.6398657953   -2.2045802347    1.4280674253
 H    1.9774569435   -3.1750838659    0.2325561268
 H    0.3420587496   -3.6753326552   -0.1953969730