14

 O    0.0871603914    1.3501316398   -0.3190969064
 C   -0.0186479547    0.0590894390    0.2777461313
 C   -1.3844295909   -0.5255386347    0.1230260721
 N   -1.6894375232   -1.7576822331   -0.2013114610
 C   -3.0706212881   -1.8274001831   -0.1947306534
 C   -3.5886804981   -0.6008775075    0.1314383978
 O   -4.8345402038   -0.0891680223    0.2671287483
 N   -2.5180034634    0.2257103379    0.3397902314
 H   -0.0638518081    1.2417485968   -1.2644944808
 H    0.7050950341   -0.6604893931   -0.1247474359
 H    0.2268979902    0.2199455955    1.3344502668
 H   -3.6001503769   -2.7380838201   -0.4285800233
 H   -5.4718481145   -0.7831229420    0.0717664533
 H   -2.5543735739    1.2109121370    0.5439362798