24

 C   -0.0370013766    1.6002966633   -0.0710632711
 C    0.0502543729    0.0717443598   -0.0713945457
 C    0.6879717720   -0.4795538448    1.2090993513
 C    0.7693864458   -2.0240388513    1.2609167556
 C    1.5189196059   -2.5157121312    0.0972438665
 N    2.1250966422   -2.8883184180   -0.8143379546
 C    1.3902982048   -2.5912635864    2.5731376393
 C    0.6136821781   -2.1260800354    3.8128069378
 C    1.4620052737   -4.1243592058    2.5359453501
 H    0.9573663071    2.0533018364    0.0076780202
 H   -0.4979401486    1.9695507088   -0.9919677587
 H   -0.6351481116    1.9661829471    0.7710692772
 H   -0.9557480323   -0.3537038091   -0.1852892138
 H    0.6252576307   -0.2646630454   -0.9414413544
 H    1.6984186422   -0.0681831413    1.3282104761
 H    0.1057271499   -0.1404613521    2.0713393110
 H   -0.2509045326   -2.4253693839    1.1726611160
 H    2.4145972672   -2.2010634507    2.6386034559
 H   -0.4426354009   -2.4134303559    3.7461977561
 H    1.0260258609   -2.5977154945    4.7099741448
 H    0.6620983149   -1.0447162685    3.9606914878
 H    2.0320262162   -4.4842072994    1.6756715364
 H    1.9408840950   -4.5058245322    3.4427620408
 H    0.4575257332   -4.5613620397    2.4828880354