16

 N    0.6699026861   -0.0687723039   -0.9688155546
 C   -0.0978905959    0.1423442639    0.1299236395
 O    0.0696046114    1.0398060793    0.9232237684
 C   -1.2718891451   -0.8739424844    0.3100800925
 C   -2.4778270536   -0.3205892253   -0.3060655820
 N   -3.4240082338    0.0803314298   -0.8358830705
 C   -0.9505482054   -2.2626100949   -0.2325937656
 C   -1.9766306505   -3.2230280199   -0.6912326036
 N   -1.0864600978   -2.5636985076   -1.6707935799
 H    1.4466035327    0.5532829772   -1.1246685857
 H    0.5531660466   -0.8697291726   -1.5682762957
 H   -1.4307442889   -0.9212301177    1.3925355886
 H   -0.0391624844   -2.6666660700    0.2022274410
 H   -1.8068274015   -4.2866403054   -0.5564250880
 H   -3.0173496416   -2.9139614827   -0.6705366053
 H   -1.6195516583   -1.8227718059   -2.1260349889