18

 C    0.1409785479    1.7076538520    0.1516493211
 C   -0.0056432943    0.1797103103   -0.0291124461
 C    0.6263887959   -0.5825803850    1.1762646081
 N   -0.0286138254   -0.2228613542    2.4271717953
 C   -1.4232822133   -0.1819078536   -0.1244195740
 N   -2.5335858889   -0.4947398954   -0.2175719208
 C    0.7863681701   -0.2456722659   -1.2991995245
 N    0.0773855656   -0.7988826683   -2.3114741325
 O    1.9878201302   -0.0682091881   -1.3359288217
 H    1.2021709658    1.9569705409    0.0890475257
 H   -0.3963618514    2.2516255647   -0.6291386598
 H   -0.2466619274    1.9948805207    1.1295043756
 H    0.6110779095   -1.6601247998    0.9486906551
 H    1.6735882151   -0.2744438691    1.2118938617
 H   -0.9071964749   -0.7213144355    2.5286027649
 H    0.5530697074   -0.4848133362    3.2147297015
 H   -0.9163479515   -0.9469911234   -2.2580237740
 H    0.5766687397   -1.0781886942   -3.1401821255