20

 C    0.2197838949    1.0812110734   -1.1530371049
 C   -0.2388021520    0.6535739562    0.2410782259
 O   -0.3932560396    1.7720281406    1.1162362058
 C   -1.5282043180   -0.1446850396    0.1719277299
 C   -1.5374117775   -1.6496552976    0.0682494719
 C   -0.3033105814   -2.3873497488    0.0684489123
 C    0.7084394275   -3.0395060906    0.0617245362
 N   -2.0311920427   -0.9500532012    1.2692122569
 C   -1.2823289608   -1.0327988716    2.5205266380
 H    1.1107627633    1.7099577364   -1.0775733084
 H    0.4551113889    0.2082676761   -1.7695543554
 H   -0.5630609382    1.6555942002   -1.6642053347
 H    0.5465557764    0.0501205551    0.7020816896
 H   -1.0799176045    2.3409233156    0.7497696651
 H   -2.3197570228    0.3769515273   -0.3731355498
 H   -2.3276243778   -2.1151043181   -0.5179229166
 H    1.6022780040   -3.6130009944    0.0530989652
 H   -0.2225972347   -1.2921243866    2.4035895842
 H   -1.3499213768   -0.0660146578    3.0243551714
 H   -1.7490844282   -1.7962089148    3.1499388773