15

 O   -0.0215715611    1.3164029083    0.0558040303
 C    0.0504341713   -0.0515040324   -0.0269040362
 C   -0.9903703153   -1.0553595714    0.4132101702
 C   -0.2522466323   -2.0821228511   -0.4994998019
 C    0.6723775768   -0.9745522536   -1.1063613232
 O    1.8702168482   -1.5667663575   -0.5376978127
 C    0.9840046813   -2.1420948946    0.4585862326
 C    0.2951406818   -0.9697306798    1.2036366506
 O    0.4602992584   -0.4921903922    2.4795270594
 H    0.8459788895    1.6634702794    0.2953794456
 H   -2.0239132727   -0.9410295116    0.7040126186
 H   -0.6823059392   -2.9206282563   -1.0394146250
 H    0.7690898773   -0.6707567818   -2.1481368348
 H    1.3923792946   -3.0059771744    0.9819266826
 H    1.2904472216   -0.0032801010    2.5276578739