23

 C    0.1494539508    1.3654173161    0.3602794254
 C   -0.1368451937   -0.0787149717   -0.0680062236
 C   -1.6441754606   -0.3083574034   -0.2692556148
 C    0.6388149887   -0.5109363398   -1.3162793736
 C    0.6880502587    0.3455374271   -2.5098177243
 O    1.8228467285    0.2499350652   -1.6410269807
 C    0.9039942787   -2.0176383483   -1.3982943978
 C    1.3773411377   -2.5255572714   -2.7587896808
 O    1.8444453587   -2.3508637814   -0.3784720589
 H    1.2195406117    1.5373915637    0.4896329598
 H   -0.2213650056    2.0907047120   -0.3728126551
 H   -0.3546510665    1.5780329015    1.3082110309
 H    0.2066455924   -0.7391623366    0.7375958801
 H   -2.0391931723    0.3466034977   -1.0543024607
 H   -1.8727278714   -1.3411752681   -0.5506439844
 H   -2.1918423597   -0.0909449121    0.6530789272
 H    0.8208934205   -0.0855475268   -3.4989532774
 H    0.1818753012    1.3094257181   -2.4975616228
 H   -0.0117229635   -2.5496621785   -1.1172077543
 H    2.2536420587   -1.9630757012   -3.0978192762
 H    1.6591082497   -3.5771929308   -2.6665130178
 H    0.5936148739   -2.4435048587   -3.5183325864
 H    2.6175909934   -1.7940131826   -0.5349066838