20

 C    0.0590710321    1.5081456822    0.0219050549
 C   -0.0226013266   -0.0187886238   -0.0268957136
 C   -1.4728328560   -0.5057984575   -0.0117868356
 C    0.7898750658   -0.6176055579   -1.1739654666
 C    2.2272571829   -0.7651585171   -0.7397332474
 C    1.3093562804   -1.9723056217   -0.7600198953
 C    1.2251133396   -1.9165319186    0.7947411142
 C    2.1259573022   -0.7323594450    0.8146748179
 N    0.6984500499   -0.5867216216    1.1364882622
 H    1.1010588608    1.8414135809    0.0244981095
 H   -0.4384572211    1.9515563472   -0.8466754221
 H   -0.4253262129    1.8891281786    0.9256248966
 H   -2.0190620760   -0.1260266664   -0.8812619279
 H   -1.5157084067   -1.5987344469   -0.0333507301
 H   -1.9837323785   -0.1600684968    0.8915112029
 H    0.5532493828   -0.4202671307   -2.2129774729
 H    3.0946396814   -0.5448854165   -1.3447626997
 H    1.3388913914   -2.8539236038   -1.3835665840
 H    1.0983438320   -2.7442946410    1.4805457265
 H    2.8785984565   -0.4041493036    1.5199382506