9

 N    0.0719440229   -1.1271186156   -0.0043510641
 C    0.0189540377    0.0270619835    0.0026755974
 C   -0.0002930114    1.4461465652    0.0107939070
 N   -1.1099171481    2.1448339074    0.0284471420
 O   -0.7194890291    3.4434123430    0.0307922551
 N    0.6294520272    3.5806857192    0.0147526277
 C    1.1050994287    2.3586648706    0.0019965433
 C    2.4946887255    2.0707115772   -0.0169446372
 N    3.6179599766    1.8004951294   -0.0324628711