15

 C   -0.0772638352    1.4651390420   -0.1191885874
 N    0.2978916297    0.0709174261    0.0785326362
 C    0.7092453230   -0.6971490822   -0.9689237420
 C    0.7016873437   -2.0543421281   -1.1989541846
 N    1.3431028434   -2.2867436916   -2.4248396003
 C    1.6741866378   -1.1238814391   -2.8501460622
 O    1.3199486831   -0.0884084690   -2.0130521468
 C    0.1530059770   -3.0460534584   -0.3643988308
 C   -0.3375100048   -3.8548683011    0.3839537521
 H    0.7500801231    2.0025075382   -0.5868039975
 H   -0.9701904570    1.5891683234   -0.7483679577
 H   -0.2687104683    1.9145957357    0.8570783696
 H   -0.2710872438   -0.4492108062    0.7310366692
 H    2.1763756770   -0.8444737411   -3.7614460486
 H   -0.7565809988   -4.5833937686    1.0322642908