18

 C   -0.0017529021    1.4794012496   -0.3798017421
 C   -0.0019791785    0.1272075771    0.3438212390
 C   -1.3751002155   -0.4956075487    0.3826271229
 O   -1.8526186706   -1.0960276179   -0.8392088324
 C   -1.6033003424   -1.9363720713    0.2594169675
 C   -0.6401773185   -3.1433007475    0.2756362438
 N   -1.7235275421   -3.8668881193    0.9535831413
 C   -2.6416232815   -2.8362938400    0.9542786813
 O   -3.7639639552   -2.7282150288    1.3635326199
 H    1.0017730109    1.9137615687   -0.3984839575
 H   -0.3435527591    1.3628113375   -1.4123167120
 H   -0.6675269583    2.1936603359    0.1161462088
 H    0.6910979147   -0.5626700408   -0.1501893163
 H    0.3500619702    0.2520936563    1.3760563570
 H   -2.1442046673    0.0772817403    0.9041539942
 H   -0.3896662849   -3.5302409735   -0.7165990890
 H    0.2685106532   -3.0197106663    0.8737630884
 H   -1.7473064529   -4.7776668212    1.3845403353