17

 C    0.1583448728    1.5512979934   -0.0763835108
 C   -0.0662853024    0.0536957118    0.1514430060
 N    0.6864596511   -0.4751900838    1.2669318093
 C    2.1299619796   -0.5997310768    1.5196809289
 C    1.7646864599   -1.2073559458    2.9019177654
 O    2.2464262167   -0.4690560715    3.9961057020
 C    0.2930044674   -0.9283136111    2.4975666661
 O   -0.7817204742   -1.0224473036    3.0368525343
 H    1.2091937643    1.7675809422   -0.2935358744
 H   -0.4367410482    1.8975203617   -0.9268528807
 H   -0.1337501238    2.1262694026    0.8069304981
 H   -1.1182001547   -0.1468661425    0.3770581377
 H    0.1875665617   -0.5084139077   -0.7573961148
 H    2.6526870567   -1.2622826425    0.8218855909
 H    2.6577517231    0.3547768600    1.6049862702
 H    1.9977232794   -2.2776460922    2.9864844352
 H    1.6086759305   -0.5717090144    4.7118968666