18

 C   -0.6051278462    0.1200411461    0.7803432460
 C    0.3915080413    0.5173152179   -0.3084261169
 N    0.6801682438   -0.6250970993   -1.1730753066
 C    1.8615155920   -0.8756726749   -1.4944121191
 O    3.0483855634   -0.2305024728   -1.1669066597
 C    3.8432403078   -1.2876657845   -1.7831835276
 C    2.5564965452   -1.9801877108   -2.2908827197
 N    2.3748635604   -3.3768807755   -1.9621019668
 H   -1.5180452327   -0.2862929398    0.3354776827
 H   -0.1800432540   -0.6467180222    1.4357688586
 H   -0.8709055000    0.9856699816    1.3953994929
 H   -0.0505247922    1.3049638853   -0.9327042949
 H    1.3011625356    0.9375750452    0.1407576424
 H    4.5290977428   -0.8853373172   -2.5318854556
 H    4.3934017542   -1.8590122725   -1.0296122389
 H    2.4144694051   -1.8513051026   -3.3676383920
 H    2.2962477569   -3.4913930322   -0.9549721237
 H    1.4972912567   -3.7079630117   -2.3509063613