15

 N   -0.0271573516    1.3262247477    0.0098225303
 C    1.2521888846    1.8430942218    0.0001432542
 C    2.1658545788    0.8238522426   -0.0142137579
 C    1.4214121091   -0.4007187629   -0.0136659495
 C    0.0428876457   -0.0452688538    0.0016753582
 N   -0.9998990571   -0.8681219460    0.0073414532
 C   -0.6792367713   -2.1629419011   -0.0028249405
 C    0.6373892494   -2.6518437895   -0.0182937159
 C    1.7085712653   -1.7686780373   -0.0239074488
 H   -0.8852815323    1.8500550878    0.0210517967
 H    1.4062011588    2.9110591109    0.0044224253
 H    3.2388723329    0.9359265103   -0.0240201024
 H   -1.5129917327   -2.8605253177    0.0014928673
 H    0.8032093580   -3.7231185492   -0.0257332714
 H    2.7322349726   -2.1294900436   -0.0358198890