14

 C   -0.0504220943   -1.2522062146   -0.0972129424
 C   -0.0323652347   -0.0539188037   -0.0151903250
 C    0.0197085426    1.4018684967    0.0694079227
 N   -0.5606878814    1.9065433866    1.3459839929
 C    0.3071428904    2.6762032624    1.8649472124
 N    1.5378121415    2.9208945176    1.1826386065
 C    2.3618972272    1.6767299880    1.1392208392
 C    1.4394376175    1.9984865762    0.0294199092
 H   -0.0777768053   -2.3115953836   -0.1664492056
 H   -0.5734083032    1.8220880667   -0.7535027968
 H    0.1469637094    3.1875594228    2.8099507148
 H    3.4268314924    1.8485678587    1.0232776199
 H    2.0856020825    0.8737125728    1.8166933378
 H    1.8269483553    2.3614010735   -0.9155666857