19

 C   -0.2509555959    1.6735204259    0.3880193379
 C    0.2086935732    0.2425380472    0.0794620611
 N    0.8338018151   -0.3793407192    1.2350402374
 C    0.1302067122   -1.0494063475    2.0557031531
 N   -1.2464185568   -1.2560382436    2.0571177987
 C    0.8149469983   -1.6174113568    3.3011114850
 O    0.4724681349   -0.8612150455    4.4578849064
 C    0.5069923045   -3.0451363530    3.4766498342
 C    0.2056047066   -4.2010704996    3.6188497420
 H    0.5873675980    2.2639515911    0.7676690882
 H   -0.6395499944    2.1590404173   -0.5128212697
 H   -1.0373395703    1.6815390945    1.1495372703
 H   -0.6396827278   -0.3415431676   -0.3210557742
 H    0.9570127863    0.2726162399   -0.7203216624
 H   -1.7389372946   -0.9929677988    1.2166334823
 H   -1.5323997707   -2.1597809586    2.4118363062
 H    1.8877838130   -1.4784036653    3.1546592955
 H   -0.4903802271   -0.8245166580    4.4998112414
 H   -0.0280876144   -5.2285836223    3.7547041168