17

 O    0.0145108786    1.4691013930   -0.0688332425
 C   -0.0082431840    0.0651096140   -0.0592114879
 C    0.2665799373   -0.5923165245    1.3492807876
 O    0.4010000915    0.3430816676    2.4114141030
 C   -1.0822995571   -1.2851756803    1.2754570186
 O   -1.3087425615   -2.5795355781    1.6964020348
 C   -2.1940275710   -0.2739953240    1.0940623650
 C   -1.3560885561   -0.6648259814   -0.0995350158
 O   -1.8767039061   -1.2899577905   -1.2129218526
 H   -0.0012017001    1.7341200876    0.8620804003
 H    0.6623358359   -0.3087862694   -0.8396845505
 H    1.0935917656   -1.3090701335    1.3367885770
 H    1.3359424296    0.5452257660    2.5200950401
 H   -1.6900730451   -2.5511219105    2.5805002558
 H   -3.1746499133   -0.7405465663    1.0866233109
 H   -2.1538867067    0.7191497220    1.5307915123
 H   -2.4354498477   -0.6597019716   -1.6809900559