14

 N   -0.0104626725   -1.1855716802   -0.1102627130
 C   -0.0113496454   -0.0323867389   -0.0534849386
 C    0.0397800649    1.4349077839    0.0287671493
 N   -0.1555182952    1.9769365778    1.4233328116
 C    1.1024742454    2.7542763205    1.2901395986
 C    2.2272422175    1.7782193857    1.2087842382
 C    1.4386969942    2.1003615855   -0.0384196303
 C   -0.8815358346    2.0371261205   -0.9393139717
 N   -1.6065414773    2.5516711181   -1.6772633740
 H   -0.9830852968    2.5640482054    1.4561216272
 H    1.1794022704    3.7819596502    1.6187152120
 H    3.2253414066    2.2036070237    1.2033160730
 H    2.1347759990    0.8117308671    1.6947877677
 H    1.8704848537    2.4763952208   -0.9545565800