19

 O   -0.0036789292   -0.1067531575    0.1376054389
 C    0.0359082639    1.0954321562    0.1034728113
 C    1.2972247172    1.9343160874    0.0786153666
 C    1.3373046919    2.8508652822   -1.2005979047
 C    2.0250738675    4.1366122999   -0.7072002847
 C    1.4050996728    5.5820491156   -0.6621614255
 C    1.6948214030    5.6153043904    0.8869697351
 C    1.7920227042    4.1112595959    0.7751153608
 C    1.3198835637    2.9543205926    1.2260693257
 H   -0.9015527925    1.7028549055    0.0823358310
 H    2.1457804422    1.2399711862    0.1099303775
 H    1.8365639250    2.3592697637   -2.0391730395
 H    0.3076157904    3.0709330062   -1.5113655260
 H    3.0831505091    4.1854052453   -0.9909783793
 H    1.8857145462    6.3518001434   -1.2698659860
 H    0.3316672613    5.5696667867   -0.8669469625
 H    2.6550237408    6.0974652353    1.0976756056
 H    0.9360530825    6.0306762496    1.5535277925
 H    0.9345487398    2.7327510453    2.2145024632