21

 C   -0.1062275580    1.6029189636    0.1590026351
 C   -0.0448580843    0.0794948397   -0.0391421735
 O    0.6993235375   -0.5257877667    1.0164362661
 C   -1.4619787600   -0.5157570219   -0.0228021927
 O   -1.9835181865   -0.2995179744    1.2862554646
 C    0.6578345990   -0.3161020421   -1.3471414619
 C    2.1273155226    0.1349834625   -1.4196072471
 C    2.8613383575   -0.5460890589   -2.5489628798
 O    3.4655333567    0.0159919301   -3.4258388889
 H    0.8987324682    2.0107876638    0.2864962705
 H   -0.5780409454    2.0971647485   -0.6971923892
 H   -0.6899856515    1.8400065290    1.0520830693
 H    0.1158693016   -0.5177523058    1.7859072752
 H   -2.0918243670   -0.0354693411   -0.7861468950
 H   -1.4010198913   -1.5901703168   -0.2449456931
 H   -2.7643378865   -0.8469526797    1.4031604216
 H    0.6194369773   -1.4097220069   -1.4290064819
 H    0.0995075460    0.0918616127   -2.1977998233
 H    2.2271549080    1.2157431954   -1.5444035299
 H    2.6158681379   -0.1561150180   -0.4802096297
 H    2.8057612683   -1.6611850430   -2.5189602363