18

 O    0.0123958713    1.4154305935   -0.2627455019
 C    0.0603811105    0.0645032778    0.1456495612
 C   -1.3488409617   -0.5285725008    0.1736694568
 C   -1.9440421406   -0.6126629780   -1.2496083334
 O   -2.0900143629    0.1750107081   -2.1529759396
 N   -2.1481417092   -1.9640852970   -1.1293316000
 C   -1.5365293369   -2.0582214996    0.1911057772
 C   -0.5981749219   -3.1291689210    0.6501975137
 C   -1.9689141499   -2.9640395739    1.2952931025
 H   -0.4912475242    1.4433018696   -1.0883503333
 H    0.7007650474   -0.5433285828   -0.5144484391
 H    0.5126397305    0.0497174479    1.1434214748
 H   -1.9820973843    0.0152257553    0.8788353906
 H   -2.3636436186   -2.6660965916   -1.8232426886
 H   -0.4460883296   -3.9882749893    0.0047050549
 H    0.2799604652   -2.8410046991    1.2186745063
 H   -2.0208520858   -2.5615036003    2.3015377108
 H   -2.7215824094   -3.7135951887    1.0739495070