19

 C   -0.2581920483    1.4845840769    0.0266295753
 O    1.0738705729    0.9982856636   -0.0879603966
 C   -0.0121555163    0.0336501222    0.0010106838
 C   -0.1072270697   -0.7405939346    1.3125275061
 C    0.2262647679   -2.2296629673    1.2096480970
 C   -0.8613479795   -3.2258259927    0.8901338765
 C    0.1947979011   -2.8930997668   -0.1469166836
 C   -0.1366276930   -2.0526160709   -1.3197591395
 C   -0.2317916194   -0.7232002478   -1.2558201538
 H   -0.5052595238    1.9635660539    0.9751708799
 H   -0.6577312050    1.9850475328   -0.8559865093
 H    0.5653637244   -0.2528101683    2.0234312635
 H   -1.1230268777   -0.6214013599    1.7090352447
 H    0.9986504278   -2.5739676227    1.8887722163
 H   -0.8262905958   -4.2033613426    1.3588194875
 H   -1.8616480693   -2.8388677217    0.7213610262
 H    0.9270493391   -3.6726573710   -0.3386964397
 H   -0.2827606667   -2.5591096363   -2.2709903861
 H   -0.4333010788   -0.1370626267   -2.1477623782