17

 C    0.3733920802    1.2350601823   -0.1576298346
 C    0.1503506529   -0.2001308035   -0.0773094047
 C   -0.0428743333   -1.3867142224   -0.0167737957
 C   -0.2709617805   -2.8227615375    0.0703620047
 C   -1.7569854831   -3.2118737855    0.0981036867
 O   -2.4389934949   -2.7988837191   -1.0582060276
 O    0.2566120574   -3.5158414297   -1.0957477409
 C    1.5981190755   -3.5841364168   -1.2213527020
 O    2.1257947004   -4.1232070038   -2.1462284931
 H    1.4424274617    1.4700632570   -0.1938469262
 H   -0.0948284493    1.6566287691   -1.0532471708
 H   -0.0514000559    1.7460122884    0.7130509014
 H    0.2135814927   -3.2326367736    0.9675695502
 H   -1.8129090761   -4.3013237957    0.2466062957
 H   -2.2352559724   -2.7218703955    0.9508151303
 H   -1.9712842840   -3.1776317488   -1.8117283899
 H    2.1350811485   -3.1006644448   -0.3846703034