20

 C   -0.0746769799    1.5316574076   -0.0583673390
 C   -0.0068514133    0.0053528649   -0.0215481233
 O   -1.2924471881   -0.5501539203   -0.1751691798
 C    1.1431209316   -0.5583833794   -0.9105347019
 C    2.0408542213   -0.6094303988    0.3541201713
 C    0.7507548047   -0.5673593104    1.2302984437
 C    0.7612818458    0.2140471768    2.5353009678
 O    0.2546694609   -1.8821164679    1.4428347030
 H    0.9058740940    1.9961775714    0.0803871769
 H   -0.4494874040    1.8584791746   -1.0367921981
 H   -0.7531267239    1.9106076670    0.7115558315
 H   -1.7259227714   -0.0940585155   -0.9041416423
 H    0.8871185729   -1.5595304850   -1.2601928479
 H    1.4778670230    0.0548577057   -1.7515274178
 H    2.6641318661   -1.4967846435    0.4879147833
 H    2.6632461701    0.2823103742    0.4716222635
 H    1.1258339328    1.2364609555    2.4044726063
 H   -0.2448608408    0.2498669701    2.9641942240
 H    1.4201484316   -0.2777385298    3.2622751110
 H    0.8486806566   -2.3095976774    2.0693597479