22

 C    0.1994706446    1.5767966656    0.1113011384
 C   -0.1400829000    0.0888055795   -0.0343998766
 C    0.6229135941   -0.5736438861   -1.1733280669
 N    2.1530264866   -0.5729019520   -1.1511951303
 C    2.4752415619   -1.3651142182    0.1028791786
 C    1.8554909051   -2.5880561777   -0.5440280120
 C    2.0653877989   -1.9339637570   -1.8815556600
 C    0.6577496914   -2.0831169512   -1.3854641818
 C   -0.4321342958   -2.9945545264   -1.8673157091
 H    1.2660886445    1.7177607024    0.3090865339
 H   -0.0370000621    2.1245912399   -0.8073514594
 H   -0.3644659049    2.0345860574    0.9295535574
 H    0.0374693681   -0.4350178478    0.9108496611
 H   -1.2119590655   -0.0289896844   -0.2425485008
 H    0.3463946059   -0.0836536480   -2.1163061269
 H    3.5626083315   -1.4467245694    0.1872401890
 H    2.0726027515   -0.9617107249    1.0374060324
 H    1.9505644392   -3.6369841279   -0.2892844829
 H    2.5878372558   -2.1989159926   -2.7901404551
 H   -0.0375476476   -3.9805386618   -2.1354676070
 H   -1.1986883375   -3.1458920266   -1.0985665877
 H   -0.9262879256   -2.5838101827   -2.7553182044