20

 C   -0.1305687509    1.5681034785    0.0511556507
 C    0.0688781266    0.0427015689   -0.0146997347
 C    0.7870942329   -0.4893504092    1.1394755040
 C    1.3847177146   -0.8934831644    2.1042663954
 C    2.0987340826   -1.4239641667    3.2594183759
 C    2.0207427463   -2.9519528140    3.3415565750
 O    2.7366067241   -3.3573013070    4.4856512218
 C    2.7458040928   -4.7534133615    4.6599241778
 H    0.8325920648    2.0835729468    0.0959044342
 H   -0.6709417138    1.9216394749   -0.8321834433
 H   -0.7027238409    1.8466709605    0.9402759537
 H   -0.9089340717   -0.4495871534   -0.0956773713
 H    0.6108634661   -0.2149190710   -0.9339219526
 H    3.1558227439   -1.1332567297    3.2269022982
 H    1.6923993118   -1.0063603043    4.1887638651
 H    0.9682549084   -3.2738052200    3.4011342769
 H    2.4485439254   -3.4012725586    2.4304792779
 H    3.3207806258   -4.9671440176    5.5642429859
 H    1.7282023240   -5.1577078052    4.7818222832
 H    3.2178664171   -5.2687699070    3.8082522062