19

 O   -0.1939944667    0.0359654325   -0.1553029995
 C   -0.0406385182    1.2231511748   -0.0282717037
 C    1.2927458976    1.9343881465   -0.0189149822
 C    1.4190002171    2.8267021195   -1.2694293633
 O    2.6935111470    3.4324705173   -1.3551948129
 C    3.1349701996    4.1148908395   -0.2168648608
 C    2.3085229135    5.1571606039    0.4812633180
 C    2.5710420095    3.8122507591    1.1476986070
 C    1.4404339818    2.7928978839    1.2596881374
 H   -0.9190624092    1.9029267614    0.0927406346
 H    2.0790757783    1.1749960743   -0.0645253293
 H    1.3206153205    2.2292873850   -2.1796515723
 H    0.6166256952    3.5829505039   -1.2786338332
 H    4.2009909645    4.2900413004   -0.3105283752
 H    2.8131059036    6.0380696295    0.8625439837
 H    1.2997485029    5.3431534749    0.1267854468
 H    3.2757210621    3.8097676047    1.9724812808
 H    0.4891668000    3.3018085432    1.4650731740
 H    1.6229841207    2.1309515558    2.1111529303