22

 C   -0.1361075809    1.5369597576   -0.0557020724
 C    0.0119981839    0.0159984989    0.0476801694
 C    0.7446155540   -0.4847289389    1.3101001601
 C   -0.0016142764   -0.1164031549    2.5995778670
 C    0.9838751474   -1.9909166878    1.1827849220
 C    1.6338292673   -2.7927821687    2.3352514167
 C    0.3482298719   -3.6399100166    2.2787048643
 O   -0.2375191327   -2.7706905858    1.2886047250
 H    0.8380543969    2.0359295161    0.0072159671
 H   -0.5899898719    1.8176928200   -1.0114250770
 H   -0.7698186431    1.9452143097    0.7371656445
 H   -0.9758536894   -0.4594220162    0.0071152844
 H    0.5582474468   -0.3449587811   -0.8334840847
 H    1.7426033735   -0.0186571578    1.3317659605
 H   -0.9825593036   -0.6001159456    2.6215231027
 H    0.5484543850   -0.4275142518    3.4929743730
 H   -0.1493109881    0.9636326712    2.6768898807
 H    1.4700427177   -2.1882805027    0.2153542527
 H    2.5625672224   -3.3082997063    2.0863587412
 H    1.7728018901   -2.2364430415    3.2631777037
 H    0.4816078755   -4.6604275204    1.8966222145
 H   -0.2535847463   -3.6815289274    3.1941707746