18

 O    0.0724188597    1.4727658425   -0.0361133680
 C    0.1245289484    0.0612431207    0.0525532336
 C    0.6290825073   -0.4284119206    1.4359742078
 C   -0.6332731824   -0.5396893177    2.2724766691
 N   -1.5179298708    0.6367621330    2.1006253714
 C   -1.8039313983   -0.6162763244    1.3619674567
 C   -1.3035917410   -0.5642325266   -0.0687813360
 C   -2.1819725605    0.1924047340   -1.0421767767
 O   -3.2919385018    0.5853397090   -0.7896021669
 H   -0.4910423118    1.7492081263    0.7061848983
 H    0.7790109328   -0.2676291064   -0.7581666290
 H    1.1028667550   -1.4138254801    1.3538910635
 H    1.3639646214    0.2737895075    1.8393883176
 H   -0.6200151762   -1.0451448718    3.2322747304
 H   -2.1536290454    0.7250546787    2.8877386469
 H   -2.7032015825   -1.1675980132    1.6090922471
 H   -1.2095565501   -1.5914789857   -0.4547995548
 H   -1.7304690937    0.3461199049   -2.0468126910