17

 C   -0.1121262484    1.6240657320    0.1189808871
 C    1.4049272774    1.3315140012    0.0317196339
 C    1.2636989740   -0.0351413855    0.7988095369
 O    1.9573934701   -0.8241307723   -0.2073143716
 C    1.1676398069    0.1519681900   -0.9636943550
 C    0.6517879401   -0.1861858600   -2.3366455845
 O   -0.6880046509   -0.6784407426   -2.1249368612
 C   -0.9499709860   -0.9078803896   -0.7203469457
 C   -0.0613122131    0.0861115411   -0.0208331389
 H   -0.4842534816    2.0228218639    1.0661487532
 H   -0.5417960122    2.1751333154   -0.7218047384
 H    2.2554149028    2.0131305279    0.0641285976
 H    1.4332444898   -0.2651543710    1.8510159978
 H    0.5957731947    0.6769843133   -3.0077964395
 H    1.2801089772   -0.9576274081   -2.7985481105
 H   -2.0227795429   -0.7645632429   -0.5720577374
 H   -0.6789580979   -1.9346498728   -0.4392396438