21

 O    0.0467032797    1.3571473943   -0.0169707091
 C    0.0309046709   -0.0481697845   -0.0399328450
 C   -0.5411614109   -0.7393308440   -1.2566618101
 C   -1.3444042605   -0.6464174929    0.0353085760
 C   -1.5889978961   -1.8233266704    0.9160673337
 C   -1.1425194378   -1.8711538261    2.1739106435
 C   -0.3705676091   -0.7354615260    2.8098240074
 C    1.0628846719   -0.5384873274    2.2517641002
 C    1.1575984721   -0.7189778958    0.7258239298
 H    0.8283266038    1.6502497059   -0.4992213011
 H   -0.8704280954   -0.1121908306   -2.0777791874
 H   -0.1281880512   -1.7004305003   -1.5468438437
 H   -2.1488152838    0.0859612690   -0.0109816315
 H   -2.1599547939   -2.6534836565    0.5040832635
 H   -1.3388725236   -2.7550096755    2.7764523233
 H   -0.9244365663    0.1960293735    2.6467132888
 H   -0.3155792864   -0.8753185927    3.8938208713
 H    1.3993172497    0.4655737720    2.5314560794
 H    1.7536899471   -1.2438787636    2.7276744943
 H    1.1447739132   -1.7862555956    0.4884412362
 H    2.1220624265   -0.3375497626    0.3633988107