15

 C   -0.0797906280    1.4245401744    0.0352241459
 N    0.1932596365   -0.0009486667   -0.0072546084
 C    0.0807681281   -0.7485191557    1.2370015830
 C    0.0689707514   -0.6405131440   -1.1955381560
 C   -0.1137162268   -0.1555840384   -2.4821249139
 N   -0.1125365088   -1.2396030964   -3.3041395005
 N    0.0338002931   -2.3183163856   -2.7038078184
 O    0.1576979422   -1.9570964749   -1.2348096957
 H    0.3431731958    1.8385910020    0.9536607931
 H    0.3995149910    1.9222860091   -0.8114436878
 H   -1.1558032421    1.6509779540    0.0138069825
 H   -0.9622013461   -0.8414483822    1.5728821512
 H    0.4917631144   -1.7480936145    1.1005454360
 H    0.6509191014   -0.2334835822    2.0152156821
 H   -0.2452487321    0.8459230912   -2.8479741731