17

 C    0.0615761265    1.5266996411    0.0255157058
 C   -0.0180397442    0.0221073775   -0.0120290635
 C   -0.8785778070   -0.7764373058    0.9085126087
 N    0.5807309942   -0.7791340693    1.0824890992
 C    1.2707456733   -1.9307882762    0.4670010821
 C    1.0236464377   -1.8208162548   -1.0167886897
 C    0.3189023439   -0.7131147080   -1.2852395954
 C   -0.0858182538   -0.2613514880   -2.5692658149
 N   -0.4302940618    0.1401601354   -3.5999309553
 H    1.0532367935    1.8752912088   -0.2805004989
 H   -0.6771104933    1.9697671399   -0.6503174498
 H   -0.1324000283    1.8900575253    1.0371551546
 H   -1.4203298639   -0.2792579828    1.7088232011
 H   -1.3616680192   -1.6651829921    0.5077599980
 H    2.3434905035   -1.8831743730    0.6978730325
 H    0.9002835421   -2.8750199410    0.8861458104
 H    1.3577935567   -2.5480892371   -1.7464821548