20

 C    0.2881746100    1.4738834443   -0.0517880724
 C    0.1659469236   -0.0168314433    0.0694180003
 C   -1.0902438328   -0.8194582835   -0.2988976457
 C   -0.8194288312   -1.7884105874    0.8936291899
 C    0.4380599791   -0.9854903072    1.2437063473
 C    1.3699331726   -0.9125342087    0.0655509700
 N    1.5307891490   -2.0058713402   -0.8503344813
 C    1.6467094041   -1.8317302596   -2.1963332090
 O    1.5520113857   -0.7712939798   -2.7752286884
 H    1.1844622427    1.8445910148    0.4562556898
 H    0.3619115536    1.7606714793   -1.1068702897
 H   -0.5793716834    1.9830688873    0.3826365198
 H   -2.0031345027   -0.2367132873   -0.1545960484
 H   -1.1055490642   -1.2497409575   -1.3036760730
 H   -1.5861507106   -1.7208178691    1.6678917257
 H   -0.6700326350   -2.8445842706    0.6467368509
 H    0.7976755073   -0.7806772953    2.2463075672
 H    2.2918991603   -0.3703863445    0.2715276608
 H    1.7030092046   -2.9275307850   -0.4786503483
 H    1.8304202173   -2.7933388568   -2.7187153756