16

 C   -0.3420623931    1.4624476609    0.0963421461
 C    0.0502889613   -0.0024422006   -0.0309513074
 C    0.9171852580   -0.4077796434   -1.2638329381
 C    2.0068604981   -0.9159654496   -0.2774069355
 N    1.1696158482   -0.4402580624    0.8252291047
 C    1.2512239599   -0.7391821066    2.1404273900
 O    2.1854897320   -1.3161539106    2.6601487112
 H    0.5307889307    2.1107746481   -0.0283410619
 H   -1.0812371035    1.7223835532   -0.6690464064
 H   -0.7854909348    1.6711527197    1.0751222994
 H   -0.8353528994   -0.6390440255    0.0931437152
 H    0.4793764040   -1.1708707158   -1.9074724344
 H    1.2261801871    0.4417338928   -1.8754709960
 H    2.1607727049   -1.9997638341   -0.2608215875
 H    2.9831988154   -0.4260990945   -0.3380249339
 H    0.3630114212   -0.3836288018    2.7039183046