23

 C    0.0845100768    1.4889154938   -0.2609632694
 C   -0.0089718711   -0.0341924396   -0.1448019537
 C   -1.4375080748   -0.5349075928    0.1043337662
 O   -2.3308144145   -0.0955038539   -0.9204771196
 C   -1.4982945798   -2.0572594782    0.2784848459
 C   -2.9081952597   -2.5755334242    0.5900361035
 C   -2.9707075544   -4.0818494371    0.6299695803
 C   -4.1205727442   -4.8377325999    0.1199131147
 O   -2.9102338923   -4.7532775426   -0.6348103629
 H    1.1047558175    1.8079369936   -0.4940281328
 H   -0.5815208656    1.8558656431   -1.0460934041
 H   -0.2114944924    1.9730680868    0.6763623855
 H    0.3700130615   -0.5049957403   -1.0640554649
 H    0.6369053350   -0.3921308794    0.6668536988
 H   -1.8241422716   -0.0563794811    1.0149696420
 H   -2.0404142599   -0.4977323116   -1.7476290909
 H   -1.1379584044   -2.5361688667   -0.6430005418
 H   -0.8024834416   -2.3552376619    1.0736753830
 H   -3.2458091422   -2.1781804413    1.5570229473
 H   -3.6026748816   -2.2020706140   -0.1686059040
 H   -2.3607063491   -4.5583814681    1.4011185004
 H   -4.3515082473   -5.8215828875    0.5266852630
 H   -4.9700707542   -4.2988775972   -0.2984008965