16

 O    0.0567971189    1.4160049339    0.0158245590
 C    0.0285331749    0.0208600487    0.0019943891
 C    0.4757013041   -0.7284781294   -1.2853266186
 C   -0.6875019052   -1.7278241771   -1.0697868502
 O   -0.3835451272   -2.6897892906   -0.0351930152
 C   -0.7470962446   -1.7471226625    0.9979904353
 C    0.4012096353   -0.7526199264    1.2987713228
 C   -1.3391113170   -0.7587556118   -0.0446844183
 H    0.9778543149    1.6995686797    0.0414881479
 H    0.2723111031   -0.0941163663   -2.1543934948
 H    1.4878159449   -1.1390126390   -1.3419847084
 H   -1.1661880412   -2.1900757343   -1.9344330687
 H   -1.2745758675   -2.2251976513    1.8248121888
 H    1.4085940254   -1.1646786818    1.4060595995
 H    0.1477550169   -0.1343732794    2.1662824189
 H   -2.3340906857   -0.3243814523   -0.0693163271