19

 C   -0.1820280932    1.2025854188   -0.7969108354
 C   -0.0897750389   -0.1361743224   -0.2323018184
 C   -0.0173895259   -1.2422860507    0.2345621133
 C    0.0783654808   -2.5887528463    0.8044723712
 C   -1.1941081760   -3.3153614074    0.8235255124
 C   -2.2369312575   -3.9149056585    0.8535497260
 C   -3.5001816090   -4.6411986457    0.8561305535
 C   -3.9406848602   -5.0592853705   -0.5510253071
 O   -5.1694208171   -5.7522717980   -0.4107613912
 H    0.1527747557    1.9614627831   -0.0811109010
 H    0.4357643229    1.3002212863   -1.6964597192
 H   -1.2136160465    1.4437871530   -1.0761471086
 H    0.8220524141   -3.1712890006    0.2422899560
 H    0.4737078452   -2.5247524454    1.8282537312
 H   -3.4238664855   -5.5427298930    1.4763243723
 H   -4.2944335655   -4.0279840246    1.2990544497
 H   -4.0463212818   -4.1637793009   -1.1811499224
 H   -3.1637962157   -5.6936890231   -1.0033098952
 H   -5.4681636160   -6.0169913340   -1.2853167571