15

 C    0.0318665751    1.5293201689   -0.0129561112
 C   -0.0267365327    0.0366231535    0.0265511878
 C    0.4818592337   -1.0036544362   -0.9673213934
 N    1.1097993498   -0.8074754735    0.3853643955
 C    0.5926811508   -1.7130525074    1.3896449904
 N   -0.6669438598   -1.7734294898    1.5275243012
 C   -1.1979289298   -0.9217498533    0.4473156409
 C   -0.8718152836   -1.6482331465   -0.8918177246
 O   -1.5358606493   -2.2524726822   -1.6832147195
 H    0.9977694371    1.8592750505   -0.4033998355
 H   -0.7600139659    1.9306420293   -0.6527491180
 H   -0.0960007397    1.9478132779    0.9905998778
 H    1.1369172352   -0.9201797714   -1.8253042147
 H    1.3059110950   -2.2703391590    1.9863363322
 H   -2.2115545059   -0.5659166109    0.6127944811