20

 C    0.0929283964    1.4951066418    0.0143258016
 C    0.0400598522    0.0400613971    0.0288252584
 C    0.0005187771   -1.1650338744    0.0436889250
 C   -0.0313599509   -2.5989024455    0.0460452728
 C   -0.5290716137   -3.3676015151    1.2667803202
 C   -1.3441453087   -3.3851519988    0.0031820989
 C   -2.6503803736   -2.6185941828   -0.0220686035
 C   -1.3432899146   -4.6565638785   -0.8233529236
 H    1.1158421803    1.8526017439   -0.1499229616
 H   -0.5339267823    1.9146844672   -0.7809092236
 H   -0.2527902639    1.9175192881    0.9647136835
 H    0.7928696042   -3.0664130449   -0.4871074285
 H    0.0187745265   -4.2603472346    1.5503408483
 H   -0.8905706158   -2.7757717720    2.1003306497
 H   -2.5818046746   -1.6908040963    0.5505301482
 H   -2.9305746602   -2.3549418151   -1.0485081770
 H   -3.4606400366   -3.2247203040    0.3996155371
 H   -2.1036080638   -5.3582493969   -0.4599384536
 H   -1.5644220045   -4.4437171138   -1.8757186976
 H   -0.3748116634   -5.1648914852   -0.7803913046