19

 C    0.0757237742    1.5170588449    0.0951072511
 C   -0.0006160215    0.0255481861    0.0172053478
 C   -0.1317012239   -0.7267592386   -1.0803318622
 C   -0.1081722745   -2.1846178107   -0.7768579916
 C    1.1908376012   -2.7035090724   -0.1443955438
 C    0.0858457975   -2.2717303590    0.7533884087
 C    0.0687603396   -0.8346756595    1.2699075868
 C   -0.9521988959   -3.1453167735   -1.5076671853
 O   -1.6686340315   -2.8664198463   -2.4395168619
 H    1.0331710491    1.8473457873    0.5181811159
 H   -0.0347909568    1.9768151168   -0.8903801883
 H   -0.7079714460    1.9193117732    0.7499614515
 H   -0.2352377561   -0.3568836653   -2.0928465091
 H    1.3826279152   -3.7701590736   -0.2152261795
 H    2.0634286923   -2.0716218977   -0.2700503327
 H   -0.4364563647   -3.0382702605    1.3144747371
 H    0.9539114897   -0.6062035009    1.8784090061
 H   -0.8015128832   -0.6545635113    1.9154665016
 H   -0.8753226247   -4.1943506491   -1.1337156320