16

 N   -0.0455671412   -1.0639962452   -0.0384008437
 C   -0.0344313981    0.0942816229   -0.0286030929
 C   -0.0529225285    1.5234074220    0.0098218914
 C   -1.3851011129    2.3522337688    0.2325806194
 C   -0.5321393631    3.4744606576   -0.3718767068
 C    0.1650526421    4.2265750010    0.5025904922
 C    1.5720462038    3.6650971309    0.6657389657
 C    1.3624133193    2.2906001914    0.0072063049
 C    0.3915303657    2.4699135799   -1.0883894936
 H   -2.1666677314    1.9201745704   -0.4008414861
 H   -1.7540228321    2.4996192509    1.2500551779
 H   -0.3134341951    4.7405526010    1.3310581987
 H    2.4008012898    4.1920184360    0.1715658336
 H    1.8106708961    3.6275351955    1.7346968622
 H    2.1916860127    1.5947404422   -0.0989240930
 H    0.4820775829    2.2717513448   -2.1478764698