13

 C    0.0764411823    1.2798702941    0.0086641901
 N    1.3106058446    1.7912798531   -0.0005236120
 N    2.0613302585    0.6689028081   -0.0139325260
 C    3.4095255375    0.5722675076   -0.0275026397
 C    3.9429157303   -0.6876402340   -0.0396174818
 C    3.0607648512   -1.7976605901   -0.0372088242
 N    1.7463396864   -1.7042593855   -0.0239778449
 C    1.2349142145   -0.4654540614   -0.0122153565
 N   -0.0330810115   -0.0639956001    0.0023635920
 H   -0.7829039227    1.9350876721    0.0206217866
 H    3.9645077592    1.5014819424   -0.0277519102
 H    5.0152825649   -0.8281723301   -0.0507704748
 H    3.4717100249   -2.8043077961   -0.0467345288