17

 C    0.0330667815    1.3639692635    0.0693017453
 N   -0.0990674145   -0.0770425338   -0.0377661275
 C    0.5825110480   -0.6999143148   -1.0931998143
 C    1.2066633038   -0.1205186092   -2.1783101539
 N    1.6861007243   -1.1450299367   -2.9721217541
 C    1.3707160210   -2.3551805383   -2.4185777606
 C    0.6886189816   -2.1219641360   -1.2454236729
 N    0.1691965980   -3.1195069042   -0.3714327269
 H    1.0791934631    1.7118984767    0.1196492271
 H   -0.4319074942    1.8381434841   -0.8024220361
 H   -0.4942700222    1.7133507730    0.9607338017
 H    0.0840730683   -0.5434033044    0.8420467128
 H    1.3467579298    0.9108865417   -2.4534507607
 H    2.1662935000   -1.0170004669   -3.8433091556
 H    1.6453061287   -3.2864869951   -2.8862707588
 H    0.7972261226   -3.3183549873    0.4020970570
 H   -0.7113942000   -2.8134548723    0.0309628275