14

 O    0.0358630799   -0.0179493149   -0.0422364205
 C   -0.0075914510    1.1861544488    0.0001910408
 C   -1.2198782042    2.0508902398    0.0837590691
 C   -0.8795073612    3.3429729436    0.0107450779
 C    0.6106916353    3.5275919983   -0.0653330922
 C    1.3691885922    3.0230478462    1.1630664307
 C    1.1901419758    2.1238964989   -0.0356110896
 C    1.1649940986    4.5854084388   -0.8592100929
 N    1.6033263442    5.4470447278   -1.4941801578
 H   -2.2156065188    1.6452837298    0.2011164731
 H   -1.5511161931    4.1921097221    0.0389686418
 H    2.3633294490    3.4233071623    1.3287689024
 H    0.7801821993    2.8421218747    2.0550184586
 H    2.0585354840    1.8476647838   -0.6185605214