19

 C   -0.0508975138    1.5559272121    0.0309450454
 C    0.0300876837    0.0331279565   -0.0181917526
 O   -1.2687223886   -0.5578988369    0.0274179258
 C    0.8597092111   -0.5192032947   -1.2229280238
 C    1.6366583305   -1.6984069858   -0.6446645993
 C    2.5187756903   -1.3960496252    0.5502587367
 O    2.1623398923   -0.1293334261    1.1158855900
 C    0.7701302856   -0.5771253514    1.1786535930
 C    1.1700768172   -2.0057944451    0.7670620255
 H    0.9474878696    1.9877679748    0.1343469644
 H   -0.5015337821    1.9530548362   -0.8867713547
 H   -0.6659668958    1.8757999166    0.8776086411
 H   -1.7896886076   -0.1844942045   -0.6911130170
 H    0.1802244092   -0.8448274337   -2.0166391382
 H    1.5228901136    0.2456659198   -1.6382871242
 H    1.9419453596   -2.5229520283   -1.2792935465
 H    3.5317680455   -1.7509962738    0.6986486822
 H    0.3207041472   -0.3908012243    2.1548727149
 H    0.8359944328   -2.9526240662    1.1645262072