16

 O    0.0352359933    0.4029633013   -1.1895941775
 C   -0.0075393060    1.2839285372   -0.3604061908
 N    1.0748774708    1.7905397181    0.3025974757
 C    2.3751817290    1.1738757564    0.2083921324
 C    3.4021149561    2.0118928006   -0.6130929359
 C    3.0211993177    2.1712300740   -2.0074408570
 C    2.6996464156    2.2968816847   -3.1575153820
 C    2.9492524380    0.9485348426    1.5975087749
 O    2.4368090376    1.3565523633    2.6077909044
 H   -0.9445595193    1.7894027831   -0.0578245535
 H    0.9093443430    2.3403309080    1.1343506995
 H    2.2528925267    0.2050778862   -0.2909218216
 H    3.5094563270    2.9955169615   -0.1384753320
 H    4.3842753930    1.5250387234   -0.5492980072
 H    2.4093445615    2.3998679264   -4.1737392298
 H    3.9149620660    0.3992187732    1.6169125203