18

 C    0.0264546799    1.5512060971   -0.0594590318
 C    0.0131741935    0.0342832880   -0.0171828693
 O    0.7021350748   -0.4498619744   -1.1608949216
 C    0.7766353783   -1.8021143800   -1.2715630635
 C    0.2974189121   -2.8185895513   -0.4701328549
 N    0.6568068398   -3.9745258700   -1.0912929618
 N    1.3368648921   -3.7717599281   -2.2456257601
 C    1.4166295041   -2.4519645424   -2.3592675739
 N    2.1065263441   -1.8245315671   -3.3953317598
 H    1.0534011958    1.9267056431   -0.0554083016
 H   -0.4702983382    1.9157543407   -0.9629527209
 H   -0.4958576649    1.9575916217    0.8115773596
 H    0.5061598229   -0.3388264291    0.8935113665
 H   -1.0178648627   -0.3519695379   -0.0171735658
 H   -0.2496932658   -2.8101523904    0.4573239882
 H    0.4912138780   -4.9148969552   -0.7841534431
 H    2.1920398739   -2.4208903488   -4.2080745416
 H    1.7011718822   -0.9312119461   -3.6413341643