18

 C   -0.1990223097    1.5637415746    0.0601388199
 C    0.0523322891    0.0587368124   -0.0009944018
 O    0.7951523718   -0.3295293806   -1.1623456308
 C    2.2096681187   -0.3604212927   -1.0334246487
 C    2.6055404806   -0.9010206650    0.3693833856
 N    1.5103588202   -1.7585425388    0.9185884648
 C    0.7590296056   -0.5113710762    1.2652894899
 C    2.1342630699    0.1574320456    1.3682740942
 O    2.6162086745    1.0811524248    1.9512494153
 H    0.7329580812    2.1267633615    0.1602187786
 H   -0.7119209186    1.8933669421   -0.8469488490
 H   -0.8294531405    1.8085089936    0.9216589358
 H   -0.9084634338   -0.4594580758   -0.1130293564
 H    2.5661732447   -1.0312663828   -1.8219972110
 H    2.6624485098    0.6288240734   -1.1991418023
 H    3.6224572973   -1.2973472938    0.4056977494
 H    1.0418242479   -2.2912380186    0.1867996278
 H    0.0948122012   -0.5535629938    2.1314782989