15

 C    0.0961229853    1.4553430487    0.0167844859
 C    0.0298799939   -0.0380558849    0.0367159560
 N   -0.0688123440   -0.6652098043   -1.0964185975
 N   -0.1271871972   -2.0097530050   -1.0540128375
 N   -0.0962704429   -2.7967596987    0.0212432750
 C    0.0019313989   -2.2039589981    1.1716869247
 C    0.0760696482   -0.7589569821    1.3058400161
 N    0.1751098521   -0.0791843131    2.4030405551
 O    0.2056057015   -0.9366720596    3.5186580157
 H    1.0183689505    1.7995068278    0.4967831264
 H    0.0509765469    1.8209018026   -1.0097150936
 H   -0.7278266167    1.8783570043    0.6012919388
 H   -0.2029652394   -2.4729169726   -1.9431225239
 H    0.0271399939   -2.8396414602    2.0457295689
 H    0.2791671389   -0.3144614050    4.2490274699