22

 C    0.4708811686    0.1127364579    1.2265088843
 C   -0.1262084986   -0.0814381381   -0.1753218687
 C   -1.4877351323   -0.7628534995   -0.1893525785
 C   -1.8057377315   -1.7054648391   -1.3457736993
 C   -1.5175908508   -2.2677151019    0.0096020965
 C   -2.7130848407   -0.0485973571    0.3354210189
 O   -3.7734821746   -0.6348898604    0.5000630740
 N   -2.5751776379    1.2867100339    0.5891184543
 C   -3.6846495452    2.1093518824    1.0296853303
 H    1.4569178548    0.5842925421    1.1703375603
 H   -0.1662037801    0.7376352545    1.8596538748
 H    0.5859408869   -0.8509618408    1.7322376412
 H   -0.1724153824    0.8802606122   -0.7066745676
 H    0.5624991967   -0.6944582743   -0.7679719104
 H   -2.8348608615   -1.7267715144   -1.6830474624
 H   -1.0557311051   -1.7989816467   -2.1239573816
 H   -0.5640930135   -2.7577600973    0.1754562613
 H   -2.3553958031   -2.6590608551    0.5726621483
 H   -1.7004521076    1.7352756756    0.3819046089
 H   -3.9798148524    2.8355396125    0.2628141827
 H   -4.5247544611    1.4427307623    1.2256267564
 H   -3.4321512990    2.6532840413    1.9462932462