17

 O    0.1718887772    1.3848458442   -0.1365559762
 C    0.1006901337   -0.0108309248    0.0206736787
 C    0.1854628670   -0.5354123760    1.4786583871
 N   -1.2911472456   -0.6711761531    1.4691627857
 C   -1.3341325422   -0.6170996469    0.0046134951
 C   -2.4867771340    0.0390595666   -0.7693315780
 O   -2.5590896056   -1.0800754185   -1.6817231002
 C   -1.6353722184   -1.8451105879   -0.8876015100
 H   -0.3988974941    1.7872084082    0.5284310252
 H    0.8044434037   -0.4344516588   -0.6979559225
 H    0.7409052863   -1.4792952155    1.5614639319
 H    0.5752036346    0.1710045145    2.2200354504
 H   -1.6825568591   -1.4989975167    1.9057389257
 H   -3.4061083809    0.1562207073   -0.1795322291
 H   -2.2493353505    0.9796810618   -1.2789952068
 H   -0.8086818783   -2.2524554418   -1.4838047208
 H   -2.1323623437   -2.6703858426   -0.3543813761