20

 C    0.4684143431    1.4689913852    0.1089487814
 C   -0.0036533088    0.0202890936    0.0332493699
 C    0.4837049058   -0.7408717671   -1.2235638050
 C    1.6805914209   -1.5513592061   -0.7058699567
 O    2.8744258294   -0.7802451036   -0.6443558727
 C    1.2241501724   -1.8641465044    0.7258149541
 C    2.3211064485   -2.1875644474    1.7257721968
 O    0.5258938546   -0.6972221128    1.1554109518
 H    1.5559162249    1.5115581799    0.0061964542
 H    0.0093561804    2.0689141281   -0.6845926534
 H    0.1920205789    1.9057172347    1.0728339056
 H   -1.1009486890   -0.0079862561    0.0912631900
 H   -0.2902357658   -1.4209410502   -1.5939542566
 H    0.7566670284   -0.0712711336   -2.0446281024
 H    1.8445182879   -2.4732585995   -1.2814598317
 H    3.0947703637   -0.5048583496   -1.5392037769
 H    0.5208393727   -2.7135544485    0.6651582753
 H    3.0552339895   -1.3811402852    1.7556292680
 H    1.8890789572   -2.3136742751    2.7220999303
 H    2.8293138354   -3.1168974825    1.4497377781