20

 C    0.0455633692    1.4782535623   -0.3430883326
 C   -0.0068823300    0.0548099434    0.2259757451
 C   -1.4026600073   -0.5294458425    0.2200195689
 C   -2.4651905070    0.0744442995    1.1553111100
 C   -3.4330851893   -1.0538843246    1.4835485395
 O   -4.1259225934   -1.6079328334    0.3532136922
 C   -2.9625251189   -2.2938099026    0.8468185424
 C   -1.7020850159   -1.9889414317    0.0583698863
 N   -1.8526968594   -1.0645511663   -1.0743374481
 H    1.0720787827    1.8563596808   -0.3637846349
 H   -0.3434386255    1.4933741847   -1.3658105269
 H   -0.5512074794    2.1748677241    0.2557534495
 H    0.6367183169   -0.5988604091   -0.3721056462
 H    0.3880674942    0.0444801933    1.2505111973
 H   -1.9904543583    0.4182012171    2.0822352697
 H   -2.9777334682    0.9374807655    0.7158790863
 H   -4.0139080002   -1.0285681606    2.4026524948
 H   -3.1396994699   -3.2883286567    1.2443438096
 H   -0.9426575996   -2.7586312287   -0.0367033422
 H   -2.8487050606   -0.8954057347   -1.2095297506