17

 O   -0.3133426025    1.0514360392    0.3703208128
 C    0.0554292317   -0.2512467004   -0.0787933187
 C    0.8263171801   -1.0452836018    1.0327894447
 C   -0.2358538831   -1.8392689215    1.7615126233
 O   -1.3620154524   -1.0614984031    2.1785557803
 C   -1.4771286124   -1.8335974662    0.9784000857
 C   -1.2774580390   -1.0340043511   -0.2902011231
 C    0.8474943459   -0.1490568149   -1.3093824766
 C    1.5182649015   -0.0390756960   -2.3013474580
 H    0.4864432186    1.5883223000    0.3952568034
 H    1.5561918391   -1.7289760391    0.5868709121
 H    1.3649279244   -0.3504257630    1.6839741618
 H    0.0455218310   -2.6535001093    2.4253616767
 H   -2.2021025136   -2.6434428890    1.0084141944
 H   -2.0822712497   -0.3217297866   -0.4855315175
 H   -1.1973832369   -1.7111379046   -1.1457828911
 H    2.1011790074    0.0561511375   -3.1841607801