16

 O    0.0072656211   -0.0665269602    0.1314443130
 C   -0.0447072977    1.1340533308    0.0501741019
 N   -1.2097672360    1.8472006226    0.1143311218
 C   -1.3738775054    3.2891070007    0.0353883021
 C   -0.0447921431    3.9508199855    0.3762830718
 C    1.0688558025    3.2510856700   -0.4102386610
 O    1.1136698615    1.8518653119   -0.0716283490
 C    0.9380346842    3.4356785342   -1.8570149462
 C    0.8241648134    3.5995633380   -3.0417109825
 H   -2.0263874975    1.2597167571    0.1574650943
 H   -1.6932575980    3.5941060833   -0.9704283285
 H   -2.1512081274    3.6033880448    0.7398551545
 H   -0.0690892663    5.0151484152    0.1311951826
 H    0.1750994090    3.8433241495    1.4429184882
 H    2.0449418888    3.6303213628   -0.0920989197
 H    0.7369125409    3.7336057838   -4.0920908233