19

 O   -0.0904349278    1.3978098302   -0.0067529091
 C   -0.0309665310   -0.0217921111    0.0155029156
 C    0.5147568713   -0.6144878265    1.3557477257
 C   -0.7463347335   -1.3178447289    1.8517130031
 C   -1.3310028512   -2.0371024622    0.5844604100
 C   -2.7616983046   -2.3568266841    1.0079263569
 O   -3.1210136261   -1.1266567874    1.6680268238
 C   -1.9292225916   -0.3583676248    1.5239896803
 C   -1.4512880095   -0.5662296387    0.0548602497
 H    0.8108360201    1.7346172016   -0.0205473138
 H    0.5272709655   -0.3921763419   -0.8561077907
 H    1.3506266556   -1.3058265187    1.2079207808
 H    0.8456096846    0.1878035656    2.0229774186
 H   -0.7158712489   -1.8310212581    2.8142840391
 H   -0.7693000611   -2.8020762728    0.0457920803
 H   -3.4386533658   -2.5455241555    0.1656383869
 H   -2.8291010767   -3.1966737272    1.7105035706
 H   -2.0534175401    0.6240524570    1.9748793364
 H   -2.1090146094   -0.3185149166   -0.7787102442