23

 C    0.1106744162    1.5390497323   -0.2768519069
 O   -0.0851572694    0.1511927005   -0.1596279238
 C    0.6342130701   -0.6397080752   -1.1025767634
 C    2.1148344697   -0.7573133103   -0.7301851782
 C   -0.0521437809   -2.0064539851   -1.1432453486
 C   -1.5021152807   -1.9308444202   -1.5693895022
 C   -1.8708984486   -1.8749369536   -3.0425362404
 C   -2.1733437057   -3.1035493969   -2.2197125319
 O   -1.4005328284   -4.2578630729   -2.4001546006
 H    1.1389384352    1.8475346474   -0.0364306571
 H   -0.1264437219    1.9000144001   -1.2904553028
 H   -0.5660371316    2.0217177137    0.4335323063
 H    0.5478319169   -0.1688210412   -2.0972772095
 H    2.6451801264   -1.3756005895   -1.4614761305
 H    2.6058488958    0.2197686343   -0.7055104811
 H    2.2219073292   -1.2195234996    0.2563162682
 H    0.4987870989   -2.6679326333   -1.8178441244
 H    0.0141008931   -2.4527305454   -0.1425090039
 H   -2.1249026224   -1.3419123921   -0.9045099005
 H   -2.6876826620   -1.2376847065   -3.3642106549
 H   -1.0570446082   -1.9655267930   -3.7558018488
 H   -3.2140866490   -3.2956468708   -1.9579738025
 H   -1.6388130726   -4.6419453528   -3.2499950422