17

 O   -0.7880718437    1.0709624195   -0.8692778472
 C    0.0578422856    1.1384543898   -0.0111945833
 C    1.2433954618    2.0737448737   -0.0445741791
 C    1.2243783870    3.0729034529   -1.2127237482
 C    2.5298254218    3.9022061751   -1.2988702892
 N    3.3375434124    3.0695996153   -2.1777385431
 C    2.5183358259    2.3182428478   -3.0248261733
 O    2.8705024434    1.6939671484   -3.9989862469
 N    1.2339487400    2.4325329235   -2.5180308378
 H    0.0073607812    0.4837552596    0.8873041956
 H    1.2787712714    2.6000482238    0.9204430564
 H    2.1537323655    1.4571160472   -0.0776418395
 H    0.3514469661    3.7238686690   -1.1088547310
 H    2.3240323249    4.8930768605   -1.7278083756
 H    2.9981583146    4.0397729114   -0.3194860333
 H    4.1842504715    3.4309466880   -2.5880908588
 H    0.5470519504    1.7297583746   -2.7395974057