21

 C   -0.0710802084    1.5165297171   -0.0840149763
 C   -0.0232747126    0.0184414911    0.0992426998
 N    1.2845151559   -0.6447734183   -0.1014218634
 C    0.6545427006   -0.6503602534    1.2351800176
 C    1.3892635711    0.0549133772    2.3776150993
 C    1.9096445733   -1.0925067887    3.2838396058
 C    0.9333598611   -2.2330829623    3.0469304411
 N   -0.4811139840   -1.8050780659    3.1261501872
 C    0.1733260162   -1.9566243763    1.8023425664
 H    0.8313103039    1.9889093871    0.3106034606
 H   -0.1482072657    1.7739137168   -1.1459883450
 H   -0.9392163535    1.9426223009    0.4305751581
 H   -0.8949171425   -0.5056568970   -0.2943310971
 H    1.1583019100   -1.5458758106   -0.5585350807
 H    2.1943252429    0.6884683469    2.0029077106
 H    0.6863922351    0.6792397890    2.9350698977
 H    2.9093063539   -1.4122413528    2.9679038761
 H    1.9697648940   -0.7975403455    4.3357360547
 H    1.1913405996   -3.2438604899    3.3467401120
 H   -1.0638020120   -2.6217138779    3.2950880631
 H   -0.1651145987   -2.7409648873    1.1305252722