19

 C   -0.1999264278    1.5788618473   -0.0497801057
 C   -0.1126638036    0.0396519877   -0.0426397296
 C    0.7990377567   -0.4220509565    1.1364839164
 O    0.2960568773   -0.0481286554    2.3988856286
 C   -1.4386538663   -0.5538843478    0.1558711279
 C   -2.5109916985   -1.0593684114    0.3623658653
 C    0.4849500196   -0.5317639988   -1.3319554098
 C    0.4721564692    0.1558670876   -2.6262599991
 O    1.6629464986    0.0981269696   -1.8317592822
 H    0.7548720371    1.9959053811   -0.3810286284
 H   -0.9949495860    1.9336982931   -0.7094821759
 H   -0.4071650501    1.9287431085    0.9629258214
 H    0.9475083873   -1.5103354496    1.0661820850
 H    1.7739917086    0.0619734830    1.0290078370
 H   -0.5749984036   -0.4540690778    2.4887978669
 H   -3.4672559010   -1.4945528784    0.5197425786
 H    0.5271450365   -1.6221498049   -1.3435788489
 H    0.4958617839   -0.4320316171   -3.5422369608
 H    0.0227548021    1.1415184996   -2.7172846168