17

 C    0.0171957564    1.4837629027    0.0048874671
 C    0.0251196721   -0.0504997227   -0.0058856276
 N    0.8074915297   -0.5611507870   -1.1453833967
 C    1.4162292018   -1.8530383507   -0.7975886436
 C    1.6051958005   -1.7511422494    0.6998461564
 O    2.1644263321   -0.5002400356    1.1306805150
 C    0.7541159505   -0.6705145509    1.1952423533
 C   -1.3607245128   -0.5785503685   -0.0025262413
 N   -2.4332829408   -1.0102720821   -0.0384039572
 H    1.0502030521    1.8278337614    0.0805652071
 H   -0.4199270084    1.8722251963   -0.9186794658
 H   -0.5638465884    1.8684123670    0.8478968224
 H    0.2691453233   -0.5896523047   -2.0015911947
 H    0.7771569132   -2.7265492943   -1.0046345718
 H    2.3583535956   -1.9815846855   -1.3417023325
 H    1.8742081333   -2.6221182131    1.2889023025
 H    0.2930889199   -0.6367881830    2.1775777674