16

 N    0.1213016128    1.3797304728    0.0824169765
 C    0.0351654833   -0.0258473535    0.0113991340
 N   -1.1147430509   -0.6896033198    0.0119803858
 N   -0.7458947011   -1.9885581277    0.0012516154
 C    0.6002229930   -2.1740222928   -0.0191046765
 C    1.1464994099   -0.9056606497    0.0002153709
 N    2.4732904273   -0.4777397307    0.0382723983
 C    3.5798676703   -1.2780074676    0.0201255845
 N    3.5204334527   -2.5474655078   -0.1221855805
 H    0.4230862552    1.7805976013   -0.8014023349
 H   -0.7910626406    1.7672003671    0.2988424902
 H   -1.4589207616   -2.6956063484   -0.0033915039
 H    1.0734617410   -3.1384798955   -0.0360747470
 H    2.5970214015    0.4933142042    0.2777060498
 H    4.5012226421   -0.6940213252    0.1302067510
 H    4.4583626050   -2.9400908667   -0.1300363235