19

 C    0.0713280341    1.0668276639   -0.4021110898
 O   -0.1284725254   -0.0060706769    0.4955901118
 C   -1.3257868699   -0.6869559258    0.2751738632
 C   -1.5220330711   -1.7591461131   -0.7753255644
 O   -2.5944849680   -1.7647825494   -1.6479224376
 C   -0.2287983588   -2.5531835580   -0.9824652358
 C   -0.2081611050   -2.8978172787    0.5437405274
 C   -1.5027164951   -2.1013289237    0.7314838094
 O   -2.5414648546   -2.4953188052    1.5534131967
 H    1.0317388264    1.5244481891   -0.1533439141
 H    0.0992336964    0.7246425138   -1.4472496696
 H   -0.7191888241    1.8271973434   -0.3076482522
 H   -2.2280923419   -0.0848089739    0.4151584802
 H   -2.5126124993   -1.0134490668   -2.2451864811
 H   -0.3966532858   -3.4344724391   -1.6046951252
 H    0.6303934736   -1.9950700653   -1.3649078965
 H   -0.3687360030   -3.9617424143    0.7285693226
 H    0.6586915142   -2.5495903349    1.1100402538
 H   -2.4579188728   -2.0332153453    2.3947432412