16

 C   -0.0976476394    1.5421824952    0.0109976864
 C   -0.0257644159    0.0371050200    0.0024639884
 C    0.0143100678   -0.6656256321   -1.2018648308
 C    0.1107964896   -2.0535026663   -1.1469028856
 O    0.1502102435   -2.7541779940   -2.2998369125
 N    0.1644880615   -2.7520017357   -0.0138011297
 C    0.1230753119   -2.0659451448    1.1273518218
 O    0.1749094851   -2.7791281433    2.2720914499
 C    0.0272635902   -0.6787225627    1.1985086267
 H    0.9094448505    1.9759891473    0.0043174760
 H   -0.6221940702    1.9213938580   -0.8701026599
 H   -0.6066150525    1.9121399840    0.9050459024
 H   -0.0293428818   -0.1659463005   -2.1612578468
 H    0.2138831926   -3.6850294206   -2.0476518768
 H    0.2357569855   -3.7071794183    2.0091152007
 H   -0.0060009084   -0.1895589963    2.1637163397