19

 C    0.0073622422   -1.1312785721   -0.2609837055
 C    0.0342969454    0.0623813405   -0.1345703299
 C    0.0322504072    1.5109496501    0.0189779951
 O    1.3598832207    1.9993322517    0.0260549476
 C    1.4224163004    3.4043486699    0.1681739793
 C    2.8800952995    3.8149733405    0.1314999644
 C    3.5586968569    3.7308097472   -1.2521078955
 O    3.6362748861    5.1703997142   -1.3497181507
 C    3.1318278639    5.3321102773   -0.0098511745
 H   -0.0097334972   -2.1871811359   -0.3731404661
 H   -0.5434861493    1.9705578942   -0.8027954843
 H   -0.4839550532    1.7843335353    0.9554245595
 H    0.8681251714    3.9005545656   -0.6479450573
 H    0.9558987637    3.7200234048    1.1177723037
 H    3.4218159529    3.3223899173    0.9412367036
 H    4.5525130004    3.2665104635   -1.2577047894
 H    2.9551028479    3.2905167359   -2.0543905914
 H    2.2423455354    5.9755176603    0.0227551102
 H    3.8891625857    5.7435544899    0.6696684413