14

 C   -0.2151788741    1.4429567632   -0.0821339069
 C    0.0381463977   -0.0504195388    0.0675526231
 C    0.9116306185   -0.7781550272   -0.9943588148
 O    1.8741173845   -1.1491551799    0.0624061761
 C    1.1573068646   -0.4748818856    1.0212418073
 O    1.4380394758   -0.3273709773    2.1657649230
 C    0.3489284182   -1.9217041022   -1.6766987756
 C   -0.1382668731   -2.8578228880   -2.2507607156
 H    0.7079149644    1.9832347594   -0.3137390002
 H   -0.9383826592    1.6382759307   -0.8791889137
 H   -0.6168238418    1.8483978939    0.8505517491
 H   -0.8865868976   -0.5939135393    0.2770185687
 H    1.4027612781   -0.0969967333   -1.6955779461
 H   -0.5610607260   -3.6896985356   -2.7587467345