13

 O   -0.0969556764    1.4261198788   -0.0661442651
 C   -0.0164721523    0.0332696070    0.0285130279
 C    0.2614299393   -0.6387170988    1.4437043852
 C   -1.1048081015   -1.3195440179    1.3166076668
 O   -2.0698472177   -0.2693338479    1.2149547055
 C   -1.3961060946   -0.6650363681    0.0302256027
 C    0.8645698778   -0.5313921764   -1.0055665935
 N    1.5715352633   -0.9537330462   -1.8169562557
 H    0.7938616526    1.7942401940   -0.0463868270
 H    1.1193930991   -1.3122750054    1.4351260261
 H    0.3346571024    0.0778569912    2.2636621531
 H   -1.4341312421   -2.2770003623    1.6987381766
 H   -1.9841989199   -0.9600249880   -0.8298670326