18

 C   -0.0641749310    1.5572854416    0.1733497286
 C   -0.1353690112    0.0498031413    0.3627431389
 C   -1.3286052058   -0.7017067945   -0.0941937180
 N   -0.0383772542   -0.8494265099   -0.7942284488
 C    1.3168453634    2.0588262457   -0.0843874152
 C    1.9213467139    2.6364889577   -1.1582617204
 C    3.2862360487    2.8707714721   -0.7839300368
 C    3.4068157740    2.4163262962    0.4883550515
 O    2.2187344871    1.9202818021    0.9310655252
 H   -0.6965834435    1.8511518221   -0.6721636503
 H   -0.4777341038    2.0478732491    1.0650467893
 H    0.4048674212   -0.3140946639    1.2339334644
 H   -1.6631054082   -1.5856071966    0.4415023137
 H   -2.1251484100   -0.1402415127   -0.5774544138
 H   -0.0431810112   -0.3041702228   -1.6538934748
 H    1.4527704054    2.8723303445   -2.1012232951
 H    4.0639451254    3.3170670126   -1.3834124102
 H    4.2217952297    2.3730724857    1.1916506019