16

 C   -0.1098128093    1.4823955594    0.0400065059
 N   -0.0531771086    0.0356660437   -0.0849142171
 C   -1.1458692087   -0.7666252070   -0.0286948614
 C   -1.1172929231   -2.1431666102    0.0236523156
 C   -2.3549305912   -2.8121347355    0.0410263675
 C   -3.5511515973   -2.1472124633    0.0082175367
 C   -3.6000566874   -0.7207159362   -0.0430193667
 O   -4.5306854953    0.0353710499   -0.0763806877
 O   -2.2930633240   -0.0919563822   -0.0511778036
 H    0.8668362044    1.8894519181   -0.2283313764
 H   -0.8589901864    1.8878667905   -0.6418547278
 H   -0.3624761476    1.8080256389    1.0571421443
 H    0.8320867945   -0.4164362349    0.0691955291
 H   -0.1744187864   -2.6718126302    0.0437476875
 H   -2.3563257408   -3.8976494474    0.0820959851
 H   -4.5030469828   -2.6597842736    0.0223961091