16

 C   -0.8430055287    0.7507262905   -0.3483059581
 C    0.4756611099    0.2958702085    0.2854116032
 N    0.3748501529   -1.0586783115    0.8209273708
 C    0.0857714929   -1.2139926342    2.0339019892
 N   -0.0529760311   -2.4308067997    2.6987821134
 C   -0.3345005631   -2.1501412467    3.9972581403
 O   -0.5023176295   -3.1399258968    4.8710328403
 N   -0.4165883477   -0.8901626917    4.2617947974
 O   -0.1567110021   -0.2594223797    2.9950504134
 H   -1.6319241295    0.8227163946    0.4068358150
 H   -0.7268065038    1.7340246991   -0.8157854841
 H   -1.1672773845    0.0393423009   -1.1136226336
 H    1.2580113857    0.2838498570   -0.4816102023
 H    0.7848780362    1.0192967470    1.0519042617
 H    0.0937830376   -3.3325327324    2.2813424079
 H   -0.6943860253   -2.7418430548    5.7314352954