21

 O    0.1127714196    1.2777230601   -0.2031795308
 C    0.0983299224   -0.1272753588    0.0053542053
 C   -1.3467787362   -0.5748529287    0.0536475896
 C   -2.1881942925   -0.5113866475   -1.2507187524
 C   -2.8253804512   -1.8738152830   -0.8599961422
 C   -3.0782728936   -2.9081934277   -1.9594158541
 C   -3.6331883887   -4.1958686768   -1.3960779351
 O   -3.1128120989   -5.2775412948   -1.4925199915
 C   -1.6432388464   -2.0972797431    0.1271618642
 H    1.0284845861    1.5665975303   -0.2546364438
 H    0.6196827405   -0.6570370686   -0.8098116564
 H    0.6036970406   -0.3993346571    0.9471881787
 H   -1.8559100892   -0.0390337031    0.8614750968
 H   -2.8541921066    0.3419823657   -1.3926651981
 H   -1.5505358668   -0.6075026080   -2.1364914375
 H   -3.7512686506   -1.7035347517   -0.2978070420
 H   -3.8184635409   -2.5047544908   -2.6663076480
 H   -2.1608951300   -3.1323968991   -2.5127461718
 H   -4.5959103224   -4.0731539628   -0.8437463438
 H   -0.8447710845   -2.6853371874   -0.3396426221
 H   -1.8647473909   -2.5315949971    1.1049303550