17

 O    0.1984573943    1.4889506493   -0.1295308837
 C    0.0712769193    0.0714257460   -0.0480669062
 C    0.7134679701   -0.6387789281   -1.2546576097
 N    0.0051087421   -0.3017217334   -2.4765699213
 C    0.4684331278    0.8730474166   -3.2052682250
 C    0.7356633823   -0.4946044021   -3.7263991995
 C    0.6157851325   -0.4472902319    1.2091877115
 C    1.1138657494   -0.8519395890    2.2259206341
 H    1.0935932792    1.7139911394    0.1475657343
 H   -1.0071031303   -0.1189224796   -0.0922878011
 H    1.7880609038   -0.3771825742   -1.2892530119
 H    0.6457111863   -1.7216089494   -1.1006343433
 H   -0.3089387320    1.4921628689   -3.6424541544
 H    1.3101978989    1.4258657132   -2.7947578947
 H    1.7604728967   -0.8588012365   -3.6670826850
 H    0.1572614770   -0.8999810362   -4.5515627178
 H    1.5311973626   -1.2125712629    3.1336782035