19

 C   -0.0131272304    1.4429585812    0.0372531808
 C    0.0820721531   -0.0465414810   -0.0838426694
 C   -0.5598910642   -0.9282838430   -1.1491918284
 C   -0.3948918535   -2.0494426862   -0.1053484178
 N   -0.3350083734   -0.9715795720    1.0303186887
 C    1.1224833854   -0.8596358484    0.6268019934
 C    1.1079777500   -2.2417909091    0.0466304421
 C    1.8106052265   -3.4497883227    0.5088174499
 N    2.0877274884   -2.8650981552   -0.8297532545
 H    0.5998511363    1.9356067317   -0.7257833833
 H   -1.0477156882    1.7802760544   -0.0854519417
 H    0.3357186741    1.7754182260    1.0197509762
 H   -1.6109717825   -0.6576204741   -1.2849497859
 H   -0.0743794707   -1.0442044311   -2.1241800661
 H   -1.0937203479   -2.8810030743   -0.0272478577
 H    1.8582109875   -0.4136315959    1.2863265724
 H    2.6335879092   -3.3731722456    1.2143892123
 H    1.2493923607   -4.3794016291    0.5674885022
 H    1.6235640296   -3.4100110055   -1.5537324631