17

 C   -0.4631629585    1.1971512042    0.0109628653
 C   -0.1029483748   -0.2056823469   -0.1390489308
 C    0.2129319297   -1.3616228799   -0.2643071466
 C    0.5608619469   -2.7756999515   -0.4137605894
 N   -0.5265062046   -3.7527162588   -0.3792971445
 C   -1.7150168514   -3.3466960455   -0.2241113184
 N   -2.7573953986   -4.2657972075   -0.1897108143
 C   -4.0798094690   -3.9268717736   -0.0256234662
 O   -4.4951974817   -2.8004086598    0.1075601638
 H    0.4304868798    1.8286311715    0.0636648744
 H   -1.0674702775    1.5462799099   -0.8332107997
 H   -1.0417678780    1.3637960200    0.9259045097
 H    1.0975661617   -2.9249742863   -1.3605718231
 H    1.2768413337   -3.0635579773    0.3680870729
 H   -2.0389312235   -2.3120465740   -0.1082398166
 H   -2.5033172178   -5.2382663866   -0.2936618823
 H   -4.7305340463   -4.8218793177   -0.0298632444