16

 N   -0.0108906379    1.2583326957   -0.0470520661
 C   -0.0091429614   -0.0012915255   -0.0973922938
 O   -1.1465258411   -0.6751652598    0.2044949872
 C   -1.1219934643   -2.0818829447    0.0349983055
 C   -2.3763381743   -2.7182581098    0.6492051506
 C   -2.8930809914   -3.6234128511   -0.4412734957
 C   -2.2281540046   -3.5029997993   -1.5983211123
 C   -1.1567723033   -2.4989747752   -1.4613653428
 O   -0.4251572009   -2.0500168939   -2.3115924826
 H    0.9155928086    1.6136509251   -0.2739263613
 H    0.8328977912   -0.6519778719   -0.3551374122
 H   -0.2089913535   -2.5035222119    0.4784875559
 H   -2.1751655190   -3.2650460535    1.5761201730
 H   -3.1055039090   -1.9372726440    0.8929976391
 H   -3.7342555413   -4.2877283694   -0.2741541556
 H   -2.4323187377   -4.0202092808   -2.5266138489