18

 C   -0.0174962901    1.6126780613    0.2311603775
 C    1.4596156365    1.2288775853    0.1084420559
 O    1.1650002464   -0.0092459934    0.9112978193
 C    0.0924589264    0.1007491792   -0.1209792284
 C   -0.9561531204   -0.8231408638   -0.7109551273
 C   -0.8607379989   -0.4077348545   -2.1990547794
 N   -0.9685161209    1.0452249999   -2.4356196572
 C    0.3735222924    0.4290124276   -2.4674803596
 C    1.1625178938    0.3682823536   -1.1740005191
 H   -0.3447462647    1.8109193347    1.2529786439
 H   -0.4547423474    2.2740983038   -0.5120363041
 H    2.3620819504    1.7698778870    0.3950635356
 H   -0.6711481947   -1.8753648495   -0.6049387814
 H   -1.9599330404   -0.6844622809   -0.3005132949
 H   -1.2583158314   -1.0820307731   -2.9509649141
 H   -1.2731596505    1.2096994078   -3.3912250801
 H    0.8840317704    0.3605051938   -3.4230164663
 H    1.8817367533   -0.4533132088   -1.2480641101