13

 O   -0.3002100278    1.3641631139    0.1600808436
 C    0.0028561662   -0.0210742132    0.0179503826
 C    0.7988419352   -0.2930518397   -1.2801052801
 C    0.0534341477    0.1636327467   -2.5194325604
 O    0.0026972150   -0.4689572179   -3.5430604041
 C    0.7105713993   -0.5499394002    1.1845517773
 C    1.3314427585   -0.9488294158    2.1333207272
 H    0.4899421524    1.8030914080    0.4949698922
 H   -0.9742444948   -0.5140957363   -0.0586627376
 H    1.7425095678    0.2677193353   -1.2227303408
 H    1.0464502798   -1.3529589176   -1.3806914985
 H   -0.4486155913    1.1488851648   -2.4194349180
 H    1.8617262019   -1.3110676580    2.9796943867