21

 C    1.1970878785    1.4102628003    0.6211500890
 C    0.6693882872    0.0670615994    0.1256565998
 C    1.5329017130   -0.5470921562   -0.9571415071
 O    2.5094723816    0.0108340180   -1.4074245773
 C    1.1246595697   -1.9487044507   -1.4270811768
 N    0.5210406320   -2.6534810747   -0.5365483138
 N    1.5359339163   -2.3636994140   -2.6731903931
 C    1.3213155962   -3.7534077537   -3.0298655009
 C    1.7168276767   -1.4643706505   -3.8076843430
 H    2.1940889713    1.3035910544    1.0571024153
 H    1.2777476735    2.1311731334   -0.1969147639
 H    0.5314345894    1.8245162068    1.3834527302
 H    0.5696188157   -0.6697431282    0.9283263395
 H   -0.3468834171    0.1587912012   -0.2827753373
 H    0.2946336899   -3.5904317106   -0.8671635587
 H    0.2630318935   -3.9884286470   -3.2250819117
 H    1.8897538387   -3.9754533814   -3.9359927771
 H    1.6807936600   -4.4126091166   -2.2338303024
 H    1.8741184278   -0.4460207166   -3.4680871549
 H    2.5979037827   -1.7685128990   -4.3832644246
 H    0.8454951836   -1.4954754244   -4.4784830411