19

 C   -0.0891362748    1.5060396648   -0.0666488993
 C    0.0253113754    0.0030956284    0.0346645703
 C    1.3254568849   -0.6959706235   -0.1961297456
 C    0.7427726743   -0.6563080937    1.2057350241
 C    1.3641184977    0.0836254952    2.3818661542
 C    1.0787060562   -0.8300295921    3.5502601846
 C    0.4113676085   -1.9364933913    3.2016454172
 C    0.1496983984   -1.9329228186    1.7423536083
 O   -0.4268345199   -2.7779168321    1.0894524774
 H    0.8398110838    2.0043763576    0.2287382727
 H   -0.3074613211    1.8045859424   -1.0976614148
 H   -0.8945749605    1.8933264998    0.5672807795
 H   -0.8537879236   -0.5529140033   -0.2822318569
 H    1.3109754087   -1.6617424795   -0.6903749713
 H    2.2075370576   -0.0890338001   -0.3780764354
 H    2.4441136427    0.2433168329    2.2672332975
 H    0.9245531130    1.0752721542    2.5502700837
 H    1.3970119648   -0.5801943483    4.5568304312
 H    0.0901096039   -2.7407043027    3.8506304727