17

 C    0.2003391951    1.0924098741    0.5900664820
 N   -0.0460230802    0.0285008200   -0.3932614321
 C   -1.2581388810   -0.6709897268   -0.2064056044
 C   -1.3338525529   -1.9990304252    0.0834695860
 O   -0.3904676515   -2.9520630328    0.2441920029
 N   -2.6741330888   -2.3053701831    0.1869580247
 C   -3.3532557115   -1.1296703994   -0.0455194368
 N   -4.7466420510   -1.0747889909    0.0699698484
 N   -2.5457916317   -0.1351509985   -0.2940300046
 H    1.1467648481    1.5893490711    0.3543331871
 H   -0.5977760140    1.8472115597    0.6241213945
 H    0.2868911885    0.6463818707    1.5855476082
 H   -0.0099969194    0.4282337694   -1.3264826499
 H    0.4501585033   -2.4991542972    0.0865172253
 H   -3.0606496988   -3.1773808357    0.5057187840
 H   -5.0470593926   -0.1201873208   -0.0892395997
 H   -5.2217797118   -1.6800073745   -0.5926131757