23

 C    0.0842408120    1.5925335260    0.0092762277
 C   -0.0204737670    0.0595419425    0.0256929184
 C    0.6237768506   -0.5032943882   -1.2568895846
 O    0.1467625020   -1.7501083237   -1.7294452938
 C   -0.0676031310   -2.8116922073   -0.8168098208
 C    0.8694895695   -2.8944915646    0.3923884099
 C    0.4572873904   -1.9864076289    1.5597889674
 O    1.2243188807   -2.2638598932    2.7277702074
 C    0.6405309336   -0.4924909113    1.2989874029
 H    1.1314661134    1.9131575715   -0.0487953806
 H   -0.4427669997    2.0175216404   -0.8507216120
 H   -0.3427738615    2.0279949765    0.9177905701
 H   -1.0858921655   -0.2089355042    0.0140225444
 H    0.4363065360    0.1819435317   -2.0903699628
 H    1.7175832926   -0.5344906316   -1.1129695047
 H   -1.1084980723   -2.7883847798   -0.4500449552
 H    0.0315390653   -3.7214499760   -1.4187369265
 H    0.8385163033   -3.9327679988    0.7509137424
 H    1.9077615649   -2.6991662451    0.1004073053
 H   -0.6127338313   -2.1755025329    1.7603155072
 H    1.1087416274   -3.1939367806    2.9468789293
 H    1.7196222618   -0.2901464458    1.2557560891
 H    0.2632921248    0.0427375835    2.1774379793