14

 N    0.0125269403    1.3557661062    0.1499419562
 C    0.0124433732   -0.0208406083    0.0531028266
 N   -1.0996565410   -0.7412031307    0.0241660620
 N   -0.6015956975   -2.0197714792    0.0011613297
 C    0.7359256057   -1.9766661017    0.0081138716
 N    1.5585524229   -3.0930883437   -0.0138903173
 C    1.1178166409   -4.3862203019   -0.0512428099
 O   -0.0511118107   -4.7123166757   -0.0726419283
 N    1.1810673805   -0.7341838646    0.0397232935
 H    0.8342489265    1.7819516897   -0.2522932045
 H   -0.8464084874    1.7807208767   -0.1679534762
 H   -1.1817220250   -2.8429532752   -0.0246151745
 H    2.5484154715   -2.8976332556    0.0055552561
 H    1.9519318801   -5.1085591359   -0.0602017851