17

 C    0.1814635673    1.6205774662   -0.0275061138
 C    0.0872761094    0.0949811150   -0.0136955406
 C    0.7167913799   -0.6292602844   -1.1868774055
 N    2.1911390811   -0.5346182853   -1.1790100291
 C    1.5399610095   -1.7731304109   -0.7030714220
 C    1.4840875939   -1.8388211527    0.8056323079
 C    0.7898929357   -0.5281149753    1.2134254918
 O    0.7831902937   -0.0568387640    2.3196727550
 H    1.2127186503    1.9290710294   -0.2193256450
 H   -0.4602181220    2.0514418524   -0.8018868479
 H   -0.1233285164    2.0198369827    0.9432025984
 H   -0.9691935441   -0.2068719586    0.0601066097
 H    0.1979712721   -0.6723214213   -2.1391314880
 H    2.5512208390   -0.6727331149   -2.1194830278
 H    1.6422015963   -2.6808495784   -1.2879765413
 H    0.8741611694   -2.6836272165    1.1507882101
 H    2.4618940151   -1.9129171235    1.2881763080