16

 C   -0.0255615117    1.4352844321    0.0646935546
 N   -0.0094155422   -0.0115225202    0.0414589374
 C   -0.0279914149   -0.8080738167   -1.0712857007
 N   -0.0058223691   -2.0836799157   -0.7721159064
 C    0.0292162271   -2.1284329943    0.6034163054
 C    0.0275355741   -0.8628035277    1.1304802362
 C    0.0576205434   -0.3735189199    2.5411598548
 O    0.0751980082   -1.5072632639    3.3868371274
 H    0.8713734312    1.8350570669    0.5497876845
 H   -0.0551474018    1.8043395751   -0.9621174368
 H   -0.9065017367    1.8144874989    0.5936158534
 H   -0.0575275234   -0.3838794737   -2.0648572007
 H    0.0531591676   -3.0597375285    1.1454710103
 H    0.9457619346    0.2630079595    2.7074630507
 H   -0.8222179477    0.2637459277    2.7447218660
 H    0.1076091812   -1.2002072997    4.2969996440