17

 C   -0.0653564617    1.5718593111    0.0837993883
 C    0.0256047693    0.0578587511    0.0069805750
 O   -1.2401599881   -0.5516019055   -0.1564019224
 C    1.1090985347   -0.5633997372   -0.9658373784
 C    1.7157608562   -1.2885379933    0.2434259549
 N    2.1101657945   -0.2205789970    1.2071087801
 C    0.7139838788   -0.6736934798    1.1739702218
 C    2.3142710280   -2.5802439237    0.2837271013
 N    2.8044719679   -3.6290021617    0.3041144743
 H    0.9103989940    2.0031561144    0.3178102547
 H   -0.4001939883    1.9854459636   -0.8754917856
 H   -0.7836755963    1.8691785883    0.8538722575
 H   -1.6664922768   -0.1554839701   -0.9241519406
 H    0.6341904049   -1.2445337125   -1.6726190508
 H    1.7904609008    0.1209455563   -1.4749972496
 H    2.5654638663   -0.6693113364    2.0020280690
 H    0.2220698958   -1.1079343877    2.0354538904