16

 O    0.0002460312    1.3877724826    0.0702576633
 C    0.0567050646   -0.0262397893   -0.1435917735
 C   -1.3366057030   -0.5957074110   -0.0375443731
 O   -2.2610566476    0.0721003058   -0.8491248112
 C   -1.7003065147   -2.0532037062    0.1038164594
 C   -0.7432722667   -2.7624320406    1.0514399223
 O   -0.9198541271   -1.7356522325    2.0698212494
 C   -1.9156607230   -1.0941346806    1.2654998769
 H   -0.1416468664    1.5285521611    1.0128891460
 H    0.4421431640   -0.1558837314   -1.1597181729
 H    0.7396651455   -0.5108110908    0.5613669492
 H   -2.0350123824    1.0086367537   -0.7607707241
 H   -2.4139546555   -2.5140731073   -0.5652291385
 H   -1.1289569302   -3.7230221008    1.4110367062
 H    0.3040531289   -2.8779101924    0.7498359094
 H   -2.8099370375   -0.7064442703    1.7397704512