16

 O   -0.2364037873   -0.0068928905   -0.0640661557
 C   -0.1806846427    1.1814205288    0.0349792810
 C   -1.1770433975    2.3112418328   -0.0973450548
 N   -0.9296858071    3.1712275563    1.1147453277
 C   -0.0461382634    3.3014884520   -0.0465493286
 C    1.0167948570    2.1982310239    0.1153836843
 C    1.9071492224    2.2187351676    1.3230864591
 C    3.1233191574    1.4000685781    1.3887374714
 O    3.2047018711    2.8053976623    1.1482251552
 H   -2.1304532031    2.3391589315   -0.6084452769
 H   -1.6255358184    3.9158735436    1.0738281170
 H    0.0492024100    4.2252359058   -0.6011815881
 H    1.6182371921    2.0718813761   -0.7917337199
 H    1.4116495104    2.4899168509    2.2531807035
 H    3.4940657077    1.0653477184    2.3561700368
 H    3.3882315714    0.7633403424    0.5456045383