19

 C   -0.1144737772    1.3486909275    0.1099626710
 C   -0.2521470042   -0.1648093382    0.1530001660
 O    0.5079367520   -0.8713802291    0.7942114668
 N   -1.2746710730   -0.6866902958   -0.5850906692
 C   -1.5091850779   -2.1181937860   -0.6479645503
 C   -2.2091928474   -2.6492188250    0.6168417121
 N   -2.4363875297   -4.0841361611    0.5579562134
 C   -3.4473115883   -4.6234257158   -0.1697494146
 O   -4.2477137618   -3.9808876107   -0.8192585292
 H   -0.1073842516    1.7308797231    1.1336840533
 H    0.8507661825    1.6001283486   -0.3383366696
 H   -0.9065995861    1.8483270869   -0.4536635567
 H   -1.9037986768   -0.0693091294   -1.0690853990
 H   -2.1295625628   -2.3359283146   -1.5196694258
 H   -0.5454206927   -2.6224087636   -0.7643180040
 H   -1.5902308928   -2.4265514463    1.4876490520
 H   -3.1765410126   -2.1519299981    0.7333738638
 H   -1.7964981263   -4.7032493961    1.0282466286
 H   -3.4699689935   -5.7291834265   -0.1003640988