21

 C    0.0501434301    1.5505141838   -0.0663392864
 C    1.6139279008    1.3956217049    0.0098771904
 C    1.3283392281    0.0481976295    0.6350129544
 C    1.6228093090   -0.6120999809    1.7510843348
 C    0.5114553127   -1.4976768050    2.2949892150
 C   -0.7463390682   -0.5712097230    2.4578668555
 C   -1.0105014747   -0.8179128579    0.9412030707
 C   -0.2866116205   -2.1903411134    1.1485841292
 C   -0.0670933570   -0.0085494869    0.0468664001
 H   -0.3367675014    2.0553111261    0.8222716941
 H   -0.3640497953    2.0183873438   -0.9627871222
 H    2.0492311504    1.3292422570   -0.9936011684
 H    2.1788090971    2.1254133907    0.5948977605
 H    2.5024903939   -0.4115632330    2.3562029661
 H    0.8233672801   -2.1063584696    3.1449127554
 H   -1.5248992010   -1.0459007180    3.0621051887
 H   -0.5789980741    0.4498165095    2.8107444972
 H   -2.0478199823   -0.8171929996    0.5965919975
 H    0.2826368628   -2.5974192384    0.3084684397
 H   -0.9656060988   -2.9535369020    1.5382672308
 H   -0.0750936718   -0.4315345175   -0.9669057931