22

 C    0.0886747158    1.0753478667    0.4077829021
 C    0.2377727647   -0.4414929605    0.5053918691
 O   -0.9955128048   -1.1287538122    0.6456185793
 C   -1.7635694952   -1.2299365974   -0.5358781984
 C   -3.0050515373   -2.0558669880   -0.2525596748
 C   -4.0419918453   -2.0167787198   -1.3577421934
 O   -4.6636196919   -0.7441249980   -1.4223061887
 C   -2.9317178270   -3.2066126674    0.6753572603
 N   -3.6143100502   -1.9590428161    1.0872081385
 H    1.0771965850    1.5458486237    0.3928245826
 H   -0.4373813373    1.3788990919   -0.5017025152
 H   -0.4634769086    1.4611568212    1.2698841761
 H    0.7845497652   -0.8302951442   -0.3683121032
 H    0.8164971305   -0.7026126491    1.3974078857
 H   -2.0810257519   -0.2414996634   -0.8983909805
 H   -1.1723646434   -1.7051697168   -1.3373515634
 H   -3.5802774522   -2.1871843839   -2.3371861809
 H   -4.7794050488   -2.8150513983   -1.1895941331
 H   -5.0044184637   -0.5836924570   -0.5330762638
 H   -3.5848052888   -4.0634712728    0.5332601803
 H   -1.9693971607   -3.4236923456    1.1276265655
 H   -2.9748342340   -1.4373278929    1.6834744460