22

 C    0.0772459190    1.4934588308   -0.0303032713
 C   -0.0307747732   -0.0308556998    0.0215557736
 C   -1.5040507238   -0.4712228214    0.0822003648
 O    0.5720848650   -0.4782077406   -1.2022589379
 C    0.8713557074   -1.8596595745   -1.2708738343
 C    1.9885939904   -2.2494906097   -0.2986433224
 C    1.7057113078   -1.6852445582    1.0855527937
 N    2.1568211931   -0.2997548754    1.3139893324
 C    0.7175946789   -0.5786709909    1.2357624129
 H    1.1296434264    1.7810217997   -0.0662959698
 H   -0.4270329392    1.8750293805   -0.9227982673
 H   -0.3852065760    1.9472181354    0.8521810764
 H   -2.0244011145   -0.1444231923   -0.8221530399
 H   -1.6066899771   -1.5574425720    0.1652043307
 H   -2.0047126460   -0.0264154590    0.9481159607
 H   -0.0241605346   -2.4682191532   -1.0715644864
 H    1.1695275643   -2.0485704886   -2.3065873576
 H    2.0688686160   -3.3415150655   -0.2565493473
 H    2.9463982469   -1.8578973063   -0.6548986314
 H    1.8006447188   -2.3785465253    1.9180870732
 H    2.4358885460   -0.1727960156    2.2829887071
 H    0.1452895243   -0.5398603580    2.1610782800