25

 C    0.2941533386    1.5161072627    0.0067845495
 C    0.0195380603    0.0144185750    0.0015838742
 C   -1.4674718686   -0.3350595547    0.0145993457
 O   -2.3129878504    0.5324873655    0.0280677301
 C   -1.7832532669   -1.8284263534    0.0090220099
 C   -3.2630943505   -2.2758484976    0.0207718658
 C   -3.9977194141   -1.7624908930   -1.2323230374
 C   -3.2799601391   -3.8169747791    0.0128174315
 C   -3.9736131771   -1.7757867359    1.2929941529
 H    1.3699759176    1.7123496784   -0.0025666605
 H   -0.1538829490    1.9977015242   -0.8659990414
 H   -0.1369564788    1.9884772136    0.8930212482
 H    0.4712208888   -0.4679565856   -0.8761964116
 H    0.4884110810   -0.4770633582    0.8652025825
 H   -1.2755274673   -2.2561405987   -0.8681622984
 H   -1.2587385387   -2.2660503755    0.8713234375
 H   -3.5086128607   -2.1167900777   -2.1476283719
 H   -5.0288287895   -2.1321973887   -1.2469017754
 H   -4.0227384779   -0.6719597775   -1.2557486792
 H   -2.7697829719   -4.2282201328    0.8914976182
 H   -4.3094680819   -4.1908644323    0.0207462742
 H   -2.7868097068   -4.2188972366   -0.8797861563
 H   -3.9979747813   -0.6855615102    1.3284183495
 H   -5.0043270780   -2.1456403743    1.3233054332
 H   -3.4672212176   -2.1397368577    2.1950160590