21

 C    0.3151469467    1.5669537906   -0.3860423277
 C    0.0316039173    0.0715846183   -0.1737235960
 C    0.5198391019   -0.3646171421    1.2213247667
 N   -1.3801918661   -0.3545356618   -0.2905841307
 C   -2.4250507465    0.3301547995    0.4550131278
 C   -2.3672382579    0.4240178945   -1.0307173982
 C    0.8743515432   -0.7278844792   -1.2052166428
 N    0.2689562536   -1.8350779306   -1.6985452972
 O    2.0060725104   -0.3866317497   -1.4993198680
 H    1.3883813186    1.7342753380   -0.2905789490
 H    0.0282131045    1.9000006239   -1.3869347814
 H   -0.2027545249    2.1835639172    0.3550554036
 H    0.0269911157    0.2247539042    2.0010266910
 H    0.2931943813   -1.4203699230    1.3932867010
 H    1.5990997673   -0.2174687408    1.3015563411
 H   -3.1518924724   -0.3110148255    0.9464730755
 H   -2.1649308146    1.2270457016    1.0125024725
 H   -2.0790671069    1.3823437646   -1.4523663880
 H   -3.0491632877   -0.1538661815   -1.6486683532
 H   -0.6607638386   -2.0644067749   -1.3873487367
 H    0.7847325950   -2.4356585535   -2.3190296101