19

 C    0.0815743559   -1.2685969053    0.1133090294
 C    0.0032772475   -0.0681083248    0.0484285879
 C   -0.0452396407    1.3612281123   -0.0309302091
 C   -1.2561593232    1.9611520572   -0.0229695532
 C   -1.5391958932    3.4333345231   -0.0925994212
 C   -0.6000893665    4.3165253842    0.7478464808
 C    0.7897412973    4.5267631419    0.1438550936
 C    1.6216692284    3.3028444433   -0.1079373715
 C    1.2737556322    2.0098746831   -0.1570004436
 H    0.1360521633   -2.3271010035    0.1725036953
 H   -2.1218881646    1.3087777348    0.0451466175
 H   -1.5094662303    3.7670135593   -1.1412491240
 H   -2.5715269914    3.5967255140    0.2354496025
 H   -1.0660108123    5.2997280689    0.8791622202
 H   -0.5034500653    3.8800036126    1.7482529829
 H    0.7023077099    5.0885740814   -0.7988784346
 H    1.3612928001    5.1904994178    0.8076855065
 H    2.6773755333    3.5150422758   -0.2697193091
 H    2.0774991997    1.2996443740   -0.3310870003