17

 C    0.0946041780    1.5688571510   -0.1476335008
 C   -0.0591983323    0.0688407508    0.0837754801
 O    0.5233881763   -0.6472432657   -1.0427804277
 C    1.4849766903   -1.6336112427   -0.6458356152
 C    1.5348059457   -1.4317622938    0.8271431098
 C    0.6763995719   -0.4891574531    1.2629711897
 C    0.8376148854   -0.4386648137    2.6855661323
 C    1.7936173827   -1.3690410557    2.9696825311
 O    2.2370426272   -1.9955926044    1.8297319317
 H    1.1521285048    1.8460207454   -0.1726732121
 H   -0.3655328992    1.8516179991   -1.0984617171
 H   -0.3965306581    2.1301143810    0.6544452852
 H   -1.1310025558   -0.1806623684    0.1162822556
 H    1.1417147332   -2.6374699688   -0.9398437089
 H    2.4402212112   -1.4456848652   -1.1567931936
 H    0.3319558617    0.1862156367    3.4052018898
 H    2.2574408369   -1.6973623525    3.8849755099