17

 C   -0.0283207077    1.4229767727   -0.0055199879
 N   -0.0404469048   -0.0312037876    0.0041899755
 C    0.5575881943   -0.6191631675    0.9535926647
 N    1.2540856973   -0.0812791110    2.0402377687
 C    1.6943645167   -1.1296436792    2.8397456681
 N    1.4224199046   -2.3038833598    2.4257925775
 C    0.6697712432   -2.1307212091    1.1660667596
 C   -0.6903457020   -2.8286804766    1.2100719644
 H    0.9927221859    1.8314595490   -0.0671383109
 H   -0.5811288585    1.7877807926   -0.8745024342
 H   -0.5036599322    1.8523929860    0.8911362426
 H    1.3273961528    0.8960796531    2.2625380301
 H    2.2417657510   -0.9105381188    3.7515318905
 H    1.2642549425   -2.5624655472    0.3509127154
 H   -1.2887651066   -2.4524823160    2.0450691859
 H   -1.2307139794   -2.6340784619    0.2804267765
 H   -0.5582052372   -3.9056658086    1.3387726633