21

 C   -0.0374968035    1.5725205091   -0.2183893393
 C   -0.0394757026    0.1110835042    0.2419044791
 C   -1.3949773838   -0.5465159063    0.0713965520
 O   -1.8600205146   -0.6205923699   -1.3161219690
 C   -2.1409496856   -2.0103751220   -1.1582226506
 C   -0.8869603240   -2.7846333324   -0.9058889080
 C   -1.5783724204   -2.0588342287    0.2435770079
 C   -2.0224786388   -2.7331813738    1.5033583134
 O   -0.9904094586   -2.7787589096    2.4840263573
 H    0.9524646370    2.0226160660   -0.1001052700
 H   -0.3214374210    1.6422538241   -1.2723690593
 H   -0.7489389822    2.1715720179    0.3606963432
 H    0.7150320517   -0.4554768381   -0.3150821226
 H    0.2275049348    0.0390659436    1.3040362854
 H   -2.1515172679   -0.0075618204    0.6603225718
 H   -3.0522288095   -2.4013378017   -1.5965508765
 H   -1.0055602000   -3.8647634939   -0.8790472476
 H    0.0511985355   -2.4351812011   -1.3261709192
 H   -2.8393835475   -2.1725134484    1.9715150620
 H   -2.4061993765   -3.7406775953    1.2753549484
 H   -0.2345925024   -3.2199847331    2.0815839717