19

 C    0.1096045277    1.5187289730   -0.1234208839
 C    0.0004806023    0.0138103436    0.1222610003
 O    0.5860174865   -0.3619094472    1.3602826028
 C   -1.4592169017   -0.4780172578    0.0690345344
 C   -1.5782233704   -2.0223358694    0.1754794528
 O   -2.5125810300   -2.2330320341    1.2597823726
 C   -2.7237152307   -1.0049414454    1.7919761706
 N   -3.4698933745   -1.0181259956    2.9351070968
 N   -2.2064569532    0.0222967431    1.2325275337
 H    1.1495756542    1.8390910240   -0.0196832941
 H   -0.2367305567    1.7803951516   -1.1293167210
 H   -0.5028191486    2.0659707289    0.5994936286
 H    0.5749888544   -0.5216466062   -0.6451137472
 H   -0.0110216269   -0.0203133487    2.0401143116
 H   -1.9203890793   -0.1059259334   -0.8558252457
 H   -1.9827542298   -2.5020152447   -0.7182650474
 H   -0.6278534776   -2.4875753913    0.4522295253
 H   -4.0582384369   -1.8256520733    3.0643078159
 H   -3.8863903287   -0.1334848972    3.1770405238