18

 C   -0.2225957849    1.4994233200   -0.0022949032
 N    0.0452836449    0.0713247306    0.0972830891
 C    1.3740487968   -0.4893786193   -0.1769060716
 C    2.6002124581    0.4133711304   -0.0763046357
 O    3.3878275287    0.6497135859   -0.9614945754
 C    2.6497437882    0.9030733879    1.3325657540
 C    1.6547526375    0.3483466506    2.0371138732
 C    0.7878673844   -0.5552792550    1.2001582630
 C    0.1724632577   -1.7805331536    1.8293825647
 H    0.5594758662    2.1560259734    0.4019341669
 H   -0.3647806147    1.7443611062   -1.0587772477
 H   -1.1582968965    1.7122188727    0.5241076067
 H    1.4103776089   -1.3214719927   -0.8738913699
 H    3.3808459696    1.6244127159    1.6751588797
 H    1.4411685697    0.5344426252    3.0847119810
 H   -0.5066030846   -1.5001669874    2.6430018544
 H   -0.4028018449   -2.3344784520    1.0847111042
 H    0.9422050248   -2.4387143687    2.2458679564