25

 C    0.4816355075    1.6622052106   -0.0528706033
 C    0.0710431062    0.1886328096    0.0897416508
 C    0.5776709799   -0.6743791762   -1.0843872332
 C    2.0356311576   -0.9854215097   -0.7078581439
 C    2.0324475950   -1.1755690324    0.8333852650
 C    3.3069036521   -0.6394976485    1.4927144523
 C    0.7097948379   -0.5120313674    1.2990918277
 C    0.5086326944    0.0188550601    2.6948278763
 C   -0.1833155442   -1.2511917065    2.2692877512
 H    1.5656217051    1.7764522505   -0.1538340972
 H    0.0165395080    2.1091858546   -0.9383379105
 H    0.1717734285    2.2471896101    0.8184626012
 H   -1.0219101656    0.1486008768    0.1617790747
 H   -0.0028192859   -1.6033379486   -1.1327217630
 H    0.4815256669   -0.1772661476   -2.0548726027
 H    2.4341191131   -1.8591530825   -1.2316891100
 H    2.6806050497   -0.1399372187   -0.9748679775
 H    1.9706544331   -2.2488191628    1.0512656038
 H    3.3993473042    0.4432092358    1.3537212722
 H    3.3296066337   -0.8400542104    2.5688214592
 H    4.1937600993   -1.1106559195    1.0543353276
 H    1.3246438187   -0.0561508270    3.4056898362
 H   -0.0958044865    0.9120241939    2.8201564619
 H   -1.2568925592   -1.2228591732    2.1097066155
 H    0.1796557106   -2.1883627013    2.6810914458