15

 O   -0.1488374312    1.4613329561    0.0110577084
 C    0.0276768249    0.0543030633    0.0020876839
 C   -1.3612635605   -0.5664215252    0.0117931640
 C   -1.3289816888   -2.0726250051    0.0036238895
 O   -0.3214695503   -2.7385727812   -0.0096112282
 C   -2.7117842604   -2.7707267261    0.0130907221
 O   -3.7352105081   -2.1227330325    0.0263883879
 C   -2.6838005219   -4.2152336033    0.0049965396
 C   -2.6856148617   -5.4187339958   -0.0015080383
 H    0.7205357601    1.8720472476    0.0047764161
 H    0.5773047855   -0.2834110191   -0.8885652748
 H    0.5937616470   -0.2926023205    0.8787971566
 H   -1.9318904380   -0.2296172132    0.8862431001
 H   -1.9479972493   -0.2205929364   -0.8483684604
 H   -2.6846248573   -6.4820695386   -0.0072383563