21

 C    1.1380281326   -0.5590392714   -0.8917107196
 C    0.1253065663    0.0498583660    0.0897825813
 C    0.2416926172    1.5798002969    0.1143765642
 C   -1.3075404072   -0.3918538437   -0.2472540390
 C   -1.5472528285   -1.9037728576   -0.2135159185
 O   -1.2129116635   -2.4712314382    1.0353532774
 O   -2.1992581159    0.1707449660    0.7488220353
 C   -3.2551992360    0.9015331977    0.3445462345
 O   -4.0631288955    1.3449721099    1.1036200467
 H    2.1405551068   -0.1753573240   -0.6810242556
 H    1.1819077910   -1.6483868851   -0.8166634162
 H    0.8982839654   -0.2957697228   -1.9292928242
 H    0.3439401691   -0.3375692620    1.0911803845
 H    0.0239524379    2.0083134126   -0.8720512929
 H   -0.4428741937    2.0266059234    0.8389854360
 H    1.2585540405    1.8800180633    0.3846133732
 H   -1.5919593298   -0.0059627189   -1.2379330954
 H   -2.6000265552   -2.0937486452   -0.4762505373
 H   -0.9279286317   -2.4011686589   -0.9647580275
 H   -1.7414986117   -2.0144294537    1.7002927531
 H   -3.2813990781    1.0457904658   -0.7531564899