21

 C   -0.0283293948    1.5133028398    0.1932600853
 C    0.0073673947    0.0310572546    0.0341955803
 C   -0.0104568960   -0.7814541644   -1.0323784737
 C   -0.0719446947   -0.5651432983   -2.5035515936
 O   -0.1226199020    0.8177898623   -2.8161037349
 C    0.0526528813   -2.1905438091   -0.4084803842
 C   -0.9751938924   -2.0284082967    0.7609565148
 C    0.0799693752   -0.9647527392    1.2138672336
 C    1.1555281645   -1.9688074639    0.6800417986
 H    0.8603282339    1.8729991897    0.7295932050
 H   -0.0777996486    2.0123316344   -0.7738819750
 H   -0.8941463844    1.8238015500    0.7938644122
 H    0.8060760431   -1.0439580572   -2.9756276221
 H   -0.9546248315   -1.0934936993   -2.9094452663
 H   -0.1606320566    0.9047510543   -3.7726591341
 H    0.0514741694   -3.0543550419   -1.0755485818
 H   -1.9757632262   -1.6698739942    0.5067370022
 H   -1.0281057500   -2.9018333011    1.4197007798
 H    0.1070113408   -0.5579895070    2.2256374424
 H    1.3069111518   -2.8365166173    1.3310243195
 H    2.1123572924   -1.5554885755    0.3514721219