22

 C   -0.0395669877    1.3819357660   -0.0300679997
 O   -0.0054701226   -0.0231103746   -0.0151873545
 C    0.6651840630   -0.5453506075    1.1112374908
 C    0.6461387435   -2.0655221918    1.0317932814
 C    1.3536503495   -2.7305367200    2.2166845343
 C    1.3355236307   -4.2599350652    2.1386731251
 C    2.0381080194   -4.9235401726    3.3151921250
 O    1.9592004738   -6.3301484647    3.1375633433
 H    0.9727341937    1.8175276384   -0.0528091181
 H   -0.5745375927    1.6887037823   -0.9323814340
 H   -0.5645395407    1.7897815887    0.8491820495
 H    1.7054889541   -0.1746237585    1.1437178983
 H    0.1767757520   -0.2023485643    2.0410406413
 H   -0.3970824912   -2.3997160929    0.9802963875
 H    1.1184650212   -2.3721965852    0.0907785137
 H    2.3938348457   -2.3790037365    2.2655690753
 H    0.8801323554   -2.4063656792    3.1540439104
 H    0.3013134535   -4.6234525376    2.1015227208
 H    1.8166666290   -4.5960487518    1.2120436941
 H    3.0869741419   -4.5857440318    3.3604709031
 H    1.5576421858   -4.6133290999    4.2581727694
 H    2.4028285527   -6.7521144814    3.8788772129