19

 C   -0.2793599283    1.4665279227    0.1446933037
 N   -0.1069163590    0.0265454496    0.2962505013
 C    1.1558541290   -0.5520275247   -0.1351528310
 C    0.8106738421   -0.4862036573    1.3280459074
 C    1.5536336247    0.4274776119    2.1597674153
 C    2.1552782769    1.1647184858    2.8957893829
 C    0.3253825049   -1.7279678422    2.0438172575
 C   -1.0047289746   -1.7217873214    2.6963209083
 N   -0.7726297342   -2.5068126048    1.4694380928
 H    0.6451415846    2.0391735387    0.3012884105
 H   -0.6504738399    1.6633524618   -0.8654259393
 H   -1.0271714441    1.8179220980    0.8612919108
 H    1.0924850789   -1.5063914522   -0.6514591249
 H    1.9321589149    0.1234272420   -0.4890075940
 H    2.6945441498    1.8149995243    3.5394726893
 H    1.1267446996   -2.3203692013    2.4790846318
 H   -1.1751906997   -2.3042898445    3.5969226060
 H   -1.5951612682   -0.8128386536    2.6155219338
 H   -1.1467723473   -1.9706947327    0.6854315777