16

 O    0.0194439535    1.5021730152   -0.1256541409
 C    0.0168008764    0.1029380263   -0.0295983797
 C    0.6365131049   -0.5594844329   -1.2860395606
 C   -0.0569019179   -0.1744292949   -2.5109048515
 N   -0.6112164221    0.1126286443   -3.4828702980
 C    0.7894652066   -0.3551383035    1.2296862321
 O    2.0936901959    0.2210407912    1.0972132040
 C    0.1324283208    0.0693162948    2.4627163260
 C   -0.3731008546    0.4033329060    3.5002843541
 H    0.9198927843    1.7859923692    0.0824564749
 H   -1.0269358054   -0.2104947964    0.0643562522
 H    1.6905955723   -0.2725444450   -1.3599762096
 H    0.6029653809   -1.6514637410   -1.1930285836
 H    0.8625506691   -1.4537825116    1.2251555496
 H    2.4870264181    0.2832653398    1.9732674913
 H   -0.8351725327    0.7056266283    4.4081865898