20

 C   -0.0591575476    1.5385303712    0.0869003610
 C    1.4636360229    1.2678076309    0.0606915242
 C    1.1822169764    0.0642748209    1.0347052235
 C    0.0958370885   -0.0127354949   -0.0791172878
 C   -0.9268019480   -0.9131821367   -0.7281792901
 C   -0.8918770531   -0.3904147165   -2.2115345592
 C    0.4534069990    0.4131741081   -2.4332780932
 C    1.2120864947    0.2512171002   -1.1075514759
 H   -0.4796571264    1.8794355486    1.0374006749
 H   -0.4838088611    2.1007642838   -0.7463054416
 H    2.2674797636    1.9998440047    0.1592265950
 H    1.9255813017   -0.7382672198    1.0492937696
 H    0.8540048492    0.3274703812    2.0441738892
 H   -0.6030270831   -1.9591932411   -0.6793276255
 H   -1.9313219569   -0.8565022839   -0.2985017133
 H   -0.9809363741   -1.2210275201   -2.9170961494
 H   -1.7494628631    0.2633230705   -2.3951886817
 H    1.0261137907    0.0035097006   -3.2692162230
 H    0.2364440289    1.4535418022   -2.6882065148
 H    1.9670483778   -0.5410242399   -1.1668305818