12

 O    0.1392978234    1.2643414293   -0.3959127399
 C   -0.0047483633    0.0271696248    0.2695547844
 C   -1.4099477403   -0.4887943966    0.1663763728
 N   -2.0393108924   -1.1563786221    1.1182823207
 N   -3.2390089535   -1.4139545899    0.5384178567
 C   -3.2821876254   -0.8932252550   -0.7018510733
 N   -2.1372532685   -0.3012019260   -0.9767232005
 H   -0.3997126046    1.2068377574   -1.1947746168
 H    0.6853789744   -0.7295665362   -0.1409052778
 H    0.2587073704    0.1702168517    1.3212408897
 H   -3.9471872538   -1.9135559572    1.0508785461
 H   -4.1433394664   -0.9675893202   -1.3486774020