17

 O    0.0488769052    1.3973901459   -0.1875273875
 C   -0.0594800730    0.0247949647   -0.0296821612
 C   -0.4263282134   -0.6875750094    1.2608538450
 C   -1.1519226074    0.0697480541    2.3791011416
 C   -2.5201253917    0.4440841574    1.8211882672
 O   -2.4897238432    1.3720378813    0.7164181526
 C   -2.6272412643   -0.0428542114    0.4382843353
 C   -1.3498957189   -0.7634875310    0.0450506500
 O   -1.5120991607   -1.9627297794   -0.6498054084
 H   -0.7911264976    1.7790048763    0.1109347397
 H    0.7224327628   -0.4848838031   -0.5881960241
 H    0.1778526701   -1.5461900135    1.5329967722
 H   -1.2845186602   -0.5803254030    3.2497861587
 H   -0.6040247577    0.9580611260    2.7137492055
 H   -3.3715791130    0.5762286520    2.4834155011
 H   -3.5578409227   -0.3352486567   -0.0387209643
 H   -1.5000671943   -1.7670839902   -1.5933750334