19

 C    0.0474132084    1.5202420097   -0.0017497289
 C   -0.0044962130   -0.0087045047   -0.0137274794
 O   -1.3560884934   -0.4679374743   -0.0312426166
 C    0.8428773801   -0.6349045942   -1.1177618938
 C    2.2646847780   -0.8576276640   -0.6487586436
 C    1.2978350242   -2.0217943115   -0.7201727330
 C    1.1916952113   -2.0313538451    0.8269172206
 C    2.1571824159   -0.8660214173    0.9022789122
 C    0.6858279212   -0.6493467465    1.1779589997
 H    1.0789967235    1.8776547318    0.0641701534
 H   -0.3917458856    1.9331507970   -0.9184493052
 H   -0.5170453989    1.9141981099    0.8486228313
 H   -1.7852708182   -0.0854994138   -0.8036149865
 H    0.6533279461   -0.4093487177   -2.1618651516
 H    3.1486106163   -0.6514135907   -1.2364071259
 H    1.2951430449   -2.8800835888   -1.3771641038
 H    1.0974979821   -2.8968821991    1.4672597287
 H    2.9513751295   -0.6661003981    1.6081158412
 H    0.3472977376   -0.4409102627    2.1857451613