16

 N   -0.1524498837    1.2820915157   -0.0092720004
 C   -0.0326501384    0.0157062371   -0.0167555317
 C    1.1804360974   -0.9450901996   -0.0242136916
 N    0.6550030444   -2.3237637204   -0.0314086964
 C   -0.6166498077   -2.1737431345   -0.0283635340
 C   -1.7914706179   -3.0435390231   -0.0314034883
 C   -2.8870825899   -2.2687144712   -0.0250559263
 C   -2.5345783269   -0.7938499206   -0.0171711182
 N   -1.0932686328   -0.8650515326   -0.0200454737
 H    0.7641844362    1.7274065110   -0.0082372004
 H    1.8093752494   -0.7690739048   -0.9051744265
 H    1.8120845085   -0.7792978263    0.8568107812
 H   -1.7457003248   -4.1223025820   -0.0377118078
 H   -3.9137384126   -2.6109950285   -0.0253326928
 H   -2.9249335937   -0.2638457760   -0.8966209370
 H   -2.9219260375   -0.2740247141    0.8696538839