19

 C    0.6431525421    1.3416872206   -0.7470306218
 C    0.2703165921    0.0082671505   -0.2967159455
 C   -0.0338801036   -1.0983476167    0.0712078367
 C   -0.4170560155   -2.4163734264    0.5325271286
 C   -0.3200537943   -2.7444352092    2.0563235383
 C   -1.6641145884   -3.5403615938    1.9447993764
 C   -1.9330743786   -2.7854466148    0.5993612250
 C   -1.4936833796   -4.9738523535    1.7964666908
 C   -1.3409228118   -6.1594171324    1.6607185543
 H    1.3755224839    1.2984870777   -1.5609363378
 H   -0.2272998405    1.8962475599   -1.1153282696
 H    1.0870430826    1.9276046306    0.0657000076
 H    0.1154005687   -3.1867745375   -0.0352793689
 H    0.5581803097   -3.2950747219    2.3948967396
 H   -0.4468145067   -1.8452577436    2.6628863528
 H   -2.3867661594   -3.3346338087    2.7390627024
 H   -2.5486592733   -1.8986967309    0.7643950557
 H   -2.3430834082   -3.3688380587   -0.2256707342
 H   -1.2136506293   -7.2075369312    1.5493248598