17

 C   -0.0359591735    1.5432782229   -0.1685648828
 C    1.4898758632    1.5438256760    0.1250415455
 C    1.3380945579    0.1301013738    0.7332583566
 O    1.2188241764    0.2154068110    2.1616065172
 C    0.0260872460   -0.0578596877    2.7466034564
 N   -1.0657987338   -0.4486338965    2.2468378144
 C   -1.1255892164   -0.6912244917    0.8096075181
 C   -0.0273707073   -0.0048393567    0.0098178329
 H   -0.6089125645    2.0400217664    0.6191674218
 H   -0.3652888187    1.9274735586   -1.1359505136
 H    2.0888321698    1.5208775111   -0.7894802164
 H    1.8892633102    2.3049547766    0.7977319700
 H    2.1150935961   -0.6103585027    0.5277260346
 H    0.1120958186    0.1124102650    3.8188159479
 H   -1.0806080426   -1.7780042859    0.6527725634
 H   -2.1135116735   -0.3767294967    0.4512940863
 H    0.1153784021   -0.4964707433   -0.9570821823