19

 C    0.7643731506    1.3715168955   -0.6673680262
 N    0.9470200710   -0.0391924259   -0.9437801759
 C   -0.0683718299   -0.7092678153   -1.2675071613
 O   -0.0541086063   -2.0222577017   -1.5670565329
 C    1.2209018618   -2.7028881354   -1.5364406527
 C    1.5604331881   -3.1736090188   -0.1265445281
 C    1.1825415501   -3.8790220462   -2.5210524546
 N    0.0696737280   -3.9714218458   -3.2907878916
 O    2.1243063413   -4.6456775080   -2.5902982789
 H    1.3908214135    1.9629372947   -1.3442862858
 H   -0.2772524193    1.7141136463   -0.7725580148
 H    1.0986944655    1.5932868215    0.3521885603
 H   -1.0916300346   -0.3234353660   -1.3504342732
 H    1.9869816512   -2.0051446847   -1.8874059516
 H    1.7244242097   -2.3144054157    0.5259714139
 H    0.7487346461   -3.7853266125    0.2787080553
 H    2.4673179550   -3.7794167394   -0.1692373017
 H   -0.7041445733   -3.3470675205   -3.1491274155
 H   -0.0053081285   -4.7420073323   -3.9333018146