23

 C    0.1877135506    1.3546104020    0.1556905382
 C    0.0944698667   -0.1450097091    0.0681715470
 C    0.5653931304   -1.0626389566   -1.1019542771
 C   -0.0375341056   -2.0357273399   -0.0425057898
 C   -0.1369387761   -3.5361744882   -0.1372635956
 C    0.7401007943   -1.1986118362    1.0210720349
 C   -1.2129257513   -1.0083337622    0.0806307250
 C   -2.1535384944   -0.9996089053    1.2691350268
 O   -2.8235384912    0.2594402881    1.2621380070
 H    1.2318180272    1.6875070769    0.1519694847
 H   -0.3204949912    1.8267205562   -0.6921715625
 H   -0.2898889642    1.7205064234    1.0695939639
 H    0.0228738836   -0.9694964288   -2.0484153861
 H    1.6456578837   -1.1313524516   -1.2644683737
 H    0.8553417032   -3.9888928122   -0.2420842335
 H   -0.6041576158   -3.9637878054    0.7571134603
 H   -0.7354253576   -3.8380864827   -1.0041439557
 H    1.8317198008   -1.2727558328    0.9824144652
 H    0.3936172316   -1.2346500696    2.0560349189
 H   -1.8098540168   -0.9038023510   -0.8341382267
 H   -2.8741421979   -1.8278198891    1.1660814852
 H   -1.6222502157   -1.1519527112    2.2187949189
 H   -3.4590036045    0.2644753355    1.9839924147