19

 O   -0.1151361858    1.4386277638   -0.2603106956
 C   -0.0038864221    0.0176821443   -0.2965108090
 C   -1.3816171905   -0.5265750699    0.0711494761
 O   -1.7648389829   -0.0425912612    1.3281341022
 C   -2.4190576653   -0.4183101331   -1.0975970321
 C   -2.2119066692   -1.9316360780   -1.4090194424
 C   -1.4698614140   -2.0595620316   -0.0749219894
 C   -0.6373401102   -3.1219962979    0.4941810197
 O   -1.9648037873   -2.8704609983    0.9711438612
 H    0.7676288268    1.8185671606   -0.2676095365
 H    0.3043030941   -0.3354574194   -1.2916476240
 H    0.7295281365   -0.3386984915    0.4408189008
 H   -1.4969203118    0.8859752870    1.3427205277
 H   -3.4129238341   -0.2134679745   -0.6959517425
 H   -2.1905417746    0.2967973624   -1.8899124493
 H   -3.1136532481   -2.5419309134   -1.4862524948
 H   -1.5781760733   -2.1228908855   -2.2796838952
 H   -0.5033955268   -4.0545070417   -0.0536283906
 H    0.1595251486   -2.8759389919    1.1954200837