17

 O   -0.0691294141    1.4263325432    0.0096900487
 C    0.0194112676    0.0110443102    0.0018180505
 C   -1.4101528726   -0.5371617442    0.0129163042
 C   -1.4163661164   -2.0418264228    0.0047982489
 N   -1.4100778408   -2.6480016361   -1.1910248121
 C   -1.3938983919   -3.9812257396   -1.1850976234
 C   -1.3814920480   -4.7232001746   -0.0103264848
 C   -1.3801583374   -3.9943388809    1.1726589329
 N   -1.3961947544   -2.6612309243    1.1936318189
 H    0.8241033702    1.7823028181    0.0023444341
 H    0.5423302985   -0.3566155634   -0.8947332789
 H    0.5596323665   -0.3653732176    0.8843938084
 H   -1.9157730117   -0.1748996539    0.9111332617
 H   -1.9329161209   -0.1651279025   -0.8714279037
 H   -1.3924033796   -4.4692991034   -2.1577013928
 H   -1.3732713335   -5.8063456906   -0.0163882157
 H   -1.3673193713   -4.4931823376    2.1396979433