19

 C   -0.0340655261    1.3497355782   -0.3202752850
 C    1.4273304268    1.5325219127    0.1372711537
 C    1.2485578356    0.1295303976    0.7414382535
 O   -0.1037282587    0.0423463264    0.2901365388
 C    2.2439214852   -1.0348388304    0.4649331387
 C    3.0473801307   -0.4651998727    1.6765520144
 C    1.6126339651   -0.2129132196    2.2061544203
 O    1.0819530511   -1.5310637214    2.3789127785
 C    1.4784731561   -2.1776284902    1.1424246878
 H   -0.7621035421    2.0415828988    0.1178016350
 H   -0.1923058263    1.3020657183   -1.4037455594
 H    2.1661039923    1.6090230514   -0.6628553824
 H    1.5938507020    2.3355499202    0.8580618055
 H    2.6804763238   -1.2163852814   -0.5166412100
 H    3.6564485416   -1.1629153947    2.2536134068
 H    3.6054813831    0.4418185131    1.4396258567
 H    1.3629036538    0.4090127077    3.0644950726
 H    0.5887395628   -2.4827735069    0.5821582428
 H    2.0983721032   -3.0544209370    1.3602546319