25

 C    0.0047282274    1.5278991386   -0.0184936475
 C    0.0014378017   -0.0110053611    0.0623676843
 C    0.7022106753   -0.4495483487    1.3621562154
 C   -1.4575383725   -0.5035340207    0.0733799749
 C    0.7451897854   -0.5574141566   -1.1947732520
 O    2.0714611278   -0.0289525392   -1.2898669788
 C    0.7688653842   -2.0837649999   -1.3387384158
 C    1.3848443763   -2.5366484460   -2.6579854300
 O    1.3604008998   -3.9576805338   -2.6778348956
 H    1.0239728816    1.9121440182   -0.0972540418
 H   -0.5526205638    1.8752771084   -0.8959452677
 H   -0.4662821635    1.9631896252    0.8692736854
 H    0.1845065447   -0.0312921193    2.2316609669
 H    0.7106655678   -1.5377959599    1.4797594740
 H    1.7367746273   -0.0904488229    1.4057785485
 H   -1.9544525293   -0.2957904692   -0.8813441692
 H   -1.5334291605   -1.5775303688    0.2663597014
 H   -2.0242439371    0.0105976540    0.8569170336
 H    0.2325951382   -0.1371903029   -2.0710990279
 H    2.6023594308   -0.4525658805   -0.6067112429
 H    1.3402804684   -2.5360105028   -0.5175300289
 H   -0.2440578643   -2.4925035375   -1.2764563835
 H    0.8065742670   -2.1165718162   -3.4977215012
 H    2.4088081866   -2.1478942393   -2.7423044555
 H    1.7902499305   -4.2521077791   -3.4858980860