15

 O   -0.0631502381   -0.0078755684   -0.5006866629
 C   -0.0723964903    1.1594045345   -0.2128309746
 C   -1.1304962970    2.2510295785    0.0722230915
 C    0.0794532931    3.1936890904    0.3356933189
 N    0.9470300867    2.0608171882   -0.0023020614
 C    2.3797426931    1.8723749930    0.0501360366
 C    2.9476692445    2.1566429867    1.3684546942
 C    3.4007785285    2.4170413589    2.4501320646
 H   -1.7538864831    2.5095217930   -0.7851486700
 H   -1.7618508511    2.0432884647    0.9376045942
 H    0.1750795576    4.0455547426   -0.3457949440
 H    0.1885376243    3.5367228188    1.3691927356
 H    2.5565264799    0.8268153659   -0.2279755299
 H    2.8783313721    2.4957724262   -0.7053797005
 H    3.8096593800    2.6308719870    3.4067623678