21

 C   -0.2241853362    1.5721681597   -0.1264605813
 C   -0.0337379155    0.0530231292   -0.0494700945
 C    0.7954418240   -0.5054772569   -1.1959781530
 O    0.1366605742   -0.2642078635   -2.4812926009
 C    0.2712561466   -1.6521748196   -2.8484170672
 C    0.8393001745   -2.0388871388   -1.4665455867
 C    2.3102090358   -2.4835502770   -1.4052667826
 C    3.0580715762   -1.1694869260   -1.3411439597
 C    2.2539168818   -0.1129265629   -1.2218545194
 H    0.7260051461    2.1058376689   -0.0224044432
 H   -0.6655472146    1.8513597264   -1.0871995318
 H   -0.8877780579    1.9222844059    0.6697318381
 H    0.4451253921   -0.2262765690    0.8979654184
 H   -1.0140974500   -0.4376947480   -0.0702093722
 H   -0.6949826960   -2.0931065005   -3.1197345161
 H    0.9729033247   -1.7920259392   -3.6822342082
 H    0.1666408843   -2.6478845371   -0.8612236854
 H    2.5187721590   -3.1064318313   -0.5253527123
 H    2.6013666808   -3.0832198628   -2.2776537036
 H    4.1414849163   -1.1213496402   -1.3862332636
 H    2.5811186937    0.9187199427   -1.1637114947