19

 C    0.1834144940    1.2721181059   -0.2526712970
 O    0.0307762017   -0.0099551730    0.3191301768
 C   -1.2655607781   -0.5185884488    0.2027856205
 C   -1.7149669544   -1.1054161349   -1.1682310445
 C   -2.2952088113   -2.3401383601   -0.4044123792
 N   -1.9512500480   -3.6374511474   -0.9746693839
 C   -1.4398149754   -1.9127531401    0.8321835151
 C   -3.7379099624   -2.1923332267   -0.1483886605
 N   -4.8776704786   -2.1164355759    0.0370114061
 H    1.2168076741    1.5815599988   -0.0819795486
 H   -0.0094076071    1.2650410959   -1.3357507670
 H   -0.4913354834    2.0062915816    0.2138917652
 H   -2.0020429616    0.2038477013    0.5855197595
 H   -2.4005248704   -0.5307420582   -1.7921355597
 H   -0.8488976884   -1.4330965663   -1.7478368270
 H   -2.2462130964   -4.3808598043   -0.3455847137
 H   -2.4638985053   -3.7809023964   -1.8417665602
 H   -0.4938163900   -2.4573896767    0.8068719495
 H   -1.8957312088   -1.9841591448    1.8199283187