19

 O   -0.0170307311    1.3199102213    0.1397471527
 N    0.0498364057   -0.0833543953    0.1096481667
 C   -1.1015637691   -0.6293204475    0.0005166489
 C   -2.4414095742    0.0561712119   -0.0513095963
 C   -3.3777606930   -0.5739464445    0.9995272688
 C   -3.6277746346   -2.0719347950    0.7507502131
 C   -2.3685865301   -2.8374821694    0.3571955123
 N   -1.9746369991   -2.7293267235   -1.0545790941
 C   -1.1136691960   -2.1124304868   -0.0167661953
 H    0.9102100223    1.5596279703    0.2364016217
 H   -2.3197096415    1.1250349195    0.1220671093
 H   -2.8664845931   -0.0806891901   -1.0530734156
 H   -2.9269980333   -0.4383848539    1.9904449428
 H   -4.3318784000   -0.0370789375    1.0144375393
 H   -4.0603868251   -2.5221485596    1.6506722417
 H   -4.3628188581   -2.1985804708   -0.0522864632
 H   -2.2345245191   -3.8066850685    0.8326379000
 H   -1.5464307036   -3.5933554753   -1.3760543293
 H   -0.1555171569   -2.5748609854    0.1996719965