23

 C   -0.2645278186    1.5212681296    0.0028994591
 C    0.1022937832    0.0266747650    0.0373186004
 C    0.8077121841   -0.4608361722   -1.2011379094
 C    2.0744043976   -0.8881143207   -1.2148157331
 C    2.6799476418   -1.3633206417   -2.5183592223
 C    2.3169808592   -0.3337252478   -3.6325004152
 C    0.9223858979   -1.0255635881   -3.6586904899
 C    1.6591903021   -2.3209254019   -3.2083401672
 C    0.0441089161   -0.4866966462   -2.5156981005
 H    0.6308665482    2.1386724975   -0.1217933001
 H   -0.9468687384    1.7521550246   -0.8210577596
 H   -0.7572546407    1.8213416634    0.9330752434
 H    0.7365026690   -0.1677325984    0.9098184053
 H   -0.8186239246   -0.5558524586    0.1862051478
 H    2.6735207017   -0.9075193424   -0.3080782389
 H    3.7175812923   -1.6844773400   -2.4146105569
 H    2.3665631091    0.7274845592   -3.3743553306
 H    2.8703856696   -0.5182910301   -4.5576397601
 H    0.3742608427   -1.0460654078   -4.6040758828
 H    2.1004474276   -2.8446703887   -4.0610714669
 H    1.1234247017   -3.0305629788   -2.5722860010
 H   -0.8585047174   -1.1065606559   -2.4065932257
 H   -0.3174228340    0.5198505399   -2.7684775759