18

 N   -0.4505559064    1.0739886963    0.1677198649
 C   -0.6351854171   -0.1392387572    0.4575570180
 O   -0.4970064989   -1.0817307067   -0.5023968331
 C   -0.8021977829   -2.4220198818   -0.1466662346
 C   -2.2885564212   -2.7334257394   -0.2820889969
 C   -2.6133878970   -4.2314842931   -0.0677460817
 O   -3.7664713041   -4.2160463966    0.7569386250
 C   -3.6177641608   -3.0720454038    1.5538006267
 O   -3.0530132238   -2.0705986732    0.7295340824
 H   -0.5710772413    1.6491236574    0.9987751858
 H   -0.8992317421   -0.5501181647    1.4388569191
 H   -0.2283309170   -3.0507068748   -0.8356554307
 H   -0.4680614848   -2.6428539880    0.8765948166
 H   -2.6393738148   -2.3723199064   -1.2549922605
 H   -2.8528862642   -4.7614366621   -0.9910935190
 H   -1.7783596501   -4.7483587703    0.4330450440
 H   -4.6013354104   -2.7450959152    1.9019171175
 H   -2.9575155431   -3.2777335204    2.4169618563