20

 C   -1.3365214864    0.5717012554    0.3124165199
 O   -0.6621190517   -0.6679789597    0.4040428287
 C    0.6879128349   -0.5695585213    0.8277320892
 C    0.7931564481   -0.1033333945    2.2173871571
 C    0.8696072094    0.2803918090    3.3541712088
 C    1.3563319582   -1.9397988883    0.6427931792
 C    2.8540259742   -1.9288208538    0.8511201439
 C    0.5532312457   -3.1491565570    0.9394853848
 N    0.8737856754   -2.7811221105   -0.4581035953
 H   -0.8333067265    1.2497140074   -0.3932387380
 H   -2.3423102045    0.3570120697   -0.0545535751
 H   -1.4047744739    1.0672254279    1.2891699450
 H    1.2152009612    0.1539332073    0.1799941714
 H    0.9418236179    0.6158099909    4.3595497302
 H    3.1100959063   -1.6394979449    1.8748311075
 H    3.2612059141   -2.9226262499    0.6529896144
 H    3.3399723834   -1.2249956969    0.1650473512
 H    1.0479393322   -4.0451041080    1.3045960270
 H   -0.4677847647   -3.0100466368    1.2799997191
 H    0.0487378867   -2.3416254260   -0.8614104488