20

 C    0.4185996119    1.4605226771    0.0961608691
 N    0.2667060514    0.0046212112    0.0624673127
 C   -0.9646349016   -0.7384231430    0.5485067616
 C   -0.0614471375   -2.0160227125    0.4076933550
 O    0.3417846671   -2.3995769362   -0.8579968822
 C    0.7785731890   -0.9124609191    1.1552020946
 C   -0.4766882075   -0.6446787806    2.0417862760
 C   -0.6669357480    0.6291979904    2.8533414468
 O   -0.7670162539   -1.7501292804    2.8845938835
 H    1.0044505285    1.8229470102    0.9481979922
 H    0.9386692902    1.7811564621   -0.8140994873
 H   -0.5529146106    1.9667038240    0.1101569368
 H   -1.9513897280   -0.5436818040    0.1208006727
 H   -0.3492456423   -2.8888008314    0.9822314994
 H    0.5750395616   -1.5580663559   -1.2851218421
 H    1.8314218372   -0.9305114148    1.4446357449
 H   -1.6950536187    0.6567258674    3.2391329728
 H    0.0062097791    0.6190581973    3.7165120803
 H   -0.5124250754    1.5516430477    2.3015660149
 H   -1.5774622725   -1.5562006692    3.3664175982