23

 C   -0.1138097921    1.5184261943   -0.1326572503
 C   -0.0706764760   -0.0036126834    0.0384340956
 C    0.7281012230   -0.4926332554    1.2606273035
 C    0.1319227650    0.0158413125    2.5934253041
 C    0.6879490993   -0.6836205781    3.8078072793
 C    1.1609043458   -1.9305746904    3.7671751272
 C    1.1729905816   -2.7372529150    2.5238623793
 C   -0.1383505799   -2.9551490921    1.7759097344
 C    0.8920495325   -2.0055852135    1.2294231168
 H    0.8971634368    1.9388189987   -0.1852112727
 H   -0.6349265023    1.7937993909   -1.0549897843
 H   -0.6339177166    2.0095079377    0.6955937179
 H   -1.0930966185   -0.3992900887    0.1036360710
 H    0.3674356461   -0.4502891518   -0.8636547049
 H    1.7431005726   -0.0735190765    1.1859451984
 H    0.3047925218    1.0940490664    2.6792998851
 H   -0.9632175627   -0.0970392153    2.5677739612
 H    0.6724368104   -0.1391459193    4.7480412504
 H    1.5437418284   -2.3994447655    4.6698132571
 H    1.8836095167   -3.5570157077    2.4940447882
 H   -0.2831380469   -3.9018478948    1.2662426987
 H   -1.0346335649   -2.5547290328    2.2370221707
 H    1.4375755399   -2.3636798202    0.3597045235