8

 O   -0.1240617088    1.2912908950    0.0104350574
 C    0.0630540842   -0.0127108924    0.0025578513
 N    1.1825250787   -0.6418133635   -0.0073673833
 O    0.7718866861   -2.0153478046   -0.0122119622
 C   -0.5766745586   -2.0827100225   -0.0041911860
 O   -1.2593729661   -3.0475398482   -0.0057610650
 O   -1.0457347033   -0.7636994156    0.0051699574
 H    0.7416330777    1.7251946518    0.0075565604