18

 C    0.0573522054    1.5024350401   -0.1412637426
 C   -0.0090124955    0.0095318338   -0.0083468216
 O    0.6440017800   -0.7503288834   -1.0924586910
 C    0.1397437662   -1.7761102490   -0.1948743446
 C    0.5737014022   -0.9559966678    1.0745283333
 C   -0.4785935789   -1.2270052516    2.1278584988
 C   -1.5968728857   -0.2615288226    2.3090061455
 N   -1.7300525760   -1.3497422197    1.3243224528
 C   -1.2069274846   -1.0240333236   -0.0051802634
 H    1.0976592415    1.8063492693   -0.2967590748
 H   -0.5279742136    1.8346983738   -1.0042593761
 H   -0.3167222850    2.0140597310    0.7483986757
 H    0.3231199498   -2.8209628216   -0.4432810243
 H    1.6283944073   -0.8912511424    1.3370317939
 H   -0.2985734955   -1.9956826571    2.8743120430
 H   -2.2434263586   -0.3733329875    3.1748521882
 H   -1.4935588377    0.7591033051    1.9584620804
 H   -1.9406470714   -0.9995410567   -0.8095094934