25

 C    2.9461923370    0.5622118857    0.7081058950
 C    1.8299444565   -0.4808812390    0.5690544784
 C    1.6120116058   -0.8963675429   -0.8744517269
 C    2.3691047700   -2.0246673683   -1.5478365968
 C    3.3884768744   -2.8911988577   -0.8375634057
 C    0.8802451333   -2.1563819432   -1.2974419975
 C    0.3234013954   -3.1484728525   -0.3113772129
 O    0.3228156398   -4.4288104981   -0.9184229198
 C   -0.2502561551   -5.4170280151   -0.0994342634
 H    3.9034606014    0.1636702158    0.3567611120
 H    2.7242161201    1.4569702249    0.1159465555
 H    3.0715925078    0.8744323930    1.7497075420
 H    2.0672130469   -1.3454177990    1.1966230726
 H    0.8948948206   -0.0667497109    0.9692894394
 H    1.4172946549   -0.0392821951   -1.5170235414
 H    2.6302183133   -1.8387506182   -2.5868447034
 H    3.1665182910   -3.0255583105    0.2238873542
 H    3.4233745491   -3.8879119429   -1.2890415638
 H    4.3901993948   -2.4527846458   -0.9073756379
 H    0.2487897366   -2.0595220711   -2.1768255435
 H    0.9067192009   -3.1763218224    0.6215308771
 H   -0.7065825700   -2.8663317951   -0.0301434462
 H    0.2967461439   -5.5330431687    0.8507247133
 H   -1.3023596022   -5.1927924620    0.1413639527
 H   -0.2087465062   -6.3626845010   -0.6459202929