13

 C   -0.0136732926    1.5357233528    0.0627617545
 C    0.0124325095    0.0416473310    0.0019246896
 C    0.0011482560   -0.7979429310   -1.0831930203
 O    0.0369463650   -2.0858974385   -0.6753247718
 N    0.0727051868   -2.1207308575    0.6984886696
 C    0.0582868552   -0.8700799495    1.0936851056
 C   -0.0416178895   -0.5249949242   -2.5229286291
 O   -0.0458375913   -1.3695518107   -3.3853227952
 H    0.8883005546    1.9237458313    0.5481527398
 H   -0.0768525497    1.9839901149   -0.9306140493
 H   -0.8718498923    1.8884729594    0.6444899016
 H    0.0807959237   -0.6520020722    2.1524035899
 H   -0.0703906954    0.5583178741   -2.7637092350