19

 O   -0.4771441475    0.9764947779   -0.3367953079
 C   -0.0146026817   -0.3463053717   -0.1072181319
 C    0.9703276284   -0.7736593309   -1.1997554039
 O    0.3357289148   -0.8126061639   -2.4770763567
 C    0.3615677599    0.3075546824   -3.2263617479
 O   -0.2224241608    0.4038196646   -4.2622237354
 C    0.5827925952   -0.5492673425    1.2771173137
 C    1.3927198357    0.5267239999    1.9634437530
 C    0.0168033722    0.1709407906    2.4693364780
 H    0.2700938796    1.5783936222   -0.2435396308
 H   -0.9105996875   -0.9704458862   -0.2064725148
 H    1.8340043158   -0.0932410838   -1.2175672931
 H    1.3408597867   -1.7852696538   -1.0143487193
 H    0.9984875991    1.1006067928   -2.7903058538
 H    0.9178913260   -1.5690742621    1.4483660231
 H    2.2592185760    0.2222166583    2.5392368380
 H    1.5133319011    1.4926473097    1.4818643744
 H   -0.7768750774    0.8834605179    2.2761470294
 H   -0.0695587757   -0.3685860715    3.4053817560