16

 O   -0.0560339720    1.3332903391   -0.2721254086
 C    0.0053375720   -0.0722909049   -0.0403838580
 C   -1.4417343219   -0.5440021651    0.1099080261
 O   -2.1913059362   -0.1364181794   -1.0219983667
 C   -1.5204494958   -2.0518729165    0.2344164178
 C   -2.7424014396   -2.7802664740   -0.1733794359
 N   -1.5079773724   -2.8821009776   -0.9794240536
 H    0.7927534296    1.6289275567   -0.6120700776
 H    0.4713464995   -0.5949749665   -0.8874863952
 H    0.5770565370   -0.3045487564    0.8698078585
 H   -1.8543363541   -0.0845677789    1.0244027925
 H   -1.8800743872    0.7543499810   -1.2281911125
 H   -0.9255043242   -2.4520920882    1.0538874934
 H   -3.0281322789   -3.6900651225    0.3468586477
 H   -3.5634395559   -2.1943672024   -0.5737986655
 H   -1.6126708101   -2.2530934543   -1.7745142524