16

 O   -0.6148799982    0.7173490561   -0.6338325699
 C    0.1547340329    0.9842484467    0.2509488154
 C    1.3149870758    1.9589986958    0.1126724206
 C    1.3592297266    2.8057400011   -1.1412120172
 C    0.2371509678    3.7895203482   -1.3903767909
 C    1.4967783031    4.2433777712   -0.6945373793
 N    1.4912023686    4.2152550336    0.7411430740
 C    1.2991489749    2.9723770824    1.2859050876
 O    1.1156048672    2.7103876979    2.4529576496
 H    0.0774742810    0.5309720215    1.2607782906
 H    2.2280674014    1.3576436240    0.2311533988
 H    1.9173823772    2.4438076944   -1.9943531624
 H    0.0870413055    4.0985106514   -2.4188956966
 H   -0.6706983635    3.7134776555   -0.8022553928
 H    2.1886674756    4.9348108501   -1.1606139598
 H    1.3151506141    5.0324274802    1.3059084623