13

 O   -0.0640441643    0.0010717986    0.0002899409
 C   -0.0015099302    1.1947551925    0.0083820053
 N    1.2017011951    1.9281220187    0.0001877028
 N    2.4121931891    1.3191670109   -0.0179850811
 C    3.2878817850    2.3069648749   -0.0206165201
 C    2.6668343715    3.5802981633   -0.0041850186
 C    1.3161650702    3.3147120905    0.0091416097
 C    0.2084097625    4.1859873197    0.0281317386
 C   -0.7268296071    4.9445049722    0.0440757904
 H   -0.8668931887    1.8767030540    0.0232161029
 H    4.3449217823    2.0829224781   -0.0342273927
 H    3.1285587589    4.5537172309   -0.0022185529
 H   -1.5516041244    5.6141956256    0.0574354548