20

 C    0.0422888386    1.6339943598   -0.1338156600
 C   -0.2221590556    0.1300266025   -0.2677973267
 C    0.7426582853   -0.5491289349   -1.2391075525
 C    2.2124575332   -0.7248932937   -0.7952381078
 O    2.9953746066   -0.0015838988   -0.2484266058
 C    2.2380515262   -2.2041504540   -1.2156438885
 C    0.7218666602   -2.0834208954   -1.4396029423
 C   -0.3382335656   -3.0220435687   -1.0164977355
 N   -0.0087397794   -2.8386139180   -2.4478092385
 H    1.0678972483    1.8156451629    0.1975327781
 H   -0.0960407375    2.1451033387   -1.0931030069
 H   -0.6413695272    2.0889838336    0.5890785528
 H   -0.1392406540   -0.3516509679    0.7139657479
 H   -1.2520555116   -0.0408367131   -0.6086914388
 H    0.7226860779   -0.0345956208   -2.2119168539
 H    2.8017489929   -2.3713205569   -2.1399228063
 H    2.5900177405   -2.9072821646   -0.4558812524
 H   -0.0726538307   -3.9941901002   -0.6093146695
 H   -1.2718140210   -2.6125831866   -0.6389855654
 H   -0.7108211271   -2.2494262941   -2.8908392280