17

 C   -0.1283570436    1.4956335548   -0.0416026265
 C    0.0860851752    0.0187927167    0.0416685818
 C    0.8217968764   -0.8713439890   -0.8717198635
 C    1.7189795260   -1.7939315494   -0.0606233811
 O    1.3717155248   -1.5500335695    1.3085715245
 C    0.0991318554   -0.9233739967    1.2769092145
 C   -0.9331051058   -1.7765093414    0.5046802883
 N   -0.6678126004   -1.0171625731   -0.7666379789
 H    0.7083361227    2.0368619670    0.4145171403
 H   -0.2115989010    1.8115658654   -1.0856715602
 H   -1.0461983054    1.7975751980    0.4745713431
 H    1.1439812914   -0.5332064729   -1.8502807489
 H    1.5731806053   -2.8533445446   -0.3132646828
 H    2.7780163874   -1.5531140247   -0.2072494272
 H   -0.1370418231   -0.5513058227    2.2734596898
 H   -0.7535948819   -2.8560494988    0.4647869438
 H   -1.9672394034   -1.5907950992    0.8054830329