21

 C    0.2795672878    1.4306196777    0.0349191306
 C   -0.0482880397   -0.0522681918    0.0710915457
 O   -0.2601744237   -0.6292360299    1.1135497019
 C   -0.0686589996   -0.7649344678   -1.2779245963
 C    1.3917181644   -1.0530447990   -1.7790975390
 C    1.2988626497   -2.4564121323   -2.3193810657
 C    0.1353729538   -3.0498149656   -2.0496605112
 C   -0.2741299950   -4.4449238217   -2.4006777626
 C   -0.7794396688   -2.1373734822   -1.2625471900
 H    1.1740233739    1.6213714187   -0.5675304281
 H   -0.5446150109    1.9745235874   -0.4421922721
 H    0.4218984073    1.8084371033    1.0480041000
 H   -0.5459453959   -0.0995727465   -2.0052621271
 H    1.7164939894   -0.3232580446   -2.5297883426
 H    2.1222416010   -0.9957765942   -0.9589547477
 H    2.1286811552   -2.9277753583   -2.8362419542
 H    0.5105045310   -4.9727251587   -2.9495029908
 H   -0.5096877687   -5.0248426227   -1.4990993444
 H   -1.1830906877   -4.4480588088   -3.0159686618
 H   -0.8988307177   -2.4901147944   -0.2302930180
 H   -1.7866324058   -2.0833854985   -1.6937419367