21

 C   -0.2299027545    1.5153047826   -0.1302165825
 C    0.0116600067    0.0272353882    0.0318376891
 C    1.3526766678   -0.6571804363   -0.1877921245
 C    2.6075063421    0.1839754404   -0.0425384046
 O    2.4692944366    0.8970315264    1.1888768549
 C    1.6688027097    0.1198395449    2.0782728338
 C    1.0444652860    1.0297648086    3.1250788382
 C    0.7177069613   -0.6650047956    1.1769219039
 O    0.1962974317   -1.8491099902    1.7029356207
 H    0.6175002447    2.1074320426    0.2174146067
 H   -0.4045010259    1.7571829458   -1.1848044064
 H   -1.1189230106    1.8323046130    0.4268109739
 H   -0.8078059986   -0.5888042097   -0.3344853236
 H    1.3916202869   -1.5594450315   -0.7867883027
 H    3.4947780417   -0.4683240244   -0.0219299923
 H    2.7513105704    0.9302950359   -0.8313130073
 H    2.2909141448   -0.6364926510    2.5886296665
 H    0.3916832656    1.7768574937    2.6672537298
 H    0.4553444842    0.4337160515    3.8303048812
 H    1.8217584122    1.5496724162    3.6919623399
 H   -0.6014604227   -1.6302887713    2.1960686754