14

 O   -0.1629106343    1.3234557154    0.0370274840
 N   -0.0086622622   -0.0706404333   -0.1371142346
 C   -1.1288019602   -0.6572395671   -0.1532012287
 C   -2.6019457038   -0.3347248052    0.1076408077
 O   -3.2718584471   -0.8610910361   -1.0785388382
 C   -2.9098958278   -2.1573136783   -0.5975421297
 C   -2.7025412034   -1.7350088663    0.8155866434
 C   -1.4649206713   -2.1015040803   -0.0972624900
 O   -0.6571336265   -3.1967839125   -0.1002384744
 H    0.7487122706    1.6311359054   -0.0017999156
 H   -2.9496358827    0.6341414190    0.4481063784
 H   -3.3485653582   -3.0431151595   -1.0388611943
 H   -3.0169739831   -2.0805536598    1.7892140541
 H    0.0864378299   -3.0243625015    0.4907164780