19

 C   -0.1517881145    1.4141649065   -0.5119066890
 C   -0.0248326339    0.0490005136    0.1402232817
 O    0.9572205954   -0.2725416280    0.7698763637
 C   -1.2054575804   -0.8955460455   -0.0427740709
 C   -0.9965653186   -2.2534668597    0.6467429711
 C   -2.1368542475   -3.1422393126    0.4600713916
 C   -3.0958772266   -3.8485334875    0.2853224406
 C   -4.2398454247   -4.7304555228    0.0939639839
 O   -5.2276140859   -4.0703013200   -0.6915022318
 H    0.7452839388    2.0027564805   -0.3168506265
 H   -0.2965316043    1.3087422839   -1.5929385158
 H   -1.0309568514    1.9416252023   -0.1252066373
 H   -2.1109898639   -0.4054508706    0.3370772104
 H   -1.3844388864   -1.0319713066   -1.1169326378
 H   -0.0821704154   -2.7154346836    0.2578896017
 H   -0.8095616511   -2.0880810105    1.7137091326
 H   -3.9024654456   -5.6600150603   -0.3933828884
 H   -4.6438319926   -5.0178114171    1.0786651651
 H   -5.9640103515   -4.6815409922   -0.7957842149