17

 C    0.0510788027    1.4768991983   -0.0938518116
 C   -0.0044580139   -0.0202718808    0.0431463364
 C   -1.3391525439   -0.7359439687    0.4321266561
 C   -0.5089108091   -1.6662331983    1.3116279839
 C    0.7736899800   -2.1153915395    0.5908123549
 C    0.6940586199   -0.7594670671    1.2283672566
 C    0.8704055568   -1.9218761889   -0.8906940039
 O    1.2421270667   -2.6853895475   -1.7341141576
 O    0.4901258034   -0.6357588842   -1.1673148062
 H    1.0767363019    1.8051116763   -0.2869476519
 H   -0.5784464506    1.8103521961   -0.9240204241
 H   -0.3021231479    1.9550178244    0.8241727071
 H   -1.9738903091   -0.0857981457    1.0400902771
 H   -1.9179741954   -1.1562712194   -0.3955836575
 H   -0.8597146563   -2.2480659637    2.1545168089
 H    1.3321538091   -2.9262247144    1.0376564990
 H    1.3652079158   -0.3621926968    1.9778742528