21

 C    0.1959651471    1.5523850045   -0.1507382506
 C   -0.0139692544    0.0359503772    0.0110658338
 C   -1.4988847860   -0.3175870518    0.0834452080
 C    0.7326492746   -0.7131680507   -1.1127608276
 O    2.1038907338   -0.6923351149   -0.7336475497
 C    2.1581882647   -0.8968388662    0.6716375965
 C    0.7912459525   -0.4759274849    1.2195176382
 C    0.5489198901   -0.0989082797    2.6123195245
 O    0.1658206155   -1.3907495603    2.1258994939
 H    1.2576894875    1.7927243532   -0.2579816448
 H   -0.3231838234    1.9169891066   -1.0436647910
 H   -0.1950936315    2.1015786974    0.7114972418
 H   -2.0075400961   -0.0131235943   -0.8377019295
 H   -1.6465515070   -1.3902637998    0.2260857627
 H   -1.9900374494    0.1978250114    0.9152034101
 H    0.3628445196   -1.7484781931   -1.1967009611
 H    0.6509327048   -0.2320840754   -2.0913250181
 H    2.3262265760   -1.9549424990    0.9216309983
 H    2.9904324695   -0.3068191576    1.0682346338
 H    1.3739116163   -0.0933031558    3.3245698034
 H   -0.2758896040    0.5678897933    2.8630493274