17

 O    0.0275834356    1.3707934167   -0.1145813122
 C   -0.0044335515   -0.0188750897   -0.0631904855
 C    1.1513695842   -0.6228450830    0.6776412850
 C    2.4537261500    0.0489523866    0.7326060754
 O    1.5451737157    0.1141739154    1.8446851856
 C   -1.3167397035   -0.7817665579    0.0684232842
 C   -2.3729812570   -0.0587314736   -0.7614696587
 O   -1.5238449938   -0.0705909641   -1.9420895510
 C   -0.5222451549   -0.7884161245   -1.2369614577
 H    0.1798536514    1.6623052786    0.7949988208
 H    1.1143186048   -1.7034027291    0.8170471832
 H    3.3541381970   -0.5366388790    0.9078045517
 H    2.5868267795    0.9826279545    0.1924963551
 H   -1.4948990215   -1.5495438361    0.8105229629
 H   -3.2763898594   -0.6508566595   -0.9388618362
 H   -2.6339742283    0.9579155344   -0.4518925242
 H    0.0280001917   -1.5518982896   -1.7783763384