17

 C   -0.0116425063    1.5158528786   -0.0064245621
 C   -0.1155044025   -0.0042269831    0.0001651921
 O    0.7157908733   -0.6086202907    0.9808989232
 C   -1.5702481959   -0.5221769068    0.1729088667
 N   -1.5893576502   -1.9694853209    0.1123837667
 C   -2.3834027573   -2.6454918486   -0.7663768364
 O   -3.1778756632   -2.1258776319   -1.5185455607
 C   -2.1169573294   -0.0423074346    1.4565174132
 N   -2.4776014624    0.3464399135    2.4835029418
 H    1.0326161034    1.8109621095   -0.1349103422
 H   -0.5969823033    1.9459200246   -0.8250820182
 H   -0.3805413985    1.9421778488    0.9328856680
 H    0.2320699538   -0.4087393518   -0.9561891986
 H    0.5603060709   -0.1602715698    1.8216830745
 H   -2.2081864942   -0.1659830269   -0.6421697384
 H   -0.8904634915   -2.4541971661    0.6554963420
 H   -2.2174907865   -3.7375532639   -0.7123871115