16

 C   -0.0433800103   -1.1721252701   -0.0993372367
 C    0.0244427880    0.0236736651   -0.0012912791
 C    0.0686028085    1.4479814417    0.1495479838
 O    0.3128747285    2.2363997489   -1.0374331528
 C    1.2841913704    2.2859681749    0.0083069167
 C    1.1404470625    3.4752472396    0.9436215957
 N   -0.1686590724    3.3711254663    1.6269810981
 C   -1.3648720143    3.4730548278    0.7804401535
 C   -0.8335242810    2.1377718378    1.1577087920
 H   -0.0946650176   -2.2285344520   -0.1966564154
 H    2.2616857230    1.8757198746   -0.2375504403
 H    1.9281364301    3.4359165328    1.7046904993
 H    1.2298967933    4.4296893042    0.4145652413
 H   -2.2383242167    3.8676185642    1.2925296453
 H   -1.2518653926    3.7707025716   -0.2567012484
 H   -1.3145298292    1.5072410327    1.8983694570