15

 C   -0.0022679195    1.4806576893   -0.0197858896
 C    0.0024026555   -0.0354678166   -0.0002606132
 O    0.6770360731   -0.4823038389   -1.1856977906
 C    0.7799311851   -1.8059447210   -1.3427679207
 N    0.3057161121   -2.7092265151   -0.4874389001
 N    0.6475803930   -3.8635224354   -1.0707900712
 N    1.2965073108   -3.7790945723   -2.2191084232
 C    1.3984863718   -2.4672307251   -2.4242866978
 H    1.0187579455    1.8720854817   -0.0309819130
 H   -0.5250854982    1.8560576218   -0.9038526818
 H   -0.5098417083    1.8623795037    0.8709399746
 H    0.5236015705   -0.4295233380    0.8803589005
 H   -1.0145667936   -0.4454291267    0.0109984854
 H    0.4202673218   -4.7495753503   -0.6526284027
 H    1.8861490205   -2.0610560269   -3.2942263065