12

 O   -0.0969996416   -0.0339960292   -0.0003713269
 C   -0.0033593598    1.1723114799    0.0078032677
 C    1.2413533821    1.8931890548   -0.0004041744
 C    2.2717004601    2.5273905916   -0.0070536322
 C    3.4585558516    3.2849538143   -0.0143073948
 N    4.6849424499    2.7267517633   -0.0311785424
 N    5.4839543946    3.7722727169   -0.0323735782
 N    4.9160718145    4.9752702262   -0.0179805483
 C    3.6191286379    4.6907144743   -0.0061745422
 H   -0.8997882311    1.8249218962    0.0227955523
 H    6.4868039854    3.6649808811   -0.0437521411
 H    2.8702066663    5.4653650209    0.0071675705