16

 C   -0.0099294508    1.5699264513    0.0826713997
 C    1.5288958952    1.5372268790   -0.0053983978
 O    2.1409264334    1.2893320584    1.2823515713
 C    2.1172308792   -0.1473420095    1.0814404829
 C    1.0628243341   -0.8458195282    1.9289840051
 O   -0.1969506979   -0.6384038743    1.2876934474
 C   -0.0246322736    0.0061006412    0.0359279387
 C    1.4916101311    0.0159026765   -0.3141667430
 H   -0.4402404357    2.0382542797    0.9700451930
 H   -0.4580963957    1.9985226517   -0.8197700878
 H    2.0624273244    2.3009804411   -0.5740568976
 H    3.1173595653   -0.5809168459    1.1771724574
 H    1.2680611454   -1.9241385546    1.9957839174
 H    1.0348147531   -0.4305225950    2.9428790931
 H   -0.7213985890   -0.4381251476   -0.6780695942
 H    1.8859674816   -0.4926931138   -1.1896662157