17

 O   -0.0158172348    1.3642990989    0.1003746742
 C    0.0427605033   -0.0401901428   -0.1414351627
 C   -1.3515754068   -0.6240365811   -0.0285671357
 O   -2.2600363962    0.0796093918   -0.8139295634
 C   -1.7035241413   -2.0439678577    0.1392867812
 C   -0.6669020068   -2.8117012167    0.9729129166
 C   -0.9716898936   -1.8324258956    2.1422393421
 O   -0.6315771072   -1.8065268560    3.2928502392
 C   -1.9629162382   -1.0639631390    1.3362564894
 H   -0.1663774259    1.4910504209    1.0443652800
 H    0.4004533769   -0.1475668981   -1.1706821631
 H    0.7545236717   -0.5345990575    0.5280074690
 H   -1.9898627949    1.0068267712   -0.7447151118
 H   -2.4635854770   -2.4969300150   -0.4837181474
 H   -1.0118971381   -3.8144040939    1.2423988841
 H    0.3586252602   -2.8801440238    0.6005736100
 H   -2.8761456715   -0.5848095856    1.6647168283