13

 N   -0.1147655072    1.3079397819   -0.6466871114
 C   -0.0469537978    0.1511559028   -0.1079892918
 C   -1.2640905832   -0.6610177732   -0.0343782692
 C   -1.5544695442   -1.6846718372    0.7675106038
 O   -0.8352218844   -2.2573112075    1.7767677993
 C    0.4711458537   -2.0265588289    2.0926709241
 O    0.9085694717   -2.5121314461    3.0966338151
 C    1.3960144254   -1.2454310125    1.1902237475
 N    1.2069937201   -0.3421038343    0.3210805453
 H    0.8219021298    1.7190090498   -0.6667045446
 H   -2.0522115071   -0.3449326099   -0.7080618129
 H   -2.5186814992   -2.1757007318    0.7145556478
 H    2.4279529723   -1.5080930231    1.4293233769