19

 C   -0.0228983992    1.3813255028    0.0228732223
 O    0.0009418495   -0.0241599030    0.0059620523
 C    0.6487333032   -0.5494153320   -1.1323724162
 C    0.6197988991   -2.0694888332   -1.0523057334
 C    1.3026028404   -2.7332194437   -2.2507127841
 C    1.2756891312   -4.2537371091   -2.1742078943
 O    1.9298249999   -4.7617151189   -3.3274620380
 H    0.9927028272    1.8094980105    0.0289046386
 H   -0.5597316370    1.7937225136   -0.8469312730
 H   -0.5403425384    1.6907515379    0.9344470620
 H    0.1468984056   -0.2035836195   -2.0535187672
 H    1.6909180878   -0.1870800294   -1.1824536813
 H    1.1055480752   -2.3767680019   -0.1180208605
 H   -0.4259199481   -2.3930940085   -0.9815860392
 H    0.8170895129   -2.4261684796   -3.1853390402
 H    2.3484349843   -2.4097177953   -2.3220570725
 H    1.7773231260   -4.5876963358   -1.2509528063
 H    0.2316269131   -4.6040409735   -2.1205903556
 H    1.9194971172   -5.7219635514   -3.2801572134