19

 C   -0.1060375593    1.5516844153    0.0469855589
 C    0.0349955328    0.0200910707    0.0332253649
 C    0.8220559989   -0.5167794594   -1.1815980194
 C    1.9658928319   -1.3647177579   -0.6008768540
 O    2.7886783196   -1.9751833152   -1.2444849493
 C    1.8556375642   -1.2839127063    0.8684818994
 C    0.8050124693   -0.5312869928    1.2250953220
 C    0.3640808846   -0.2425751484    2.6222759122
 O    1.1710417476   -0.9508719264    3.5399249968
 H    0.8779614785    2.0328291924    0.0631834060
 H   -0.6335751241    1.8931307571   -0.8487718422
 H   -0.6704152867    1.9034906244    0.9164453274
 H   -0.9775085421   -0.4072933419    0.0490437291
 H    0.2145337041   -1.1294190494   -1.8535857685
 H    1.2483551785    0.2892688445   -1.7879905770
 H    2.5364147283   -1.7843815529    1.5425666953
 H    0.4148469439    0.8462271242    2.7950998127
 H   -0.7023798881   -0.5165386450    2.7179576858
 H    0.9069844182   -0.7016267130    4.4300234899