16

 O   -0.0412332171    1.5392991551   -0.0174620467
 C    0.0663518087    0.1461154425    0.1627534970
 C   -1.3070314757   -0.5086425769   -0.0032445693
 N   -1.8287536767   -0.2273424823   -1.3522170447
 C   -2.3247349022   -1.3145111743   -1.7911928272
 N   -2.3035749828   -2.4135708556   -0.9417768041
 C   -1.3774939508   -2.0746803760    0.1504264542
 C   -0.0867662136   -2.7674005394   -0.0014252825
 N    0.9059566994   -3.3464433095   -0.1263658631
 H   -0.5109932628    1.6634675865   -0.8522367745
 H    0.7734376089   -0.3082080064   -0.5479353337
 H    0.4544393980   -0.0215758647    1.1731215796
 H   -1.9883103753   -0.0575604854    0.7283442416
 H   -2.7981645555   -1.4159777778   -2.7632265604
 H   -2.2536282436   -3.3405046481   -1.3409872100
 H   -1.7942011188   -2.3557644477    1.1209773439