17

 C    0.0161192994    1.4772466165    0.0501513440
 C    0.0110783710   -0.0118958850   -0.0326258453
 N   -0.0589357978   -0.7267385482   -1.1218459271
 C   -0.0326359819   -2.0511296465   -0.7117376552
 C   -0.0919710483   -3.1763537933   -1.6396929386
 O   -0.1688103734   -3.0985706074   -2.8444690584
 C    0.0560808413   -2.1285468731    0.6687778654
 C    0.1179715315   -3.2671921738    1.6305357575
 N    0.0829204876   -0.8214726571    1.0832899569
 H    0.9308067091    1.8553245603    0.5210103615
 H   -0.0451425257    1.8797057788   -0.9612687009
 H   -0.8351886385    1.8553802791    0.6277728755
 H   -0.0601784630   -4.1715158622   -1.1376325503
 H    1.0424911220   -3.2470961032    2.2199735325
 H   -0.7222307382   -3.2457319013    2.3349327554
 H    0.0828199148   -4.2206789782    1.1022746791
 H    0.1436671402   -0.5116689854    2.0402512977