16

 N    0.1286746793    1.3993781166   -0.0512771707
 C   -0.0624753581    0.0257351955   -0.0238002596
 C   -1.1687447660   -0.7705535953    0.0100351359
 C   -0.6769732373   -2.1221251211   -0.0912036942
 C    0.6743729531   -2.0361828397   -0.1668716322
 O    1.0633930000   -0.7166465564   -0.1287239999
 C   -1.4762397323   -3.3635207215   -0.1029904642
 C   -1.5215882023   -4.2589052037   -1.2753903255
 O   -0.7455132443   -4.5924661283   -0.1256700711
 H    1.0095013272    1.6773691346    0.3627993950
 H   -0.6389811152    1.9101151537    0.3619809298
 H   -2.1952460891   -0.4494838081    0.0866084698
 H    1.4634723222   -2.7641774745   -0.2188281928
 H   -2.3429740198   -3.3724822640    0.5598723020
 H   -2.3964193722   -4.8855254595   -1.4470701217
 H   -0.9507290252   -3.9871908582   -2.1614135205