17

 C   -0.2024782995    1.3286456770    0.0170174714
 C    0.0934070645   -0.1520767215    0.0923722256
 C    1.4963416671   -0.6113121382   -0.2266520272
 C    0.9962076357   -0.6567533725    1.2208441286
 C    1.0724269902   -2.1645516837    1.0942913468
 C    0.5403542645   -3.4300139129    1.2159066334
 C    0.7949651816   -4.0033748578   -0.0672652876
 N    1.3567103374   -3.1570281113   -0.9373427862
 N    1.5930349040   -2.0757474834   -0.1616368841
 H    0.6629017505    1.9257899003    0.3238682412
 H   -0.4676659134    1.6214088772   -1.0039655055
 H   -1.0390068705    1.5925768059    0.6717934614
 H   -0.7184259224   -0.8065821464   -0.2143805981
 H    2.2660512388   -0.0041265902   -0.6844139380
 H    1.3056319747   -0.0343416789    2.0486978019
 H    0.0630967369   -3.8999506416    2.0596530358
 H    0.6003372600   -5.0224050821   -0.3738356893