16

 C   -0.0698554549    1.4297960062    0.0257315112
 N   -0.0056184355   -0.0170987195    0.0035502956
 C    0.0145116837   -0.8045964294   -1.1203626663
 N   -0.0873257575   -0.2334135252   -2.3945773909
 C    0.0418782308   -2.1073205420   -0.6675941756
 N    0.0408905832   -2.1410205768    0.6974980681
 C    0.0242820672   -0.8780944226    1.0888436521
 C    0.0362621145   -0.4066304649    2.4190102179
 C    0.0411027306    0.0217542674    3.5456027717
 H    0.9114468814    1.8803591713   -0.1634842000
 H   -0.7694862451    1.7727161861   -0.7406162381
 H   -0.4133208926    1.7500237349    1.0098186981
 H    0.7092772190    0.3462250131   -2.6407347532
 H   -0.1950112270   -0.9476057887   -3.1035136395
 H    0.0560019869   -3.0102910693   -1.2597283106
 H    0.0484925653    0.3792539594    4.5452655295