10

 C   -0.0124700737    1.4233355053   -0.0659022493
 C    1.4970006666    1.7592627927    0.0625052858
 N    2.1373234325    0.4803077335    0.4259543641
 C    1.1993059856   -0.3673823254    0.4850232722
 O   -0.0783805865    0.0062769814    0.2332696776
 H   -0.6438209952    1.9517757918    0.6533935209
 H   -0.4137093707    1.5769741375   -1.0712080189
 H    1.9256608534    2.1347816661   -0.8720894924
 H    1.6975885142    2.5063024524    0.8370542700
 H    1.3148879739   -1.4177357254    0.7287326101