23

 C    0.1465482646    1.5458757945   -0.2117955980
 C    0.0845968275    0.0256601185   -0.0495026266
 C    0.6729617497   -0.4708514876    1.2724817560
 C    0.4949517600   -1.9805896280    1.4520068111
 O    2.0522637549   -0.1017377912    1.2708397650
 C    2.6733082955   -0.0733877838    2.5343395645
 C    4.0758763714    0.5102766044    2.3520169982
 C    4.9159324761    0.3775780244    3.6005916444
 O    5.4746869884    1.2865593887    4.1575391401
 H    1.1783906232    1.8979038799   -0.1393403024
 H   -0.2547549929    1.8553145041   -1.1814329107
 H   -0.4371611094    2.0510888632    0.5661852335
 H   -0.9540958142   -0.3198447923   -0.1135045689
 H    0.6292243870   -0.4619782672   -0.8676859026
 H    0.1702340059    0.0529081176    2.1043134051
 H    0.9172189157   -2.3310819684    2.3982452534
 H   -0.5677293935   -2.2426753772    1.4487820813
 H    0.9870362430   -2.5201388697    0.6364343487
 H    2.0919977181    0.5442475606    3.2385492913
 H    2.7447842373   -1.0827689137    2.9717601737
 H    4.5692875502   -0.0612927451    1.5533414265
 H    4.0334459927    1.5593212446    2.0506882997
 H    4.9955586388   -0.6650949463    3.9910762568