17

 C   -0.0237037993    1.5692160757   -0.0367738729
 C   -0.0511608831    0.0675505562    0.0952053133
 N    1.2132399178   -0.6494350388   -0.1523089503
 C    0.6475578967   -0.6378521256    1.1923337570
 C    1.3465961761   -0.1678452733    2.4620180093
 N    0.2669354256   -0.0284591388    3.4501395635
 C    0.8712680307   -1.3852480516    3.2178789304
 C    0.2457749514   -1.9102102027    1.9364463519
 O   -0.1682314856   -2.9721442801    1.5666829134
 H    0.9290327473    1.9702478576    0.3188228367
 H   -0.1468462766    1.8679323958   -1.0829592293
 H   -0.8322458785    2.0205074204    0.5466276254
 H   -0.9617655319   -0.4190466308   -0.2525968358
 H    1.0370977107   -1.5595281442   -0.5768658998
 H    2.3013460522    0.3327057943    2.5456870587
 H    0.6810654459    0.3075551244    4.3209550591
 H    1.3325785707   -1.9375395286    4.0257271393