18

 C    0.1912848032    1.6382500963   -0.1489755680
 N   -0.0108419245    0.2040881575   -0.0512895167
 C    0.5965724190   -0.4518955822    0.8338504831
 O    1.4338514595    0.0395106979    1.7945317688
 C    2.0836153696   -1.0460871983    2.4753864706
 C    1.2116527395   -2.2770571792    2.1902505782
 N    0.5075381189   -1.8353897006    0.9999753678
 C   -0.2747483723   -2.6607443583    0.2284437574
 N   -0.3771761164   -3.9007332030    0.5055899205
 H    1.0460164895    2.0088374397    0.4289417245
 H    0.3358535689    1.9092436465   -1.2004052485
 H   -0.7074611667    2.1658270886    0.1943932245
 H    3.0958691467   -1.1610776526    2.0718549408
 H    2.1476588817   -0.7937482838    3.5350834242
 H    1.7889300027   -3.1814693632    1.9891073303
 H    0.5091628760   -2.4984918381    3.0025924215
 H   -0.7488944140   -2.1168293446   -0.5915807239
 H   -0.9829777310   -4.3589706526   -0.1720410849