18

 N    0.0227586253    1.5220936991   -0.5535891163
 C   -0.0539192534    0.1261954253   -0.2318821817
 C   -1.3589972579   -0.5220180616    0.1556637856
 N   -2.5542379223    0.0735534077   -0.3713976047
 C   -2.4469410714    0.1130692146   -1.7495590487
 C   -3.4048218114    0.9318569516   -2.5621948570
 O   -3.0033710562    2.3028849028   -2.5712080612
 N   -1.4480268350   -0.5294504456   -2.2494909533
 C   -0.6423923760   -0.9614656600   -1.1402649022
 H    0.5401928296    1.6652245403   -1.4157499271
 H   -0.9002699234    1.9185005781   -0.6985274883
 H    0.7882847318   -0.2352306150    0.3533813126
 H   -1.4626506701   -1.1101752063    1.0602354596
 H   -3.0882304379    0.7577627298    0.1406269611
 H   -3.4557611460    0.5123858690   -3.5730454782
 H   -4.4069979490    0.9153939638   -2.1231872223
 H   -2.1614620750    2.3372222040   -3.0392839295
 H   -0.1128700517   -1.9007426075   -1.2484591684