18

 O   -0.0340196396   -0.0117198127   -0.0842157916
 C   -0.0120477495    1.1939415637    0.0042630285
 C   -1.2757982961    2.0244349117   -0.0263907257
 N   -1.5697005922    2.8682373530    1.1671756175
 C   -1.0796165953    3.5019221305   -0.0607843384
 C    0.3778145379    3.9578617278   -0.0574481877
 C    1.1804653202    3.1929986171    1.0295472213
 C    1.2689208054    2.0129805910    0.0143792464
 C    1.1509255986    3.1058995819   -1.1074222781
 H   -2.1142676026    1.5545036742   -0.5308783495
 H   -2.5791221382    2.9713672152    1.2389431672
 H   -1.7738405847    4.0936061877   -0.6519288779
 H    0.4635484666    5.0458070682   -0.0974348464
 H    2.1666345825    3.6418554369    1.1707249660
 H    0.7024956143    3.0184734350    1.9918946903
 H    2.1340134830    1.3498361559    0.0243084677
 H    0.6391679463    2.8422570517   -2.0374174108
 H    2.1339620236    3.5241146411   -1.3372960988