16

 C    0.0443016510    1.5930785810   -0.0334013687
 C   -0.0105328412    0.0643217882    0.0710007737
 C    0.7272252606   -0.6570418720   -1.1258544302
 O    1.6968655055   -1.6413193455   -0.5938668644
 C    1.6455417401   -1.4442632852    0.7281790461
 C    0.7556828162   -0.5376172640    1.2148834138
 N    0.8598151320   -0.5040912498    2.5650712727
 N    1.7805584007   -1.3503891991    2.9367533865
 N    2.2834377373   -1.9500941212    1.7891910516
 H    1.0805898921    1.9445215419   -0.0630900112
 H   -0.4674405672    1.9465799506   -0.9349565481
 H   -0.4414211761    2.0501167139    0.8329756811
 H   -1.0620886179   -0.2480722498    0.0876018245
 H    0.0490076671   -1.2104137381   -1.7773281417
 H    1.3023649337    0.0546214129   -1.7249741628
 H    3.0104227462   -2.6411469837    1.8657091271