19

 C    0.0297423308    1.5740710736   -0.0387133398
 C   -0.0095622957    0.0765283817    0.0327743949
 C    1.1396257590   -0.8342131333   -0.3707332695
 C    0.5639717112   -0.9288636928    1.0134475411
 C    1.3093695255   -0.8390247909    2.3134057982
 C    2.0190664289   -2.1411805263    2.6480214152
 O    3.1686705199   -2.2156630806    2.9966621497
 O   -0.6193826746   -1.7414585754    0.9878644389
 C   -1.2708464127   -0.7820632835    0.1108597633
 H    1.0262800224    1.9549784490    0.2065165035
 H   -0.2154577174    1.9300939967   -1.0465056272
 H   -0.6835601839    2.0279833495    0.6582983869
 H    0.9900734551   -1.6522454574   -1.0710038312
 H    2.1006022227   -0.3333907913   -0.4469491645
 H    2.0506931212   -0.0357154516    2.2897100891
 H    0.5922166636   -0.6300293711    3.1197773255
 H    1.3841303181   -3.0485662720    2.5486373619
 H   -2.1019337345   -0.2910806919    0.6314273205
 H   -1.6351030595   -1.2428523623   -0.8151256566