16

 C    0.0871752360    1.5265903619   -0.0959612754
 C    0.1075927570    0.0145798022    0.0275827655
 O    0.8615790145   -0.5179191748   -1.0786664373
 C    0.9320336257   -1.8642263725   -1.1735858029
 N    0.9749586021   -2.4261056765   -2.2985115189
 O    0.9451049974   -2.5272076188    0.0211793767
 C    1.4553401799   -1.8096731697    1.1466974502
 C    0.7424810407   -0.4770962842    1.3261283319
 O    0.7006324849    0.1156543390    2.3727409558
 H    1.1072199597    1.9177402231   -0.1317594153
 H   -0.4373858099    1.8253956350   -1.0054421238
 H   -0.4168736122    1.9518000018    0.7740010044
 H   -0.9169598263   -0.3860535630   -0.0137547553
 H    1.1274705744   -3.4257700833   -2.1788709637
 H    1.2993306812   -2.4417187656    2.0222887800
 H    2.5337684952   -1.6279464946    1.0374550480