22

 C    0.2273073977    1.5492850412    0.1687853822
 C    0.0027798657    0.0352744724    0.0123589311
 C    0.7020773808   -0.7028991574    1.1684937218
 C   -1.5034006152   -0.2823273264    0.0470320242
 C    0.5955951243   -0.4877072556   -1.3248694636
 C   -0.0079994163    0.1107496992   -2.6282529179
 O    1.1415865558    0.5873516377   -3.3718510875
 C    2.2037082021    0.3579644207   -2.5666156899
 N    2.0431712531   -0.2074384702   -1.4456114147
 H    1.2935038059    1.7897936877    0.1395505048
 H   -0.2725096524    2.1272700206   -0.6162351591
 H   -0.1727252620    1.8939724794    1.1280586200
 H    0.3132415947   -0.3619176398    2.1339909283
 H    0.5341213164   -1.7840298298    1.1045839153
 H    1.7801624580   -0.5286011322    1.1449523854
 H   -2.0553622463    0.2430761095   -0.7400007164
 H   -1.6856525473   -1.3564026930   -0.0731347272
 H   -1.9363429174    0.0217374416    1.0057416689
 H    0.4694593913   -1.5782452225   -1.3220238587
 H   -0.5287214579   -0.6243793638   -3.2456970685
 H   -0.6712962789    0.9626957898   -2.4579949484
 H    3.1516154679    0.6936148611   -2.9734298102