15

 C   -0.0772980166    1.5294975465    0.1322003966
 C    0.0263175406    0.0190565625   -0.0521620325
 C    0.7385251760   -0.4221599398   -1.2981919786
 N    1.2155301514    0.4466386237   -2.1339326335
 C    1.8619809122   -0.0268454483   -3.2649939599
 O    2.3592883214    0.6389577379   -4.1361409170
 N    1.9010750867   -1.4388015810   -3.3322552391
 N    1.3961384404   -2.2918583605   -2.4475608932
 N    0.8103323958   -1.8168785908   -1.4224959190
 H    0.9123189174    1.9909471299    0.1753244709
 H   -0.6150570427    1.9928356557   -0.6986034516
 H   -0.6079876505    1.7580499486    1.0602549613
 H    0.5410452619   -0.4559016148    0.7938471515
 H   -0.9649012345   -0.4537948962   -0.0678699636
 H    2.3557208202   -1.8697136035   -4.1277192623