16

 N   -0.1874492279    1.3243100431    0.0109503181
 C   -0.0863458051    0.0667205966    0.0037911313
 O   -1.1961562177   -0.6976059960    0.0082397937
 C   -0.9838720456   -2.1096666354   -0.0015712235
 C   -2.3571299136   -2.7622584328    0.0088684225
 C   -2.2715698006   -4.2756822614    0.0001337158
 O   -1.2168699868   -4.8748698553   -0.0133697101
 C   -3.5466551029   -4.9713746888    0.0091732954
 C   -4.6133650993   -5.5286704747    0.0168703404
 H    0.7385809888    1.7467056434    0.0062390719
 H    0.8468817236   -0.5137649960   -0.0061943503
 H   -0.4231005550   -2.4100548223   -0.8944305813
 H   -0.4050764217   -2.4197416375    0.8763463787
 H   -2.9286414114   -2.4433776025    0.8893512942
 H   -2.9463171953   -2.4342790289   -0.8564840410
 H   -5.5470316997   -6.0374326216    0.0235145141