18

 C    0.0194711760    1.4512422169    0.0638090253
 C   -0.0518045709   -0.0382244953   -0.1108225322
 C   -1.4111311823   -0.7614323348   -0.0126632080
 C   -1.3544241209   -2.2272861310   -0.3417200890
 C   -0.7263237511   -1.7289654846    0.9266733958
 N    0.5953173814   -0.9872943607    0.8632553822
 C    1.1288745631   -0.8493501482   -0.5328088136
 C    1.2824288495   -1.8600495353   -1.5424404106
 C    1.5594015234   -2.6470370920   -2.4104273791
 H    1.0417043039    1.7743056143    0.2781414154
 H   -0.3234524715    1.9633831731   -0.8428290150
 H   -0.6197470148    1.7702080904    0.8944991433
 H   -2.3354042785   -0.2139016945    0.1157376966
 H   -2.2966955188   -2.7368918390   -0.1563388377
 H   -0.7959022241   -2.6223084267   -1.1762237829
 H   -1.0132923256   -2.0837781268    1.9077578206
 H    2.0457170808   -0.2639316303   -0.4548799824
 H    1.7645702405   -3.3571292455   -3.1729582786