17

 C   -0.1412460827    1.5750301688   -0.0016758805
 C    0.1024397835    0.0552628225    0.0306652784
 C    0.6875165015   -0.4618996162   -1.2434320304
 C    0.1004283047   -0.7707825452   -2.4365567831
 C   -1.3120188985   -0.7025610582   -2.9276399408
 O   -1.7598060038    0.6323871657   -3.1263713602
 O    1.0566391486   -1.1473743470   -3.2932972486
 N    2.2914962505   -1.0707307294   -2.5858643850
 N    2.0391460010   -0.6718173906   -1.4185093418
 H    0.7976029314    2.1155373032   -0.1553699987
 H   -0.8220160926    1.8306472230   -0.8185315847
 H   -0.5812521733    1.9157639195    0.9401311956
 H    0.7821387557   -0.2030360802    0.8481512617
 H   -0.8445460577   -0.4603430912    0.2287555774
 H   -1.4047515364   -1.3075911429   -3.8387405074
 H   -1.9814863601   -1.1262015158   -2.1734215078
 H   -1.2134062021    1.0302125640   -3.8129961339