19

 O    0.0946609009    1.4248647736   -0.0937001763
 C    0.0531574319    0.0098316184    0.0527264652
 C   -1.3545986815   -0.5237935139    0.0691728129
 C   -2.3341440333   -0.3749488857    1.2510258679
 C   -3.1365542876   -1.4252367347    0.4555745169
 O   -3.5564877357   -0.6739779458   -0.6937714177
 C   -2.2489364347   -0.4519273574   -1.2473819195
 C   -1.8069378297   -1.8892229845   -1.6063614018
 C   -1.7739849913   -2.0411242246   -0.0791407721
 H   -0.3810062645    1.8088339204    0.6500244872
 H    0.6081606617   -0.3876841453   -0.8042324591
 H    0.5878268143   -0.3136753231    0.9606012240
 H   -1.8948854843   -0.7788361589    2.1684908960
 H   -2.8347616649    0.5784990119    1.4421828119
 H   -3.9578182024   -2.0095009508    0.8668975544
 H   -2.2444826853    0.3888331538   -1.9377957598
 H   -2.5091186518   -2.4815674103   -2.1973234136
 H   -0.8025805164   -1.9392542934   -2.0338153316
 H   -1.3105390255   -2.8606457298    0.4678813949