14

 N    0.0438932150    1.2432692307   -0.0087546561
 C   -0.0195967834   -0.1089260014    0.0348102137
 O    0.9645801958   -0.8291340925    0.0894399058
 C   -1.4187018189   -0.7301099085    0.0644482190
 O   -1.2984098984   -2.1188864890   -0.1341195698
 C   -2.1146108045   -0.4828093525    1.4183310605
 O   -3.3076484863   -1.2254912453    1.4882572989
 H    0.9483225002    1.6854538566   -0.0385911457
 H   -0.7756947452    1.8104255317   -0.1392354592
 H   -2.0426194363   -0.3097830466   -0.7370102833
 H   -0.3469357147   -2.2983350190   -0.0285844285
 H   -1.4146213262   -0.7532006327    2.2265043586
 H   -2.3776978120    0.5740108046    1.5392159336
 H   -3.0693754652   -2.1147285362    1.1933469324