15

 C    0.0221717716    1.3835709469    0.0762632091
 N   -0.0156195452   -0.0592318543   -0.0078117533
 C   -0.1266639127   -0.8113066011   -1.1422673636
 C   -0.0598794028   -2.1292454860   -0.7191330028
 N   -0.0933241911   -3.4591590242   -1.1140025311
 C    0.0366071619   -4.1133771155    0.0109018160
 N    0.1534442064   -3.3157146769    1.1427331976
 C    0.0931769490   -2.0220761494    0.6776467614
 N    0.1256841641   -0.7821494633    1.1445706124
 H    1.0260265717    1.7331742641    0.3377919998
 H   -0.2639367056    1.8022515664   -0.8899864039
 H   -0.6790873683    1.7257519064    0.8409356253
 H   -0.2407579461   -0.3465936659   -2.1076894044
 H    0.0572707422   -5.1908790580    0.0981737284
 H    0.2621283651   -3.6326440793    2.0900428091