18

 C   -0.1481578706    1.5695454517   -0.1087781478
 C   -0.0249636289    0.0539905485   -0.0332726214
 O   -1.2630143249   -0.5852062196   -0.2392982577
 C    1.2061346052   -0.5212514050   -0.7891347235
 O    1.9030663276   -0.7311606469    0.4586619513
 C    0.6930162993   -0.5328514775    1.2095411846
 C    0.8988668702    0.3169824518    2.4634225405
 C    1.6664801388   -0.3854359580    3.4898208872
 N    2.2655629706   -0.9445261253    4.3040657248
 H    0.8108102178    2.0611992597    0.0766565456
 H   -0.4753594125    1.8677709277   -1.1124854161
 H   -0.8826776595    1.9411560795    0.6122343158
 H   -1.7274072435   -0.1397641518   -0.9557346447
 H    0.9801308560   -1.4647251490   -1.3009361529
 H    1.7577578943    0.1488461131   -1.4573972427
 H    0.2310234466   -1.4908318389    1.4834626572
 H    1.4186776189    1.2457185664    2.2096494788
 H   -0.0798739152    0.5830690137    2.8802743008