14

 C   -0.0147146144    1.3811797242    0.1120074748
 N   -0.0001740666   -0.0556585498   -0.0138827023
 C   -0.1196375263   -0.8018908408   -1.1336541333
 C   -0.0417019583   -2.1264692023   -0.7563460263
 C    0.1259377668   -2.0756360934    0.6487494071
 N    0.3273722230   -3.1473611220    1.5198939801
 N    0.1439194160   -0.8224745970    1.0985195887
 H    0.9263681764    1.7380700188    0.5414720261
 H   -0.1465205910    1.8214661698   -0.8781100610
 H   -0.8364652649    1.7017142053    0.7597523719
 H   -0.2452000146   -0.3437573709   -2.1026899316
 H   -0.0846274952   -2.9945713474   -1.3935048614
 H   -0.2454933431   -3.9512628347    1.3017359709
 H    0.1935536221   -2.8695635996    2.4838790264