18

 C   -0.0231993133    1.5397752321    0.0450404197
 C    0.0294086558    0.0303839600   -0.0024672732
 C   -0.8401981988   -0.8082617433    0.9244251049
 C    0.6595924955   -0.8429718941    1.0819978368
 N    1.3825504480   -1.8837689264    0.3891381997
 C    2.1819867213   -2.8278344712    0.9723140124
 O    2.7815806989   -3.6920034720    0.3704745613
 C    1.1733090904   -1.7458315568   -0.9930907678
 C    0.4310026191   -0.6653409174   -1.2655104154
 H    0.9198749627    1.9814814521   -0.2934599857
 H   -0.8235419228    1.9214270000   -0.5990426998
 H   -0.2201122804    1.8974438581    1.0603176634
 H   -1.3797158683   -0.2787025964    1.7028945825
 H   -1.3458360052   -1.6787796040    0.5219490857
 H    1.1309663883   -0.4469769395    1.9738288478
 H    2.2170023439   -2.7096476275    2.0722576778
 H    1.6006171026   -2.4917067191   -1.6451926297
 H    0.1556284425   -0.3281144946   -2.2547182003