19

 C   -0.7862484127    1.1901903561   -0.2597852237
 C    0.0036230672   -0.0951899657    0.0191563268
 C    0.6138129184   -0.7064765998   -1.2299789371
 C    0.5094247277   -2.1531548523   -1.4770221973
 O   -0.3239013302   -1.2212606992   -2.1766184706
 C    1.7860878334    0.0863470758   -1.8344506678
 O    2.8283045074    0.2385719538   -0.8718081970
 C    2.2843056194   -0.4775180969   -3.0902868308
 C    2.7490420222   -0.9467258689   -4.0945167717
 H   -0.1421063649    2.0013381886   -0.6139605868
 H   -1.5567463673    1.0122577663   -1.0157499924
 H   -1.2779163323    1.5420607773    0.6517097755
 H    0.8065047811    0.1001925732    0.7371967431
 H   -0.6634645714   -0.8374807765    0.4694793957
 H    1.2487302651   -2.6578767337   -2.0953235266
 H   -0.0028178324   -2.7775479381   -0.7465446878
 H    1.4379720649    1.1077597576   -2.0277266575
 H    3.2648662951   -0.6166570722   -0.7848982764
 H    3.1464882993   -1.3495518754   -4.9935449574