25

 C   -0.1990950653    1.4554138003   -0.4692310684
 C   -0.0749976974   -0.0414956705   -0.1715195456
 C   -1.4257020348   -0.6930258897    0.1500107465
 C   -1.3795556291   -2.2169968826    0.2785776410
 C   -0.5054294689   -2.7047624735    1.4298944468
 C   -2.7514963002   -2.9320372972    0.1710870422
 C   -2.1571055235   -3.6113202192   -1.0806129283
 C   -2.8618923770   -3.4260731039   -2.4101805099
 O   -0.9461477150   -2.8248947869   -0.9784747099
 H    0.7753169924    1.8984751748   -0.6979562525
 H   -0.8559757748    1.6350473324   -1.3276990475
 H   -0.6188304096    1.9985862954    0.3853333627
 H    0.3608785181   -0.5589725167   -1.0336103643
 H    0.6204179321   -0.1857717237    0.6636813757
 H   -1.8400841955   -0.2727865946    1.0774182543
 H   -2.1355678305   -0.4440506264   -0.6488021814
 H   -0.8522178852   -2.2926697435    2.3842897838
 H   -0.5347112788   -3.7963215577    1.4968267721
 H    0.5362692760   -2.4064561474    1.2838940765
 H   -3.0126600492   -3.5907163430    1.0013275450
 H   -3.5912165082   -2.2644004756   -0.0374707085
 H   -1.9311270294   -4.6763640134   -0.9267334309
 H   -3.1208500833   -2.3750534395   -2.5721377601
 H   -2.2161279018   -3.7500424671   -3.2326997643
 H   -3.7813734911   -4.0214151306   -2.4430062451