17

 C    0.2077885983    1.1193951818   -0.7626963829
 C   -0.1130962152    0.1627666541    0.3629847059
 O    0.5194620721    0.1169395564    1.3976818594
 C   -1.2551384949   -0.7704986822    0.1498576993
 C   -1.9175631106   -1.4871723298    1.3191849527
 C   -1.1137157450   -2.2724042720    0.3254371900
 O   -1.7540357374   -2.8550374052   -0.7745843157
 C   -2.5742942740   -1.8537999038   -1.3479514474
 O   -2.0097490999   -0.5923905471   -1.0232396957
 H    1.0932368109    1.6999598049   -0.5029253162
 H    0.3687182904    0.5689986588   -1.6950980164
 H   -0.6424013496    1.7858534289   -0.9426484553
 H   -1.4380574529   -1.3047650854    2.2742666819
 H   -2.9982963524   -1.5670501432    1.3339947621
 H   -0.1836035467   -2.7590584117    0.5878271397
 H   -2.5904662205   -1.9782831657   -2.4346640769
 H   -3.5975081327   -1.9205272987   -0.9464729044