19

 C   -0.2225715554    1.5687721696   -0.1105675843
 C    0.2167998971    0.1034928432   -0.0411854871
 N    0.8496682327   -0.3623630901   -1.2521033895
 C    0.3254961922   -0.6211473500   -2.5985119768
 C    1.7260572947   -1.1772716763   -2.9308652931
 C    2.1064728683   -2.3283206446   -3.7771370835
 N    2.5522819748   -0.9623794732   -4.1092495716
 C    2.1208523487   -0.8459161139   -1.4911135496
 O    3.0886537337   -0.9600052979   -0.7868054594
 H    0.6345370691    2.2218845693   -0.2973488060
 H   -0.9543494726    1.7276037274   -0.9093588465
 H   -0.6881108054    1.8698256950    0.8328884291
 H    0.9548461249   -0.0388856521    0.7545081288
 H   -0.6454167355   -0.5365664857    0.1938921463
 H   -0.4953495267   -1.3481966577   -2.6274338036
 H    0.0371922660    0.2808435797   -3.1519433498
 H    2.8968821890   -2.9948560947   -3.4446916029
 H    1.3298332482   -2.7928721929   -4.3798391813
 H    1.9885780462   -0.5798034551   -4.8651992991