21

 O   -0.0817015292    1.4437727182    0.0962698573
 C    0.0224237436    0.0270625764    0.0079895771
 C    0.8702795533   -0.5481003289    1.1590964378
 C    0.6761927890   -2.0635914778    1.3624873775
 C   -0.8158833708   -2.4204595754    1.2584469413
 C   -1.3397914770   -2.0644598390   -0.1379337742
 C   -1.4080164621   -0.5378256398    0.0247566982
 C   -2.0467102596   -0.4411180041    1.4173530727
 O   -1.5866146515   -1.5946758557    2.1430529665
 H    0.8041029559    1.8019679057    0.2132450184
 H    0.4779571086   -0.2525748593   -0.9571874966
 H    1.9294218136   -0.3123812577    0.9976633513
 H    0.5671289391   -0.0317729104    2.0758478835
 H    1.2323285124   -2.6424108910    0.6141171618
 H    1.0663471523   -2.3524408891    2.3436512133
 H   -0.9921364299   -3.4622807146    1.5419665371
 H   -0.6798494215   -2.3936255688   -0.9451747121
 H   -2.3336344986   -2.4903174720   -0.3054279472
 H   -2.0040926227   -0.0314287471   -0.7379654462
 H   -1.7550694883    0.4713314572    1.9473826660
 H   -3.1428580169   -0.4689624967    1.3552992965