17

 C   -0.0404403395    1.6108372271   -0.0250737462
 C    0.1429920756    0.0966978029    0.0474146870
 C    1.3807895558   -0.7194994191   -0.2008456325
 C    2.6650017331   -0.1560466703    0.4682927739
 O    2.3600083287    1.0803583703    1.1338816456
 C    2.0397839927   -0.1509625079    1.7821651808
 C    0.7019241084   -0.7316902623    1.1994688343
 C   -0.0010414726   -1.7860894115    1.8360182772
 C   -0.5815659544   -2.6750020617    2.4058217690
 H    0.7455340862    2.0875577191   -0.6126017987
 H   -1.0027910513    1.8382273450   -0.4945822094
 H   -0.0308761734    2.0704693457    0.9643060512
 H   -0.7113144678   -0.4441533818   -0.3557657452
 H    1.4061802774   -1.5468654237   -0.8983942455
 H    3.6880528510   -0.3243304475    0.1575026535
 H    2.4237069309   -0.3311764352    2.7784532832
 H   -1.0977169909   -3.4593114089    2.9009629318