15

 N    0.0265118821   -1.1835931043   -0.1540126814
 C    0.0154893503   -0.0302892026   -0.0761407606
 C    0.0164899272    1.4216288142    0.0496989963
 C   -0.2383135628    2.0296941540    1.4791444222
 C    1.1192868775    2.7486413283    1.3916909504
 C    2.2263583124    1.7397258728    1.1794857997
 C    1.3871242100    2.1237108100    0.0052194863
 C    1.3631828233    4.0820276818    1.8331740683
 N    1.5446257889    5.1670324934    2.1931844752
 H   -0.6782968823    1.8453092053   -0.6780429640
 H   -1.0895186963    2.7099082052    1.4796891032
 H   -0.3394040575    1.3157438209    2.2988992215
 H    3.2288239141    2.1520693789    1.1818494702
 H    2.1367468190    0.7540962839    1.6281326558
 H    1.7998850339    2.6012661081   -0.8733924431