15

 O   -0.6079960662    0.7965203283    0.6810111328
 C    0.3286711696    0.7874745473   -0.0754836883
 C    1.4481905892    1.7801469535    0.0000720496
 C    1.8241647424    2.7676466730    1.1328907929
 C    2.8957909835    2.8946679254    0.0151783126
 N    2.9087078643    1.3863272270   -0.1776400622
 C    1.7386531203    2.9380852245   -1.0281435099
 C    2.0278275334    2.5892957044   -2.4074270383
 N    2.2169546799    2.3628887931   -3.5248085702
 H    0.4290107990    0.0423418010   -0.8928886958
 H    1.1610517722    3.6150316079    1.3247930739
 H    2.1638737040    2.2994373418    2.0587845452
 H    3.8109922358    3.4848003625   -0.0032589769
 H    3.2363854159    0.9410239847    0.6853712946
 H    1.0653471967    3.7937247056   -0.9659170501