19

 O    0.2656863515    0.0884152460    0.2313625877
 C    0.0711085920    1.2367322560   -0.0054250975
 O   -1.1035960301    1.8246835504   -0.4078284196
 C   -0.4924518640    3.1554355060   -0.4202277298
 C    0.8597136054    2.5537272191    0.0155550410
 C    1.4523131704    2.9564256189    1.3538085546
 C    2.7034176024    2.1917693780    1.8721486036
 C    3.2537975249    3.5406745641    2.4090629300
 C    2.2715438164    4.2762470712    1.4572112628
 H   -0.5384806904    3.5929568178   -1.4193103940
 H   -0.9793943549    3.8082765343    0.3081046603
 H    1.6238391472    2.5795995444   -0.7680347912
 H    0.6669630728    2.9443341158    2.1189436405
 H    2.5389160678    1.3770247841    2.5793777568
 H    3.3063163856    1.8111499010    1.0417640391
 H    2.9923182729    3.6968300745    3.4593845341
 H    4.3205058394    3.7387185408    2.2852937768
 H    2.7468165299    4.5227084754    0.5017881615
 H    1.7591933007    5.1665283720    1.8298677333