15

 N    0.0962813579    1.3160946910   -0.1153699174
 C   -0.0918501380    0.0646503786    0.3919277448
 O    0.4060107090   -0.2883631888    1.4441232870
 C   -1.0085679853   -0.8194014758   -0.4527615962
 C   -0.8483570213   -2.2887443432   -0.2276355698
 C   -0.2706055973   -2.9856912457    0.7813883012
 O   -0.4112818197   -4.3204829964    0.5063963229
 C   -1.0766373632   -4.3537988366   -0.6661257500
 N   -1.3668120008   -3.1940376348   -1.1556516182
 H    0.6549859161    1.9656090640    0.4130980688
 H   -0.2920140057    1.6104457881   -0.9935532341
 H   -2.0422144241   -0.5194026990   -0.2264859287
 H   -0.8707167611   -0.6082735316   -1.5189703799
 H    0.2421193396   -2.7143730275    1.6839123462
 H   -1.2955313963   -5.3273127622   -1.0758836066