17

 C    0.1586418059    1.6358449466    0.0844246720
 C    0.1224797151    0.1175797853    0.0405427710
 N    0.7092611270   -0.6459586802   -1.1240602669
 C    2.0364823751   -0.1368893263   -1.6190018216
 C    2.8125856395   -1.2043335428   -0.8029727744
 C    1.4486505304   -1.5826791007   -0.1829420215
 C    1.0001483101   -0.7096399239    1.0033435419
 O    1.2821908589   -0.6471451757    2.1634206602
 H    1.1762407556    2.0336008119    0.1107145300
 H   -0.3588340268    2.0590147823   -0.7822420957
 H   -0.3509366385    1.9815049840    0.9883831554
 H   -0.9194869452   -0.2174515569    0.1426757289
 H    2.1180644812   -0.2299229830   -2.7049823898
 H    2.2581742992    0.8997454517   -1.3504134030
 H    3.2446316067   -2.0009699161   -1.4109291349
 H    3.5707197069   -0.8448231095   -0.1042931850
 H    1.1558502187   -2.6357340667   -0.1508975367