16

 C    0.0578429165    1.4795998426   -0.0189399813
 N    0.0078562178    0.0232617621    0.0074820830
 C   -0.0454516183   -0.6525788338    1.2169392291
 N   -0.0526749006   -0.0368119457    2.3312924974
 C    0.0141811385   -0.6740560516   -1.1873169135
 N   -0.0291061606   -1.9932256646   -1.2315445831
 O   -0.0062697615   -2.3174650296   -2.5898236073
 C    0.0495399187   -1.1914976957   -3.3049568021
 C    0.0661136633   -0.1032024579   -2.4976556131
 H    0.9738622006    1.8296998118   -0.5066440171
 H   -0.8077496511    1.8901541566   -0.5497448515
 H    0.0444381749    1.8231750055    1.0137474797
 H   -0.0785579018   -1.7341564018    1.0778568636
 H   -0.0945453300   -0.7047114008    3.0972326488
 H    0.0721998298   -1.3132357936   -4.3770887910
 H    0.1079948636    0.9335010066   -2.7810255014