19

 C    0.2391248257    1.5363227477    0.2513804625
 C    0.3158539936    0.0363463908    0.0380706558
 O    0.4862583609   -0.5816604503    1.3213037395
 C    0.6131743955   -1.9609556035    1.3142656183
 C    1.9853353302   -2.5540808161    0.9465880566
 C    1.5949386109   -2.4482911748    2.3850881033
 O    2.1428663937   -1.4858298583    3.2135416405
 C   -0.6006558155   -2.7645184203    1.0458568584
 O   -1.6807880013   -2.3101718090    0.7587616800
 H    1.1554855363    1.9134284761    0.7154468986
 H    0.1044601533    2.0443637853   -0.7079978666
 H   -0.6055257251    1.7883310031    0.8981708707
 H   -0.6018884789   -0.3445622295   -0.4211094595
 H    1.1639903586   -0.2281571898   -0.6099574753
 H    2.0128009607   -3.5302714888    0.4738974740
 H    2.7084120091   -1.8357982811    0.5768171696
 H    1.3462208518   -3.3620216910    2.9174705147
 H    1.8162561125   -0.6323588780    2.8918415271
 H   -0.4326822619   -3.8637027724    1.1338906419