15

 C    0.0163137491    1.5096639970   -0.0327741269
 C   -0.0034583111    0.0195637938   -0.0423798058
 N    0.1195584005   -0.7660803769   -1.1011729396
 C    0.0339181084   -2.0165746163   -0.5628281503
 N    0.1259783325   -3.1116921513   -1.4113402165
 C    0.0674849544   -4.4494385219   -1.0972026218
 O   -0.0781908082   -4.9202640128    0.0016598090
 N   -0.1326968956   -2.0723771184    0.7472884209
 N   -0.1532220995   -0.7445146763    1.0562705595
 H    0.9625305403    1.8821404681   -0.4355516145
 H   -0.7875939256    1.9067361330   -0.6591369907
 H   -0.1074942775    1.9021483165    0.9797169645
 H    0.2521543995   -2.8611456229   -2.3804932080
 H    0.1752564440   -5.0602905072   -2.0162637420
 H   -0.2708572214   -0.4657064743    2.0163765822