15

 C   -0.1805512386    1.1739545989    0.0907247080
 C    0.1287193218   -0.3232551942    0.0569611373
 N    0.3574823884   -1.0139040714    1.3175195054
 C    0.2912072413   -0.4138233838    2.4063263810
 O    0.5595826078   -1.0678112863    3.6141272969
 C   -0.0137755716   -2.2606003162    3.8891530825
 O   -0.9012911704   -2.8038554488    3.3067396267
 C    0.6052380939   -2.8099053204    5.1025547404
 N    1.0537051287   -3.2893298501    6.0525651173
 H    0.6373805288    1.7491750834    0.5371903171
 H   -0.3224845645    1.5388738814   -0.9303872354
 H   -1.0977044410    1.3881244692    0.6493586055
 H   -0.6848041626   -0.8646037681   -0.4413299256
 H    1.0181849276   -0.5102046948   -0.5571971763
 H    0.0978946005    0.6393615113    2.6099427893