23

 C   -0.0445378022    1.5771054178   -0.0327447588
 C    0.0612327741    0.0496972573    0.0096433265
 C    0.6682951921   -0.5300706569   -1.2798755530
 C    0.7933865508   -2.0515255078   -1.2028651632
 O    1.5113815915   -2.4606260200   -0.0485928210
 C    0.8702935233   -2.0293674560    1.1365387215
 C    0.8090156675   -0.4910693076    1.2524254625
 C    2.2168073813    0.0844392693    1.4344946596
 O   -0.0168634759   -0.1555358032    2.3717367303
 H    0.9216482261    2.0462453381   -0.2471078059
 H   -0.7388194514    1.8891922842   -0.8199715166
 H   -0.4117673070    1.9647252867    0.9205686042
 H   -0.9587698002   -0.3489932026    0.1075341224
 H    0.0438272325   -0.2563741317   -2.1390806619
 H    1.6588370044   -0.0935606858   -1.4585446166
 H   -0.2109796881   -2.5099579863   -1.1979766006
 H    1.3410699056   -2.4513429466   -2.0612167622
 H   -0.1589847812   -2.4202535850    1.1925536978
 H    1.4413931058   -2.4526831617    1.9710233912
 H    2.8742981724   -0.2109123349    0.6132930980
 H    2.1978187579    1.1743730150    1.5045110534
 H    2.6616619895   -0.3065365536    2.3584435346
 H    0.4832349213   -0.3344631988    3.1750789179