11

 N    0.1170427832    1.4426425504    0.0070772738
 C    0.0806994438    0.1692974395    0.0013958263
 N   -1.1211201283   -0.5528989589    0.0084653076
 C   -2.4262468440   -0.0800727963    0.0244122215
 O   -2.7821659567    1.0654259489    0.0348212888
 C    1.2380332292   -0.6904874280   -0.0132121976
 C    2.2169197719   -1.3896941866   -0.0254926759
 H    1.0865697619    1.7561520400    0.0000228159
 H   -1.0194278798   -1.5562873259    0.0017387189
 H   -3.1284548525   -0.9392973172    0.0257718836
 H    3.0902551314   -1.9954320559   -0.0363089230