27

 C    1.7391485078    0.8731792210    0.1962789428
 C    1.4898582530   -0.5423315012   -0.3370991416
 C    1.1776656089   -0.6811045842   -1.8441630571
 C    1.1615334334   -2.1801327014   -2.2219616871
 C    1.4940983789   -2.4569197106   -3.6838772937
 O    1.4021989719   -3.8597827050   -3.8912254101
 C   -0.1241577661    0.0238521134   -2.3403406080
 C   -1.3189044649   -0.1494404489   -1.3896241026
 C    0.0823603285    1.5031025116   -2.7038521061
 H    2.4931423644    1.3973750065   -0.4015523908
 H    0.8341174016    1.4865868785    0.2005427707
 H    2.1060602824    0.8314589438    1.2272211485
 H    2.3888373726   -1.1398294435   -0.1409057755
 H    0.6914663147   -1.0178650301    0.2464905931
 H    2.0173213911   -0.2177111844   -2.3850906435
 H    1.8873978873   -2.7305910324   -1.6128292719
 H    0.1814768475   -2.6202653562   -2.0003488079
 H    0.8040156283   -1.9161432121   -4.3507035935
 H    2.5101480491   -2.0886090708   -3.9036722853
 H    1.6066496709   -4.0408226289   -4.8131488342
 H   -0.3995954073   -0.4779873695   -3.2773664019
 H   -1.1821614117    0.4062685098   -0.4563318470
 H   -2.2359058259    0.2225541404   -1.8585656514
 H   -1.4863907345   -1.1997761998   -1.1302610889
 H    0.8958433318    1.6215144281   -3.4278359237
 H   -0.8257292461    1.9188784632   -3.1545390481
 H    0.3244081824    2.1163086628   -1.8318095453