19

 C   -0.0889564776    1.5821767781    0.0926732240
 C   -0.0247933288    0.0412748397    0.0411587722
 C    0.7242218912   -0.5083025324    1.2748704885
 C   -1.3830226669   -0.5093149167    0.0182337264
 C   -2.4929113602   -0.9703867647    0.0289751968
 C    0.7026351523   -0.4338429687   -1.2701070654
 O    0.0186275778   -0.0192669324   -2.4430772880
 C    2.1084847451   -0.0195167596   -1.3061702731
 C    3.2487578979    0.3571977497   -1.3722502327
 H    0.9202141248    2.0051369198    0.0843829711
 H   -0.6494896714    1.9769990292   -0.7586311090
 H   -0.5956388676    1.9089338015    1.0040875951
 H    0.1892571083   -0.2384838683    2.1889684025
 H    0.7951561729   -1.5994552590    1.2363574878
 H    1.7349296535   -0.0950788361    1.3236718369
 H   -3.4753046074   -1.3734612119    0.0253089391
 H    0.6536045456   -1.5287265361   -1.2807182453
 H    0.2918274255    0.8825612300   -2.6412435599
 H    4.2620084250    0.6709247280   -1.4319580472