13

 O    0.0675074168    1.4176604838    0.0544221637
 C    0.0493791431    0.0083559100    0.0356847112
 C   -1.3935441486   -0.5277287729   -0.1477130131
 O   -1.0370401002   -1.0743181029   -1.4556828606
 C    0.2508938157   -0.6053677865   -1.3607033751
 N    1.2160755647   -0.6295042487   -2.1546270048
 C    0.8401140324   -0.5900621848    1.1021825471
 C    1.5051997004   -1.0700274838    1.9800624079
 H    0.9763550586    1.6965350413   -0.1112759065
 H   -1.7097383915   -1.3136033135    0.5384683632
 H   -2.1382114190    0.2648407973   -0.2359318338
 H    0.9775706149   -1.0840931823   -3.0375106114
 H    2.0964747726   -1.4955665870    2.7534687020