15

 C   -0.0119180586    1.4950120388   -0.0042201325
 C    0.0056791080   -0.0048151612   -0.0118414581
 N   -0.0920149416   -0.6225530326   -1.1974765500
 C   -0.0738480071   -1.9543509856   -1.1753174005
 C    0.0395093195   -2.6889448569    0.0014457827
 C    0.0577487417   -4.1645711342    0.0046687793
 O    0.1543387653   -4.8431811765    1.0001798550
 C    0.1350018995   -1.9391303874    1.1803708757
 N    0.1192447899   -0.6138628032    1.1844547210
 H    0.9055702974    1.8776197754    0.4542898657
 H   -0.1064610764    1.8819784531   -1.0183933161
 H   -0.8435684684    1.8562900734    0.6091718319
 H   -0.1531111703   -2.4594871382   -2.1378300889
 H   -0.0261102207   -4.6276291315   -1.0039061542
 H    0.2260734819   -2.4479916136    2.1369095391