20

 C   -0.1019886588    1.5178978654   -0.0178780946
 N    0.1245145370    0.0803953556    0.0634384933
 C    1.4206260018   -0.5230372919   -0.1431257602
 C    2.5941559298    0.3070104072    0.4318415159
 C    1.8751187561    0.2803151450    1.7966926451
 C    2.5555165099    0.0896087810    3.1351209924
 C    1.8217134479    1.3695443226    2.8237928053
 O    2.4819467017    2.5890184080    2.6294281627
 C    0.7431056712   -0.5546642619    1.2079720211
 H    0.6792716261    2.1408944634    0.4362441168
 H   -0.2009325304    1.7950607414   -1.0721411569
 H   -1.0489130092    1.7479408066    0.4806573575
 H    1.5182585379   -1.3015531629   -0.8920699623
 H    3.5297260956   -0.2583242122    0.4373523318
 H    2.7706892018    1.2841264515   -0.0324014423
 H    2.1170496914   -0.5995643368    3.8512479549
 H    3.6421030696    0.1157727494    3.1517007206
 H    0.8819972230    1.5504014671    3.3363270237
 H    3.2795885335    2.4259889735    2.1153846696
 H    0.2165840742   -1.3578532420    1.7138476959