22

 C   -1.1619370421    1.3780055006    0.1222045977
 C   -0.7576491723   -0.0213157394    0.0863298890
 C   -0.4296834887   -1.1807946353    0.0403416297
 C   -0.0231434693   -2.5981255448   -0.0038161903
 C   -1.2652672997   -3.4838173431   -0.2180744373
 C    0.9869879739   -2.8086874707   -1.1477593254
 N    0.6322160816   -3.0776072505    1.2356022037
 C    1.5059465728   -2.1793664356    1.9794932292
 C    0.1784112426   -2.5778324659    2.5270644793
 H   -0.2935272915    2.0455862076    0.1421427367
 H   -1.7585257739    1.6380458865   -0.7592307668
 H   -1.7691155643    1.5962929738    1.0075448215
 H   -1.7641922729   -3.2277576406   -1.1564034192
 H   -0.9622354099   -4.5341235038   -0.2450485700
 H   -1.9793899415   -3.3482412253    0.5985974197
 H    1.8767762504   -2.1925606852   -0.9929307325
 H    1.2909203118   -3.8587163631   -1.1753187785
 H    0.5434716018   -2.5357862201   -2.1088854686
 H    2.4217947439   -2.6254513318    2.3571415982
 H    1.5951461793   -1.1507112914    1.6370467356
 H   -0.5882363835   -1.8061381373    2.5375656508
 H    0.1004311615   -3.3221744148    3.3146355276