21

 O   -0.0066851309    1.4259052401    0.0386465894
 C    0.0476739121    0.0091002564    0.0356553422
 C    0.8761440672   -0.5576835104    1.1928670908
 C    0.7993711084   -2.0891952304    1.1980096535
 C   -0.6267325279   -2.5457965318    1.5341836970
 C   -1.7002670361   -1.9450088641    0.6010824832
 C   -2.8253769706   -1.1714150847    1.3239574380
 O   -2.2204268793    0.0993861287    0.9932106336
 C   -1.3734428428   -0.5471383114    0.0048678475
 H   -0.6664079380    1.6656234918    0.7024390452
 H    0.5389437348   -0.2717661982   -0.9057833459
 H    1.9067656098   -0.2032863526    1.0953655499
 H    0.4882436905   -0.1647345958    2.1419890775
 H    1.1030397536   -2.4780897294    0.2158213288
 H    1.5007949594   -2.5095711533    1.9264387388
 H   -0.6948745882   -3.6384783331    1.5158332530
 H   -0.8383307951   -2.2442144518    2.5676573150
 H   -2.0358743895   -2.6775292451   -0.1355984416
 H   -3.8173014668   -1.2698382581    0.8625439010
 H   -2.9136968737   -1.3163834447    2.4063811360
 H   -1.8042713970   -0.4014996218   -0.9957002329