19

 C    0.0170445822    1.5490315701    0.0187335375
 C   -0.0967253081    0.0344781663   -0.1161805823
 N    0.8665384989   -0.4751128589   -1.0757659450
 C    0.8805951039   -1.8320195773   -1.3617220873
 C    0.4491157203   -2.8856655117   -0.6079991467
 O    0.7421821624   -4.0705422896   -1.2343160713
 C    1.3345596790   -3.7587466699   -2.4131752593
 C    1.4505535302   -2.4101083619   -2.5564253235
 N    2.0461884095   -1.6437727694   -3.5896702111
 H    1.0276507725    1.8369336281    0.3227151530
 H   -0.2070120355    2.0473984002   -0.9317882709
 H   -0.6904494412    1.9239983528    0.7633246107
 H    0.1095835041   -0.4352236953    0.8548612399
 H   -1.1306631303   -0.2476432279   -0.3829551795
 H    0.9972880402    0.1061324978   -1.8908462840
 H   -0.0319417234   -2.9670906648    0.3505085309
 H    1.6285522686   -4.5885560667   -3.0354445886
 H    2.6282988090   -2.2195084468   -4.1869090043
 H    1.3463419778   -1.2082563954   -4.1844849682