18

 C   -0.0674281936    1.4653259515    0.0795194588
 C   -0.0377888257    0.0110400510    0.0298967725
 C    0.0141106206   -1.1894675514   -0.0240737957
 C    0.0250358891   -2.6453512865   -0.0750194884
 C   -1.4232000679   -3.1818236682   -0.1226215333
 O   -1.4087164458   -4.5703101954    0.2105531140
 C    0.9073809497   -3.1663887225   -1.2450878258
 N    0.9097735616   -4.5240484248   -1.3636742761
 O    1.5615453274   -2.4318438411   -1.9535910282
 H    0.6337149180    1.8956096816   -0.6437930925
 H   -1.0651532400    1.8530907959   -0.1542806097
 H    0.2083359261    1.8373544438    1.0724861586
 H    0.4642057280   -3.0431836656    0.8514425119
 H   -2.0238772714   -2.6199563056    0.6027974028
 H   -1.8472339077   -3.0138112720   -1.1221478270
 H   -2.2904992735   -4.9262808346    0.0671951761
 H    0.2175974998   -5.0723747336   -0.8742868869
 H    1.3968367552   -4.9135360726   -2.1544736111