21

 C   -0.2251979853    1.4960989102    0.2093916055
 C    0.0203599503    0.0162296462    0.0169194102
 C    0.5493823591   -0.6074001196   -1.2440568702
 C    1.0237602544    0.2401599096   -2.4261297225
 C    2.5424644852    0.4685403471   -2.4220971252
 C    3.0173078110    1.0504490105   -1.0812009237
 C    2.6832387602    0.1290441917    0.0889932356
 O    3.4591797732   -0.0320652780    1.0073869583
 C    1.4033417332   -0.6403916082    0.0232086772
 H    0.4806038404    2.1263845977   -0.3346617860
 H   -1.2312571236    1.7610490981   -0.1351701180
 H   -0.1554864960    1.7635346850    1.2686885453
 H   -0.7126463465   -0.5936295676    0.5393449538
 H    0.1048070017   -1.5593462808   -1.5174851259
 H    0.7305187213   -0.2570861014   -3.3557999930
 H    0.5140233864    1.2111559814   -2.4304239848
 H    3.0547079820   -0.4855591055   -2.5991084575
 H    2.8285053557    1.1354587060   -3.2428158266
 H    4.0976517550    1.2164119838   -1.0598774852
 H    2.5450619818    2.0276266355   -0.9119744297
 H    1.4664612203   -1.5662340317    0.5849840822