18

 C    0.0599736388    1.5402540150    0.0861055031
 C   -0.0032938082    0.0317048796    0.0254400352
 C   -1.1767281278   -0.6579680108   -0.0126252318
 C   -2.5396696535   -0.0283945054    0.0008204554
 C   -1.1705966350   -2.1175162115   -0.0703069555
 N   -2.2342847658   -2.8154864003   -0.1090674436
 O    0.0710457325   -2.7538293011   -0.0823872483
 C    1.2164163212   -2.0441480951   -0.0425330104
 C    1.2397334636   -0.7047913932    0.0098143031
 H    1.0954181633    1.8883489724    0.0689292350
 H   -0.4607523433    2.0006968852   -0.7595783674
 H   -0.4052371097    1.9260692026    0.9995343298
 H   -3.1040499347   -0.3200478083   -0.8912652746
 H   -3.1213215534   -0.3973178921    0.8521946230
 H   -2.4913837279    1.0601218571    0.0500651068
 H   -2.0098015254   -3.8096620245   -0.1462089388
 H    2.0872362357   -2.6877231740   -0.0586837827
 H    2.1900777197   -0.1876350854    0.0396060817