23

 C    0.1536657970    1.3883659671   -0.5522329583
 C    1.4328231879    1.6028614442    0.3011312507
 C    1.3185883531    0.1440225963    0.7995582563
 C   -0.1636603083    0.1255805791    0.2934945732
 C    2.2428987501   -0.8387441246    0.0723964307
 C    2.0572311308   -2.2707138909    0.5943750400
 C    2.1890339927   -2.2887354362    2.1229259744
 C    1.2592393696   -1.2384557116    2.7320689736
 O    1.5044304262    0.0560884432    2.2028211262
 H   -0.5883448811    2.1890034250   -0.5441840013
 H    0.3826600901    1.1443245119   -1.5928427564
 H    2.3562651358    1.8811593468   -0.2137947392
 H    1.2637084838    2.2915976090    1.1323147985
 H   -0.8470957134    0.3482715849    1.1172340324
 H   -0.5182759269   -0.7635217961   -0.2343233926
 H    2.0658661137   -0.7904915984   -1.0081679367
 H    3.2785380799   -0.5173676979    0.2439813664
 H    1.0625852983   -2.6413266577    0.3116653712
 H    2.7844864792   -2.9451573035    0.1300143853
 H    1.9497590332   -3.2776067442    2.5307925996
 H    3.2223292769   -2.0567775921    2.4098082355
 H    0.2082529548   -1.5261528579    2.5580018885
 H    1.4041797764   -1.1534435966    3.8131752323