20

 C    0.0948258605    1.0707764851   -0.8243580616
 C   -0.0856531129   -0.0368585312    0.1995390385
 O   -1.3824896472   -0.5800778385    0.0533629671
 C   -1.6600375033   -1.6223975359    0.9591627099
 C   -3.0743903462   -2.1042309020    0.6927586477
 C   -3.3078397116   -2.9812335091   -0.5553948798
 C   -3.7373411431   -4.0579326924    0.4615640199
 O   -3.4304402872   -3.1911298796    1.5766840001
 H    1.0919040224    1.5125389337   -0.7366514272
 H   -0.0236585121    0.6787668965   -1.8385530424
 H   -0.6489339143    1.8581866235   -0.6728255143
 H    0.6737084193   -0.8244647921    0.0566437863
 H    0.0476038224    0.3544297666    1.2223488510
 H   -0.9518788908   -2.4594696926    0.8347743606
 H   -1.5807922076   -1.2787571971    2.0045433256
 H   -3.7693369942   -1.2598732874    0.7903229287
 H   -4.0814207531   -2.6362901069   -1.2419446757
 H   -2.4012010213   -3.2064308575   -1.1198670641
 H   -4.8004128311   -4.3283533485    0.4389368135
 H   -3.1403292786   -4.9773510646    0.4830892862