13

 N    0.0461747919    1.3836069143    0.0173545275
 C   -0.0227774398    0.0103131462    0.0307056333
 C   -1.1528314431   -0.7229711779    0.0949533657
 O   -1.1210121577   -2.0989776998    0.1696365474
 C    0.0858094364   -2.6786110268    0.1775628909
 N    1.2220086036   -2.1023925099    0.1065650517
 C    1.2665875130   -0.7051332391    0.0080666757
 N    2.3462719467   -0.0281184846   -0.1095669634
 H    0.9566513820    1.7140163359   -0.2771392325
 H   -0.7410560850    1.8904701780   -0.3551326966
 H   -2.1645031212   -0.3439558305    0.1058049520
 H   -0.0024945179   -3.7582777276    0.2529301013
 H    3.1479116611   -0.6597079383   -0.1185990130