16

 O    0.0160197678   -0.0187949493   -0.0905767610
 C   -0.0140766312    1.1859962908    0.0258516414
 N   -1.1378773919    1.9610241367    0.1410669866
 C   -0.9000076713    3.4219794562    0.0692398583
 C    0.0002989749    3.7383472973    1.2668721920
 C    1.1119437432    3.0107985729    1.2550750521
 C    1.2423402717    2.1117081758    0.0272913594
 C    1.0438289033    2.9732565010   -1.2239402933
 C   -0.0752853544    3.6906860694   -1.1979852550
 H   -2.0107587403    1.5755949447   -0.1819908213
 H   -1.8560814942    3.9417165287    0.0930400350
 H   -0.2947699955    4.4478498215    2.0283159222
 H    1.8731197103    3.0054957698    2.0246882939
 H    2.1398419098    1.4992652926    0.0099862335
 H    1.7612820710    2.9437225213   -2.0336194359
 H   -0.4122314133    4.3786131705   -1.9626328578