18

 C    0.1249565184    1.4904610143   -0.0941405387
 C    0.0127467010    0.0004312051    0.0430082863
 C   -1.0966461929   -0.6887779210   -0.2454116612
 C   -1.1428693759   -2.1601742241   -0.0655738172
 C   -0.7175461167   -3.1228716483   -1.1464876622
 N    0.1386781126   -2.8461501642   -0.0044196916
 C    1.3138585476   -2.0982699196   -0.1646368920
 O    2.2588953380   -2.4877065806   -0.8068734525
 C    1.2484215411   -0.7456360985    0.5331986276
 H    0.9080343000    1.7599407992   -0.8138982375
 H   -0.8152939064    1.9393336937   -0.4247021105
 H    0.4095446538    1.9501943524    0.8609520497
 H   -2.0011006361   -0.1839159558   -0.5735893272
 H   -1.8847365095   -2.5304671651    0.6435796844
 H   -1.1554632361   -4.1165671996   -1.1848934118
 H   -0.4079329301   -2.7110215816   -2.1029663594
 H    2.1661178581   -0.2005146930    0.3024862737
 H    1.2049978930   -0.8776870032    1.6224765900