21

 C   -0.0060385966    1.5057281162    0.0015333457
 C    0.0159424462    0.0496026384    0.0100855355
 C    0.0388598038   -1.1547797133    0.0102044485
 C    0.0496652196   -2.6140350918    0.0353706204
 C    0.7121605782   -3.1730818582    1.3161192989
 C    0.6306132504   -4.7007562868    1.3308369843
 O   -0.7040131693   -5.1632867678    1.2188177426
 C   -1.3137379982   -4.7378899402    0.0125908301
 C   -1.3701918557   -3.2128509245   -0.0956916612
 H    0.5666473780    1.9089339321   -0.8411892838
 H   -1.0292872005    1.8888183767   -0.0815322220
 H    0.4260874360    1.9166687143    0.9208199949
 H    0.6387756244   -2.9718519284   -0.8234577391
 H    1.7569774083   -2.8506598320    1.3762724382
 H    0.1922471370   -2.7720057009    2.1932920845
 H    1.2429973471   -5.1152690097    0.5098147107
 H    1.0168751878   -5.1043571193    2.2713584032
 H   -0.7668667221   -5.1536548975   -0.8528478495
 H   -2.3195226656   -5.1680746712    0.0093228326
 H   -2.0030603832   -2.8139316738    0.7048987517
 H   -1.8208993658   -2.9189896224   -1.0494866162