14

 C   -0.2753991452    1.3962615872   -0.0280777063
 C    0.2166831553   -0.0207935657    0.0214024196
 N    1.1260921267   -0.5545773312    0.7097056953
 O   -0.5091569565   -0.7819585226   -0.8743729283
 C   -0.2580666281   -2.1066392460   -0.9201937341
 N    0.5620193391   -2.6566436147   -1.8020163833
 N    0.3968549156   -3.9379882741   -1.5021801733
 N   -0.4596699011   -4.1786664808   -0.5204994084
 N   -0.8925064690   -3.0057735638   -0.1358428275
 H    0.2960257401    2.0280009894    0.6528371962
 H   -0.1879405782    1.7884595248   -1.0457058753
 H   -1.3341416424    1.4339806100    0.2454211349
 H    1.5696061707    0.1262172469    1.3214175941
 H    0.8803437431   -4.6779900893   -1.9888105637