19

 O    0.0161751133    1.3999274340    0.2066629330
 C    0.0513394478    0.0128289133   -0.0808068128
 C   -1.3468941143   -0.5707327354   -0.1032844796
 C   -1.5635959889   -2.0946532704    0.0485621475
 C   -2.7286106121   -1.6146435349    0.9473459761
 O   -1.9898980562   -0.3756419241    1.2029369284
 C   -3.9280394190   -1.2786787140    0.0850918633
 C   -3.6911877763   -0.4663275426   -0.9445409379
 C   -2.2789903812    0.0297507157   -1.1729132395
 H   -0.4759599665    1.4903678390    1.0318153942
 H    0.5304209362   -0.0980820781   -1.0601716432
 H    0.6544248045   -0.5344970104    0.6595729981
 H   -1.8058691667   -2.6866451588   -0.8350690470
 H   -0.7568753395   -2.5559261918    0.6227341560
 H   -2.9620630745   -2.1517258890    1.8681977230
 H   -4.9068350126   -1.6859296434    0.3132540476
 H   -4.4740084779   -0.1403944458   -1.6231077723
 H   -2.2290588047    1.1234806195   -1.1179367561
 H   -1.9289219713   -0.2475578728   -2.1769493388