15

 O    0.0457268807    0.1146993113   -0.4213032587
 C    0.0841511401    1.3012306237   -0.1938880824
 N    1.2130370236    1.9685746555    0.1854457135
 C    2.6209269236    1.5482544620    0.0478481893
 C    3.0067412171    3.0378261723    0.0166099231
 C    2.2777199907    3.7730350715   -1.0985592368
 C    1.9942188653    3.1737201640   -2.3733783851
 N    1.7618067147    2.6819726245   -3.3941333307
 C    1.5368361236    3.3766696149    0.1735137264
 H   -0.8003151715    1.9694424221   -0.2208520836
 H    2.9861300185    1.0264019011    0.9358648774
 H    2.8281544212    0.9566805980   -0.8475684309
 H    3.8654816222    3.4775619359    0.5026901684
 H    2.5203969065    4.8307995239   -1.1453783091
 H    1.0255091337    4.1003742993    0.7962730292