20

 C    0.2968007029    1.3710054980    0.1191539013
 O    0.5865286051   -0.0258601595   -0.0074481335
 C    0.0870543604   -0.6171772598   -1.1165974028
 O   -0.5569855868   -0.0223747212   -1.9428380987
 C    0.4705583587   -2.0746582001   -1.1655317124
 C    1.0309972870   -2.6776210538    0.1087130414
 N   -0.4377505952   -2.8916386928   -1.9983031521
 C    0.9218239287   -2.6577420535   -2.4812638422
 C    1.0876997952   -1.8868118914   -3.7673913760
 H    0.7110263631    1.9289095680   -0.7245208728
 H   -0.7825155814    1.5392654353    0.1516889283
 H    0.7621489964    1.6872844717    1.0528842220
 H    0.3042405644   -2.6225461562    0.9254600227
 H    1.2831344837   -3.7302376956   -0.0557745347
 H    1.9333686417   -2.1560050089    0.4365312936
 H   -0.5234614520   -3.8154928404   -1.5807879157
 H    1.6350040271   -3.4733911847   -2.3533257247
 H    0.3550035809   -1.0829381780   -3.8327222389
 H    2.0951969382   -1.4622008950   -3.8364024513
 H    0.9480651518   -2.5593949222   -4.6206698133