25

 C    0.1302391163    1.6230495112    0.0193040889
 C    0.0087274805    0.0961332428    0.0110677374
 C    0.6187207824   -0.5380823326   -1.2452858062
 C    0.6153346031   -2.0791350390   -1.2770400251
 C   -0.8111030058   -2.6492322860   -1.3004443667
 C    1.4524120573   -2.5742439279   -2.4713105103
 C    1.7157340239   -4.0953140230   -2.4804818083
 C    2.5813207677   -4.5090117261   -3.5783619414
 C    3.2957323588   -4.8234411623   -4.4927331884
 H    1.1789028493    1.9374695300   -0.0270909399
 H   -0.3837944259    2.0654507577   -0.8413626559
 H   -0.3071266946    2.0543392480    0.9252085791
 H    0.5053865291   -0.3150838131    0.9003308508
 H   -1.0486013757   -0.1796728980    0.0979090323
 H    0.0931221325   -0.1602359089   -2.1346073679
 H    1.6563236911   -0.1901925858   -1.3400987852
 H    1.1079269296   -2.4307121971   -0.3570816575
 H   -0.8153564822   -3.7430946479   -1.2854683827
 H   -1.3927266957   -2.3167042825   -0.4364157666
 H   -1.3420263939   -2.3264928869   -2.2044679193
 H    0.9593626028   -2.2932807081   -3.4106498846
 H    2.4212606386   -2.0620051568   -2.4688448338
 H    2.1723063059   -4.3903353173   -1.5259036315
 H    0.7694480632   -4.6450389293   -2.5462937759
 H    3.9259477619   -5.1134462611   -5.2962574713