16

 C    0.0268206230    1.5947096118    0.0381973277
 C    1.5517396495    1.7970703976    0.0121999569
 O    1.9920148709    0.8554175736    1.0400916451
 C    1.5667911584   -0.1654692509    0.1005248194
 C    2.0566484254    0.7580400070   -1.0265984422
 O    1.4635060363    0.6414084300   -2.3120973106
 C    0.3144093320   -0.0939690639   -2.3474515724
 N   -0.4072350191   -0.4483623525   -1.3721143027
 C    0.0340447407    0.0321136482   -0.0593513354
 H   -0.3901918287    1.9623198750    0.9779240172
 H   -0.5023426381    2.0578030576   -0.7970701435
 H    1.9684900678    2.7980588191    0.1167153576
 H    1.9548934541   -1.1632397662    0.2931403040
 H    3.1378444549    0.7734248246   -1.1509369332
 H    0.0644822149   -0.3557105671   -3.3724434514
 H   -0.5543840921   -0.4520914539    0.7189967234