17

 O   -0.2681532347    1.2664591289    1.0007023790
 N   -0.0499198243   -0.0728402969    0.6667635684
 C   -0.9995646602   -0.5625860066   -0.0778276026
 C   -0.7619886576   -1.9735630450   -0.3964821626
 C   -1.5987292107   -2.8566967804   -0.9467534203
 C   -3.0410300883   -2.6397592263   -1.3221504981
 N   -3.3275149340   -1.3855349094   -2.0120637247
 C   -3.0667529682   -0.1560127268   -1.4650121648
 C   -2.1121541874    0.2168250264   -0.5837203555
 H    0.5164851603    1.4731631716    1.5184525904
 H    0.2281680946   -2.3105972357   -0.1040728157
 H   -1.2419911581   -3.8741626497   -1.0806259857
 H   -3.3589600738   -3.4451833154   -1.9906296438
 H   -3.6601485572   -2.7248953145   -0.4110057052
 H   -4.1778654044   -1.4180836241   -2.5514489564
 H   -3.7276405540    0.6208009766   -1.8426870040
 H   -2.1106560521    1.2586569874   -0.2967558183