19

 C   -0.5008085068    1.3766602446   -0.0227684346
 C    0.2335808850    0.0539099888   -0.0758368762
 O    1.5644011751    0.1588918862   -0.6266274347
 C    2.0856291902   -0.7628539315    0.3491557363
 C    0.8053836916   -0.6222725447    1.2182710296
 C    1.0298926782    0.3297093476    2.4086100801
 O    1.8661653874   -0.2514535027    3.3878142422
 C    0.1614207617   -1.8410909323    1.6717488530
 C   -0.3666746086   -2.8391598504    2.0889588651
 H    0.0492281822    2.1303962502    0.5452810726
 H   -0.6361800406    1.7543202355   -1.0411930326
 H   -1.4920670356    1.2465577169    0.4237132401
 H   -0.3578038020   -0.6765224773   -0.6470857542
 H    2.2310776575   -1.7671858493   -0.0671322587
 H    3.0130004759   -0.4118570167    0.8111380785
 H    1.5478541407    1.2272781298    2.0599614083
 H    0.0595895955    0.6339365350    2.8282627432
 H    1.4414971719   -1.0680486144    3.6774425508
 H   -0.8377669392   -3.7276774352    2.4311319010