21

 O    0.0966672081    1.4351531906   -0.0325473633
 C    0.0213481255    0.0258630828    0.0532337450
 C   -1.4101274863   -0.4391899077    0.0594835714
 C   -2.4388417841    0.4088881504    0.1127628425
 C   -3.8873247766   -0.0088466274    0.0875167179
 O   -4.6675707152    0.8831186598   -0.7093673932
 C   -4.0469526592   -1.4661510156   -0.3616927786
 C   -3.0294143846   -2.3649443750    0.3478543806
 C   -1.5948056544   -1.9391706200    0.0035196397
 H    1.0182005680    1.6913141368    0.0595114531
 H    0.5449032925   -0.4553261597   -0.7932358723
 H    0.5174646040   -0.3467477999    0.9675512105
 H   -2.2529335682    1.4769620447    0.1655842589
 H   -4.3138408476    0.1035363053    1.0946025246
 H   -4.2493385589    0.9263643571   -1.5767058324
 H   -5.0736221501   -1.7987948561   -0.1802269391
 H   -3.8830953987   -1.5134551884   -1.4476804411
 H   -3.1779939494   -2.2931709351    1.4331373111
 H   -3.1856366440   -3.4151146116    0.0795504209
 H   -1.3291857744   -2.2972620214   -1.0030853386
 H   -0.8807598465   -2.4269857496    0.6812615927