16

 C    0.0536430859    1.4878285544   -0.0815762828
 C   -0.1739172205   -0.0151870996   -0.2220732825
 C   -1.4261456954   -0.4999425779    0.4640232456
 O   -2.2186428744    0.1943476842    1.0529499604
 C   -1.6752237494   -2.0175012015    0.4941840908
 O   -0.9874494743   -2.7620245542    1.1522535835
 C   -2.8749119088   -2.5103196262   -0.3329136947
 N   -3.2311236854   -3.7773631142   -0.0338417892
 O   -3.3708470079   -1.7910541272   -1.1775639436
 H    0.9583800490    1.7898125903   -0.6153137257
 H   -0.7925079083    2.0481696894   -0.4867526647
 H    0.1609766753    1.7693210723    0.9690091856
 H   -0.2573160880   -0.3147862470   -1.2773083068
 H    0.6647639143   -0.6010723954    0.1778094747
 H   -2.6807585572   -4.2958038715    0.6319580769
 H   -3.9569473349   -4.2340891158   -0.5603785878