22

 C   -0.0795915405    1.5518841158    0.3624502382
 C    0.0758461503    0.0498174595    0.2608336671
 N    1.3064327869   -0.6123527723   -0.1913652086
 C    2.4778229642    0.1751028748   -0.5414263885
 C    0.9038935330   -0.7524479252    1.2100847001
 C    1.6930924729   -0.1635500860    2.3870254479
 C    1.4582951300   -1.2091000501    3.4924024979
 O    1.2792678364   -2.4424967887    2.8149644095
 C    0.4812388351   -2.1503427762    1.6779808113
 H    0.7840104894    2.0440257128    0.8142440660
 H   -0.2377397769    1.9933804923   -0.6277241764
 H   -0.9560730220    1.7946815405    0.9731028842
 H   -0.8177940584   -0.4378999270   -0.1339274657
 H    2.6657804325    1.0576249071    0.0875720838
 H    3.3623589120   -0.4679313196   -0.4859376207
 H    2.3781799128    0.5145727159   -1.5774797822
 H    2.7586324121   -0.1036458664    2.1432860069
 H    1.3622417791    0.8340361783    2.6856373087
 H    2.2990710905   -1.3190989530    4.1816324115
 H    0.5592476716   -0.9539093552    4.0787496178
 H   -0.5891249922   -2.1599389643    1.9471128060
 H    0.6617757011   -2.9097087833    0.9140803651