23

 C   -0.0961667607    1.5280526599    0.0066512711
 C   -0.0372151360    0.0199569427    0.0806536729
 C    1.2647171613   -0.6935812919   -0.2225762393
 C    0.6978507012   -0.7438681927    1.1797870171
 C    1.4277179993   -0.0852032331    2.3283026587
 C   -0.0987534437   -1.9892830441    1.4694825441
 C   -1.4734021339   -1.7876698679    2.0573595934
 C   -1.3146562330   -2.0012970356    0.5702437617
 C   -1.3062507799   -0.7514022364   -0.3083660108
 H    0.8414197346    1.9923931511    0.3258000587
 H   -0.2889925129    1.8591578642   -1.0209979039
 H   -0.9000958640    1.9287468810    0.6359467197
 H    1.2407354645   -1.5953733266   -0.8280140715
 H    2.1410679888   -0.0723698162   -0.3832522519
 H    1.9151331596    0.8456403993    2.0240919888
 H    0.7446905889    0.1451769239    3.1538853555
 H    2.2078490903   -0.7471685686    2.7228567908
 H    0.4360708345   -2.9069252434    1.6989269634
 H   -1.8987294381   -2.5975818006    2.6401460500
 H   -1.7448748803   -0.7952619315    2.4065732194
 H   -1.6803891869   -2.9312117353    0.1497979753
 H   -2.1993648554   -0.1350954133   -0.1413574563
 H   -1.3012805780   -1.0139131347   -1.3736210468