21

 C   -0.0628167515    1.5754668709   -0.0922755815
 C   -0.0026886740    0.0584318589    0.1061752733
 C   -1.3805950250   -0.5955601339    0.0804956210
 O   -2.0393406496   -0.3667711083   -1.1890177548
 C   -2.3113738833   -1.6785695215   -1.6349054304
 C   -2.7864657388   -2.5743668692   -0.4522170625
 C   -2.1045562233   -3.7879803753   -1.1213928854
 C   -1.1109631969   -2.6254734456   -1.3404612261
 C   -1.3992165602   -2.1218647157    0.1184868582
 H    0.9389018757    2.0156200800   -0.0891377687
 H   -0.5417088401    1.8155491137   -1.0452076749
 H   -0.6418398412    2.0559599162    0.7044236272
 H    0.6195292288   -0.3961944122   -0.6740653396
 H    0.4717873625   -0.1782107509    1.0677622187
 H   -2.0072964061   -0.1653298949    0.8761483377
 H   -2.8204021534   -1.6691316063   -2.5983871180
 H   -3.7473642530   -2.5321673556    0.0623776087
 H   -1.7750759008   -4.5873302598   -0.4531272883
 H   -2.5886180104   -4.1994718597   -2.0122124253
 H   -0.1467286395   -2.6477826321   -1.8492381683
 H   -0.9628925599   -2.6376450587    0.9746976590