27

 C   -0.6103427599    1.5742961420   -0.7570315371
 C   -0.2419913741    0.1488579045   -0.3451695486
 C   -1.4441565611   -0.7515404926   -0.0279117277
 C   -0.9801879398   -2.1745779838    0.3027229921
 O   -2.1317788883   -0.1787002202    1.0844136501
 C   -3.5680468834   -0.1276928201    1.1062168119
 C   -4.2024920592   -1.5194337080    0.9476762844
 C   -3.8799632695    0.4307936612    2.4991029749
 C   -4.1063171514    0.8280627271    0.0275054684
 H    0.2865374043    2.1678560231   -0.9598230998
 H   -1.2259148676    1.5835209688   -1.6637526528
 H   -1.1731368965    2.0694370992    0.0379527434
 H    0.3447527213   -0.3305293997   -1.1385661059
 H    0.3995173935    0.1762719098    0.5447803924
 H   -2.1018397913   -0.7811100786   -0.9085456614
 H   -0.3445746183   -2.1602771718    1.1939754139
 H   -1.8225148592   -2.8410256632    0.4984965654
 H   -0.4005564024   -2.5945199338   -0.5264031992
 H   -3.8214670034   -2.2057564129    1.7090906199
 H   -5.2891512894   -1.4519905850    1.0620030453
 H   -4.0034420277   -1.9480762575   -0.0390579435
 H   -3.4047246103    1.4071093470    2.6283915902
 H   -4.9586243996    0.5453826009    2.6421090924
 H   -3.4932190629   -0.2405576506    3.2707765718
 H   -3.8763741079    0.4768867001   -0.9829583925
 H   -5.1951083182    0.9127125442    0.1039784328
 H   -3.6757559879    1.8255121199    0.1496005994