19

 C   -0.0319601630    1.5837144583   -0.0153180523
 C    0.0313105111    0.0796411131   -0.1533156897
 C    0.6531085654   -0.6689083224   -1.2659559515
 C    1.9125530464    0.0218130629   -1.8051659491
 C    2.4330274660   -0.0142838524   -0.3436480477
 N    1.2165434999   -0.7552246122    0.1506568014
 N    2.6785903616   -0.7632942212   -2.7440700886
 C    3.0992616288   -0.2888513931   -3.9502261054
 O    2.8983641618    0.8284492747   -4.3747033486
 H    0.7775796669    2.1057024058   -0.5291683594
 H   -0.9747463302    1.9486415879   -0.4353591184
 H   -0.0049751719    1.8724346187    1.0409032171
 H   -0.8510470232   -0.4138378323    0.2519491074
 H    0.1748108626   -1.5161904707   -1.7503825392
 H    1.7716520297    0.9967016781   -2.2739972440
 H    3.3136862696   -0.6515028831   -0.2320908940
 H    2.6251983098    0.9409951920    0.1535731176
 H    2.9051565779   -1.7166902591   -2.5041499222
 H    3.6625828107   -1.0580943452   -4.5146273734