16

 C   -0.2062187838   -1.2311334866   -0.3348156295
 C   -0.1092016672   -0.0616490575   -0.0734557685
 C    0.0135006523    1.3548366722    0.2228774257
 O    0.1245497372    1.6514252742    1.6350953868
 C    1.3006203090    2.4644085402    1.4268164415
 C    1.3748889768    2.0667809177   -0.0614765146
 C    2.5377425660    1.1488163174   -0.4530338547
 C    3.8115511534    1.8654430024   -0.4542009310
 N    4.8067944312    2.4525748485   -0.4458313705
 H   -0.3034466279   -2.2654361154   -0.5582899741
 H   -0.8348634769    1.8950156618   -0.2192934354
 H    1.1028784824    3.5262616332    1.6126751531
 H    2.1390373395    2.1406656090    2.0538061183
 H    1.2981603315    2.8959223788   -0.7660173371
 H    2.6034959704    0.3043854903    0.2414581859
 H    2.3671843761    0.7219358937   -1.4473451660