12

 O    0.0146125500    0.0108389510    0.0040937051
 C   -0.0385865381    1.2057562806    0.0103242893
 C   -1.1901440799    2.1696760969    0.0298105058
 C   -0.5833987544    3.3691994974    0.7732751865
 O    0.7563293944    3.0530664784    1.1400461101
 C    1.0981056735    2.2723639581    0.0015399103
 O    0.7279526103    3.0644649943   -1.1200859692
 C   -0.6021348718    3.3766528735   -0.7166430076
 H   -2.2320956984    1.8923479558    0.0415852513
 H   -1.1100892378    4.0247241017    1.4495088812
 H    2.1410987577    1.9765807196   -0.0130443395
 H   -1.1455921457    4.0388394827   -1.3728220132