15

 C   -0.0483448171    1.5084510865   -0.0037753095
 C   -0.0150902237    0.0054412901    0.0292168688
 N   -0.2372219255   -0.6209400096   -1.1379791371
 C   -0.2181856683   -1.9470645561   -1.1607051153
 C    0.0223626368   -2.7392339137   -0.0275465766
 C    0.2535761821   -2.0862766528    1.1874898511
 C    0.2336140885   -0.7010198135    1.2108545685
 C    0.0284154892   -4.1632196461   -0.1239130177
 N    0.0325098636   -5.3181719144   -0.2061566995
 H    0.1400789918    1.9418556832    0.9808051834
 H    0.7014625721    1.8866402498   -0.7058571521
 H   -1.0222992003    1.8560423246   -0.3625661244
 H   -0.4014255241   -2.4238957435   -2.1199759634
 H    0.4435517386   -2.6604421624    2.0870439049
 H    0.4091787264   -0.1657632021    2.1370040889