18

 O   -0.0104190438    1.4698400708   -0.0131273462
 C    0.0113746824    0.0580840843   -0.0451000758
 C   -1.3204895191   -0.6882304345    0.0503787090
 C   -2.2155059199   -0.2823679008   -1.0486713528
 N   -1.1709291684   -1.2758302277   -1.3496558418
 C    0.1378845551   -0.5316515851   -1.4757542056
 C    0.3116081867    0.4277991333   -2.6564554108
 C    0.2908438758   -0.2600906396   -3.9414774709
 C    0.2778417400   -0.8413634054   -4.9930957255
 H   -0.2116612030    1.7549740899    0.8842759355
 H    0.7711581515   -0.3411040533    0.6382261339
 H   -1.6442569746   -1.2992453543    0.8868579155
 H   -3.2102212453   -0.7159086560   -1.0666558089
 H   -2.1526086613    0.7261527951   -1.4457204137
 H    0.9259825669   -1.2869642173   -1.5178350439
 H   -0.4514290400    1.2118348718   -2.6353236278
 H    1.2685094225    0.9487922750   -2.5253604133
 H    0.2612348843   -1.3498744561   -5.9247548171