19

 C   -0.3409161988    0.8676887235   -0.6504485915
 C   -0.2727212884   -0.4891688032    0.0517089000
 N    0.6649892159   -0.5046063679    1.1916625474
 C    0.2434485323   -0.2541758638    2.4876381590
 C   -1.2377630691    0.0074651009    2.7056626553
 O    0.9972419100   -0.2434488790    3.4521883073
 C    2.0344257942   -0.7428829257    0.8078443455
 N    2.9349736747   -0.7885388746    1.8091455128
 O    2.3058526989   -0.8947123921   -0.3687055477
 H    0.6423286641    1.1306650437   -1.0457045864
 H   -1.0468286647    0.8211477660   -1.4856613795
 H   -0.6697044950    1.6616422780    0.0279930004
 H   -1.2550706120   -0.7984025244    0.4069931817
 H    0.0811143466   -1.2434236077   -0.6501138440
 H   -1.8261893977   -0.8986103058    2.5284254620
 H   -1.3585744025    0.3047450572    3.7466807183
 H   -1.6274473166    0.7920012310    2.0529262321
 H    2.6377167371   -0.6151031980    2.7612521368
 H    3.8937069409   -0.9205237480    1.5386432008