18

 C    0.1344941837    1.5397346805    0.3341641491
 C    0.0027085331    0.0370598075    0.0319674785
 C    0.7713244987   -0.8210747257    1.0413065665
 O    2.1655132248   -0.4973878209    0.9915520704
 C    2.7878040792   -0.1704453307    2.1405617214
 O    3.9503892090    0.0957587191    2.1908894100
 C   -1.4723459807   -0.3703820300    0.0990326718
 N   -2.1125145446   -0.4524764298   -1.1000021887
 O   -2.0325622395   -0.5826312437    1.1590296718
 H    1.1842926966    1.8416568364    0.3220963042
 H   -0.4005996574    2.1365718291   -0.4099268862
 H   -0.2886506151    1.7671897719    1.3174573601
 H    0.4045003833   -0.1645698302   -0.9680864286
 H    0.3658729573   -0.6589946255    2.0455183830
 H    0.6705830048   -1.8841935929    0.8012000780
 H    2.1055827008   -0.1765547534    3.0128565315
 H   -1.6486343342   -0.2814180484   -1.9742704044
 H   -3.0951071299   -0.6738917932   -1.1047932886