25

 C    0.5080056838    1.4620594773    0.0321364883
 C   -0.1071231939    0.0619895587   -0.0401769528
 C   -1.6264573602    0.1636914694   -0.1688984309
 C    0.5936101584   -0.8792908296   -1.0739556623
 C    1.2908364175   -1.6767193102    0.0765736213
 C    1.0688005673   -3.1885305155    0.0561951919
 C    2.7831899531   -1.3676964629    0.2221506107
 C    0.3822760898   -0.9035416030    1.0953749801
 O    0.9398963962   -0.3759472888    2.2757276592
 H    1.6026935338    1.4454424937    0.0679931470
 H    0.2302626871    2.0453727710   -0.8527968873
 H    0.1516407025    2.0014765600    0.9162319253
 H   -1.9140645286    0.7096515819   -1.0752543527
 H   -2.0888066310   -0.8280324287   -0.2182330522
 H   -2.0591216212    0.6907667584    0.6896360285
 H   -0.1138813818   -1.4865434646   -1.6460539007
 H    1.2672985024   -0.3850809049   -1.7806081883
 H    1.5974656301   -3.6578124929   -0.7819928361
 H    1.4321935761   -3.6515452077    0.9812092839
 H    0.0058085403   -3.4332068094   -0.0432967600
 H    3.0020728961   -0.2950347174    0.1848701051
 H    3.1734724940   -1.7569240252    1.1686030116
 H    3.3489815409   -1.8335232195   -0.5923358965
 H   -0.4396042126   -1.5413869531    1.4373724098
 H    1.6738994898    0.1981604629    2.0356278473