23

 C   -0.1385145392    1.5587876325   -0.0538071179
 C    0.0565223189    0.0457903466   -0.0005087808
 C    1.0749465185   -0.5781585816   -0.9866585066
 C    2.4273763680   -0.0182398761   -0.4828591284
 C    2.2333397384   -0.0062444811    1.0655084582
 C    0.7915439294   -0.5453611647    1.2272891421
 C    0.1656695060   -0.3964734032    2.5957853848
 O    0.8370125918   -1.9527799438    0.8964885598
 C    0.9900499008   -2.0414344361   -0.5313256323
 H    0.7991665105    2.1121183889    0.0467527703
 H   -0.5945493384    1.8548197126   -1.0045223381
 H   -0.8070020766    1.8936080724    0.7464506338
 H   -0.9203099784   -0.4429700290   -0.0963424642
 H    0.8832457340   -0.4319905717   -2.0514481644
 H    3.2646874087   -0.6472022901   -0.7983292865
 H    2.6141303178    0.9848895263   -0.8753024721
 H    2.9324575834   -0.6645607954    1.5865954435
 H    2.3433010518    0.9976493543    1.4875044713
 H    0.0916068633    0.6584489327    2.8770054259
 H   -0.8364166127   -0.8350146694    2.6102529619
 H    0.7695982857   -0.9083829312    3.3512862332
 H    0.1240246253   -2.5636029255   -0.9613036262
 H    1.8928521728   -2.6169288273   -0.7733314075