14

 C   -0.0672310846    1.5255640297    0.1144966380
 C    0.0023306515    0.0429463628   -0.0265492734
 C   -0.0133301673   -0.7585609602   -1.1571954052
 N   -0.1474392095   -0.3051924854   -2.4910687515
 C    0.0614852990   -2.0818287664   -0.6642311189
 N    0.1181557054   -2.1151641781    0.6654655520
 N    0.0955228618   -0.8202112871    1.0239745443
 H    0.9228532018    1.9912529759    0.2015841293
 H   -0.5560305620    1.9498115395   -0.7672846612
 H   -0.6469270186    1.8206985164    0.9957651621
 H    0.6525504238    0.2388174062   -2.7955053743
 H   -0.2490579171   -1.0826282646   -3.1319951823
 H    0.0638772045   -3.0045827017   -1.2278081359
 H    0.1338199411   -0.5853715071    2.0012242768