18

 C    1.7559404434    1.2504777754    1.6947547775
 O    1.3909803492   -0.1179971642    1.9054601451
 C    0.6376316984   -0.6850863111    0.9328478844
 N    0.2402963602    0.0189551665   -0.0473679869
 N    0.3363831580   -2.0267045539    1.1896724218
 C   -0.7638743855   -2.5893905778    0.4056701797
 C    1.0395033222   -2.9591124383    2.0052365275
 N    2.1822841781   -2.5300653221    2.6097470753
 O    0.6457267703   -4.1064683803    2.0997270640
 H    0.8650884514    1.8799314716    1.6488938765
 H    2.3749780296    1.5189587881    2.5518957051
 H    2.3125230704    1.3630686482    0.7618149074
 H   -0.2889231496   -0.5180298073   -0.7243200071
 H   -0.4766287587   -2.7432174159   -0.6418298963
 H   -1.0163497068   -3.5523023861    0.8413762633
 H   -1.6265251998   -1.9195300318    0.4456935687
 H    2.3495636360   -1.5459298642    2.7295042672
 H    2.5541741833   -3.1815349268    3.2801672170