14

 O   -0.0511716580    1.4244904525    0.0075094984
 C    0.0234249201    0.0106581069    0.0018655640
 C   -1.3767023048   -0.5159895331    0.0118482980
 C   -2.5268626358    0.2037164808    0.0233020143
 O   -3.5921818435   -0.6204781540    0.0296866708
 N   -3.1674108288   -1.9237216934    0.0224994414
 C   -1.8484167588   -1.8671946655    0.0119266611
 C   -1.0286826754   -3.1026446661    0.0017208774
 O   -1.4623301612   -4.2254633849    0.0029869807
 H    0.8435642330    1.7765004717    0.0015243307
 H    0.5566749849   -0.3605821746   -0.8885472064
 H    0.5716864491   -0.3669094294    0.8804076454
 H   -2.7352675412    1.2601358447    0.0280733823
 H    0.0668313403   -2.9062439355   -0.0080456079