25

 C   -1.0283935599    0.9890863259   -0.6465471801
 C   -0.2127036473   -0.0813236950    0.0757364701
 C   -1.1033548423   -1.1285045919    0.7603346857
 O   -1.8143299929   -1.8919246902   -0.1938032071
 O    0.5756838450   -0.7855717515   -0.8929363355
 C    2.0087603398   -0.8226787094   -0.7653774472
 C    2.4381487502   -1.5006875509    0.5454143390
 C    2.4543919435   -1.6667064155   -1.9637504548
 C    2.5977850790    0.5930092423   -0.8702577166
 H   -0.3734784963    1.6815847916   -1.1812624390
 H   -1.7030705128    0.5168433295   -1.3649218107
 H   -1.6309763926    1.5606950733    0.0671242007
 H    0.4251111065    0.3882318181    0.8344414872
 H   -0.4785830315   -1.7718603305    1.4001607356
 H   -1.8443109289   -0.6383730326    1.4018274214
 H   -1.1526732501   -2.1441730424   -0.8510573942
 H    2.0092957385   -2.5046617159    0.6152917928
 H    3.5281720844   -1.5905978586    0.5869369025
 H    2.1234827061   -0.9295419111    1.4238755139
 H    2.1223141477   -1.2038400805   -2.8969978154
 H    3.5438374080   -1.7619556753   -1.9886967171
 H    2.0202484231   -2.6689858531   -1.9057046840
 H    2.2833229011    1.2281796572   -0.0368450952
 H    3.6914684212    0.5529639174   -0.8574963280
 H    2.2815559905    1.0674504690   -1.8035725538