16

 N   -0.3045596685   -1.1237927426   -0.6267744226
 C   -0.1893413390   -0.0098985316   -0.3386005039
 C   -0.0325182667    1.3780153881    0.0519130814
 C   -0.0267056297    1.6909003290    1.5881509401
 C    1.3687166886    2.3658317842    1.4517923986
 O    2.4587400796    1.6793908334    2.0278369639
 C    2.7717069083    0.6209434349    1.1476297515
 O    2.4869884999    1.0800162140   -0.1648125308
 C    1.4230330954    1.9858954183   -0.0594896946
 H   -0.7549553817    1.9879593820   -0.4965555703
 H   -0.8327224503    2.3517290776    1.9102174919
 H   -0.0161182667    0.8068906716    2.2272131258
 H    1.4309633589    3.4153482393    1.7396717541
 H    3.8379283423    0.3956126511    1.2218261825
 H    2.1725111305   -0.2750654931    1.3743949469
 H    1.5394173191    2.7580010538   -0.8204078745