16

 O   -0.0478312189   -0.0793001248    0.1354559029
 C   -0.0502589239    1.1231932686    0.0478814073
 C   -1.3156160063    1.9658346299    0.0638275274
 C   -1.2677365313    3.0516063983   -1.0235538820
 O   -0.0719535308    3.8242305279   -0.9343649763
 C    1.1030632967    3.0653905108   -1.1200602571
 C    1.2338807930    1.9404141307   -0.0642555489
 C    1.1820405047    2.5168944658   -2.4951352167
 N    1.2348079802    2.0936697555   -3.5689149800
 H   -2.1856792858    1.3161713231   -0.0564685646
 H   -1.3806087977    2.4551385665    1.0445224558
 H   -1.3497222582    2.5978997123   -2.0210865663
 H   -2.0868870381    3.7636101655   -0.9055849422
 H    1.9315804015    3.7712695220   -1.0063461359
 H    1.4087703577    2.4291891776    0.9017848646
 H    2.0749034273    1.2785921505   -0.2794583279