18

 C   -0.0091934301    1.5353996008   -0.0484853694
 C    0.0032304907    0.0140352965    0.0363191783
 O    0.6749508149   -0.4625336120    1.1966787943
 C   -1.4203625764   -0.5835256196    0.0046373386
 O   -2.1068974659   -0.1776795785   -1.1823371822
 C   -2.5187566842   -1.2775635308   -1.8905164209
 N   -3.1476161129   -1.1223398546   -2.9792026472
 C   -2.0848257400   -2.4725396694   -1.1413574743
 C   -1.4485865410   -2.0835379753   -0.0374150757
 H    1.0134297449    1.9219512521   -0.0412495028
 H   -0.5111672583    1.8657891274   -0.9606762506
 H   -0.5485067013    1.9659571639    0.8056919335
 H    0.5563364367   -0.4002268618   -0.8142966137
 H    0.3932419677    0.0771521798    1.9435476009
 H   -1.9754139636   -0.1946134651    0.8739830488
 H   -3.3805826184   -2.0303544286   -3.3767574299
 H   -2.2735618698   -3.4804685416   -1.4838515296
 H   -0.9893314529   -2.6943018732    0.7266438820