23

 C   -0.0296628233    1.7201297315   -0.4669420994
 C    0.0950127633    0.2221453810   -0.1607390980
 C   -1.2561170841   -0.4677532134   -0.1693946218
 C   -1.8215273248   -1.1819054338   -1.3589341569
 O   -0.7948343088   -1.8865867805   -2.0671548944
 C   -0.6325751330   -2.7992039395   -0.9401189382
 C    0.8023091730   -3.1008091269   -0.5545364776
 C   -1.5801346347   -1.9578335737   -0.0759919028
 C   -2.5187025946   -2.5342363328    0.9449493732
 H    0.9511598434    2.2056303065   -0.4699917912
 H   -0.4871326708    1.8824663405   -1.4485100951
 H   -0.6512955304    2.2300997563    0.2778307097
 H    0.7385128987   -0.2448434156   -0.9106368712
 H    0.5819397918    0.0861239790    0.8134364747
 H   -2.0296771566    0.0943580613    0.3566459071
 H   -2.7222561151   -0.9244569113   -1.9064070086
 H   -1.1400897759   -3.7416425281   -1.1970259433
 H    1.3357716194   -3.5332906710   -1.4075744377
 H    1.3428534919   -2.2140653772   -0.2216617895
 H    0.8160550749   -3.8383145752    0.2557745534
 H   -1.9995943461   -2.7637644006    1.8837499588
 H   -3.3251933662   -1.8333964573    1.1832945098
 H   -2.9792502419   -3.4616303090    0.5845433292