23

 C   -0.0215446518    1.4580076955    0.0554170352
 C   -0.0011323014   -0.0503403480   -0.0219095270
 C    1.0242091622   -0.7263900122   -0.9406712131
 C    0.3438989236   -2.0514468749   -1.3684364535
 C   -0.7628624669   -2.2680129973   -0.3217302775
 C   -1.7632954175   -3.3592247676   -0.6470183642
 C   -0.1256778721   -2.2996359860    1.1135685411
 C   -0.4125254075   -0.8053935584    1.2363993666
 C   -1.2870420041   -0.8310950432   -0.0085477964
 H    0.9253409969    1.8485038379    0.4470101167
 H   -0.1783821345    1.9036787734   -0.9339030583
 H   -0.8219462646    1.8142808569    0.7123002768
 H    1.2472565740   -0.0905037767   -1.8040286358
 H    1.9756731054   -0.8994398100   -0.4244815164
 H   -0.1075891489   -1.9450832388   -2.3625484456
 H    1.0407089132   -2.8959152852   -1.4134624383
 H   -1.2720962388   -4.3373142415   -0.7115560780
 H   -2.5421719002   -3.4287150272    0.1198238471
 H   -2.2553748785   -3.1711016508   -1.6086905561
 H   -0.7393460112   -2.8826264681    1.8066880873
 H    0.9145422924   -2.6388503373    1.1933908460
 H   -0.5776847070   -0.2664649409    2.1635074589
 H   -2.2781280828   -0.4310986594   -0.1861053055