17

 O    0.2182140715    0.0520988281   -0.0264365209
 C    0.0781299365    1.2402522376    0.0152426498
 C   -1.1127444974    2.1811914428    0.2688458975
 C   -0.0744927254    3.2684667239    0.6831532043
 C    1.0704503434    2.4329790933    0.0506691702
 O    2.2305414190    2.3233028435    0.8207099030
 C    3.2271909218    1.5051143066    0.2094445360
 C    4.4271872563    1.5026307033    1.0328420683
 C    5.4298132462    1.4826800143    1.6930540448
 H   -1.6485882408    2.4175278995   -0.6559705147
 H   -1.8356485093    1.8467412935    1.0154997515
 H   -0.2176520775    4.2716517089    0.2827087457
 H    0.0555280598    3.3201076334    1.7657154062
 H    1.2951091679    2.7646977804   -0.9791084033
 H    2.8503394546    0.4815028625    0.0820695884
 H    3.4651126747    1.8933127175   -0.7955471936
 H    6.3142765087    1.4676637610    2.2806577267