21

 C   -0.1394078337    0.9243227362    1.1367012796
 C   -0.2314548431    0.7943174818   -0.3904734747
 C    0.6498215217   -0.2934507926   -1.0433267556
 C    2.1491881669   -0.0328207688   -1.0677116715
 C    2.7854818709    1.2891612658   -1.0405494592
 O    2.7982712438    0.4488894601    0.1169523355
 C    0.4072874245   -1.6677595450   -0.4428841458
 C   -0.6426337380   -2.5610469712   -0.9455337171
 O    0.7282215611   -2.7831330262   -1.2823314268
 H   -0.4831073416    0.0129740581    1.6363756792
 H    0.8853496709    1.1168210341    1.4587056070
 H   -0.7762803799    1.7438631207    1.4842289329
 H   -1.2706582961    0.5780928029   -0.6671448348
 H    0.0005747546    1.7586521455   -0.8565993700
 H    0.3545457939   -0.3695804600   -2.0995502046
 H    2.7027343898   -0.8336532524   -1.5614565833
 H    3.7505508644    1.4277923763   -1.5263943730
 H    2.1825017661    2.1904366780   -0.9532695847
 H    0.7331395079   -1.7949093396    0.5892396551
 H   -1.0893625296   -3.3037064706   -0.2861485292
 H   -1.2770285146   -2.2318555531   -1.7682735889