19

 C   -0.0146501500    1.5125414566    0.0005982155
 C    0.0303380591    0.0019002211    0.0142778623
 C   -0.8646290807   -0.7745253756    0.9524843757
 C    0.6314240014   -0.8000333398    1.1547011443
 C    1.4611271577   -1.9263228523    0.5378408235
 N    1.4275024511   -1.7942008153   -0.9407123500
 C    0.1341036038   -2.0837436922   -1.5740561568
 C    0.5056047715   -0.6808182375   -1.2576994393
 H    0.9391264048    1.9359673027   -0.3349446417
 H   -0.7979509315    1.8838127778   -0.6705897080
 H   -0.2223981079    1.9076192959    0.9996270104
 H   -1.4421548507   -0.1898565096    1.6627282427
 H   -1.3803775649   -1.6653343575    0.6130533850
 H    1.0329485781   -0.3000393571    2.0308514420
 H    2.5048442173   -1.8257923015    0.8536939190
 H    1.1280112954   -2.9277098685    0.8350598664
 H    0.2059606718   -2.4465376775   -2.5969741578
 H   -0.6428435638   -2.5695123135   -0.9916198493
 H    0.8130381676   -0.0160036861   -2.0618540437