19

 C   -0.0386101916    1.5255378757   -0.1596056741
 C    1.5163061113    1.5336824360    0.0755758051
 C    1.3557316131    0.1879446762    0.8113427912
 C    0.8064272466    0.2279906001    2.2714930590
 C    0.0967466582   -1.1116120069    2.0688807813
 O   -0.8126283957   -0.7686388389    0.9508293028
 C    0.0045424842   -0.0190799977    0.0747847099
 C    1.2574584806   -1.9597121184    1.5496591091
 C    2.0501960211   -1.1504982831    0.8240852609
 H   -0.5836355139    2.0620666955    0.6185565979
 H   -0.3948479186    1.8571631756   -1.1368364400
 H    2.0622870337    1.4331024590   -0.8667731548
 H    1.9412822047    2.3674217744    0.6386864885
 H    1.6098613341    0.2016533113    3.0092608752
 H    0.1164583377    1.0462430602    2.4861335783
 H   -0.5171104707   -1.5270951450    2.8653039377
 H    0.1106657098   -0.5428279083   -0.8820421865
 H    1.3445667150   -3.0319639591    1.6676185347
 H    2.9126426005   -1.4301558766    0.2314518040