17

 O    0.0706947514    0.0076054936   -0.0565930409
 C    0.0371666084    1.2539766585    0.0106622476
 C   -1.0664774646    2.1713710190   -0.0431623967
 H   -2.1193555655    1.9623375452   -0.1458899868
 N   -0.6207980506    3.4976519720   -0.0305084980
 C    0.7236435890    3.4953806710    0.1406472680
 C    1.1682205919    2.1833554655    0.1507595381
 C    2.6398730467    2.1310828125    0.0747727549
 N    2.9418380115    3.5587013807   -0.4898104491
 H    3.8775155793    3.9010149675   -0.2518858930
 H    2.8585391606    3.5045195626   -1.5045406115
 C    1.8158354901    4.4836517711    0.0308784644
 H   -1.2254661375    4.2941376524    0.0683761739
 H    3.1998864212    2.0826107482    1.0224465289
 H    3.0652919091    1.3944460706   -0.6143949054
 H    1.6838631223    5.3107665127   -0.6758826102
 H    2.2103151067    4.8992625167    0.9736411458