17

 O   -0.5101437359    0.5989570144    0.6723513325
 C    0.0627268738    1.0516608877   -0.2878026106
 C    1.2485924746    1.9843061458   -0.2094095920
 C    1.4304081512    3.0456274123   -1.2968000192
 C    0.5036835368    4.2069039660   -0.9856713348
 O   -0.6294621600    3.9626428085   -0.1797508891
 C   -0.1394495144    3.6383903956    1.1337142733
 C    1.2740163925    3.1266156311    0.8727796079
 C    1.7806755811    4.0951909769   -0.2323283747
 H   -0.2488513193    0.7819582625   -1.3238392199
 H    2.1510375896    1.3669112313   -0.1243174984
 H    1.8727371322    2.8987306948   -2.2754925565
 H    0.3477885608    4.9647458739   -1.7435896137
 H   -0.1237714206    4.5373903876    1.7675608834
 H   -0.8042606604    2.8912943084    1.5702406965
 H    1.8846932984    2.9588712894    1.7573741253
 H    2.5841871097    4.8167202438   -0.1789331700