14

 C    0.7230069887    1.4802394625   -0.0531356984
 N    0.8881675831    0.0544630400   -0.2517115748
 C   -0.0251815246   -0.6977572525   -0.9122531001
 O   -1.0621393374   -0.3052093888   -1.4076781466
 C    0.3883126838   -2.1414552067   -0.9775856172
 N    1.4683114141   -2.6844475633   -0.4897685581
 C    1.3051812946   -3.9969299191   -0.8478912152
 N    0.2076448844   -4.2534587028   -1.5090383505
 O   -0.4108252798   -3.0075943038   -1.5975141291
 H    0.6951080036    1.7285249924    1.0131241316
 H    1.5379407378    2.0406943588   -0.5234967490
 H   -0.2222950909    1.7703437672   -0.5129096537
 H    1.7050298847   -0.4194913924    0.1040816522
 H    2.0146446180   -4.7768500014   -0.6138098708