18

 O    0.1637122508    1.3768339270   -0.0035105992
 C    0.0171153457   -0.0225098167    0.1665168400
 C   -1.4037124930   -0.4942053720    0.1663796067
 C   -2.5106972003    0.2538435246    0.1473906362
 C   -3.7284039805   -0.6037776542    0.0303339037
 N   -3.7456327698   -1.4008569143   -1.2393509196
 C   -3.2584618124   -2.0053717393    0.0232239676
 C   -1.7266000020   -1.9896292829    0.0687211298
 O   -1.1419073880   -2.5933319505   -1.0752059014
 H   -0.2060854899    1.5990170702   -0.8645900538
 H    0.5748113000   -0.5927845111   -0.5931577512
 H    0.4882395323   -0.2565509788    1.1309560177
 H   -2.5364833638    1.3362179548    0.1734590999
 H   -4.6780620734   -0.3068564024    0.4612397172
 H   -4.6924911498   -1.7341527990   -1.4131125488
 H   -3.8142033152   -2.8231478838    0.4667901067
 H   -1.3409482065   -2.5469418437    0.9308554950
 H   -1.6686755444   -2.2643516982   -1.8184177966