22

 C    0.1344305609    1.6197202383    0.0187727275
 C    0.0069340197    0.0912932162   -0.0171394042
 C    0.6860884086   -0.4863674122   -1.2633061979
 C    0.4850600311   -1.9848852226   -1.4358218442
 O    1.1244346973   -2.8003297478   -0.4493088583
 C    0.5705687556   -2.8631061666    0.8105705362
 C    0.4019135878   -4.2938109928    1.2391678759
 N    0.2761105048   -1.9045630830    1.5787056412
 C    0.5851003603   -0.5147731515    1.2757273993
 H    1.1852967696    1.9256605356    0.0859731712
 H   -0.2850398973    2.0733844078   -0.8849945946
 H   -0.3906090270    2.0417620106    0.8815014281
 H   -1.0614359904   -0.1662365188   -0.0549856597
 H    0.2910306700    0.0032064005   -2.1633933169
 H    1.7625952677   -0.2706861591   -1.2330397009
 H   -0.5887228482   -2.2202812614   -1.4513652063
 H    0.9151838999   -2.3170350457   -2.3850133121
 H    1.3589383876   -4.8189407604    1.1490819793
 H    0.0509430858   -4.3413365711    2.2692275223
 H   -0.3049353644   -4.8106200508    0.5806026986
 H    1.6796720074   -0.3903879319    1.2547034528
 H    0.2245214533    0.0774972969    2.1236821527