16

 O    0.0045795189    1.2716301742    0.1424099882
 C    0.0524269607   -0.0667405288    0.0322020451
 N    0.1491210138   -0.7468666926   -1.0903644071
 C    0.0691039742   -2.0484069988   -0.6523589073
 C   -0.1041314627   -2.1535368907    0.6896778967
 C    0.1411586774   -3.5533389785    1.1519141388
 C   -0.0269607236   -4.2770870988   -0.2292179167
 N    0.3436705967   -3.2774534000   -1.2722323239
 N   -0.0394790147   -0.8328996791    1.1543971355
 H    0.0743448881    1.6157591179   -0.7569258144
 H    1.1571175824   -3.6957758594    1.5511599769
 H   -0.5591985215   -3.9573896906    1.8908388351
 H    0.5992068130   -5.1685792289   -0.3124924063
 H   -1.0781079346   -4.5797414656   -0.3360809796
 H   -0.1355273291   -3.4288586330   -2.1525115735
 H   -0.2593211591   -0.4786046772    2.0693228623