17

 C   -0.1676944947    1.5806997964    0.0858796295
 C   -0.0210854785    0.0946417354    0.0361451666
 C    0.0748971254   -0.6849280027   -1.0750283306
 N    0.0617688975   -0.3456442086   -2.4303258042
 O    0.1902986913   -2.0153479640   -0.7186415279
 C    0.1649432219   -2.0495855385    0.6457231876
 O    0.3374404522   -3.2447469018    1.2564137366
 C    0.0311224665   -0.8027128478    1.1666853195
 N   -0.1214093677   -0.4406885301    2.5194314914
 H    0.6779600015    2.0573627289    0.5984946133
 H   -0.2186358982    1.9876366946   -0.9263984764
 H   -1.0743476966    1.8742931876    0.6277146286
 H    0.8829916319   -0.6899593201   -2.9186916170
 H   -0.7554560369   -0.7083605369   -2.9127338943
 H   -0.3948277085   -3.8329629982    1.0327917925
 H    0.0815753255   -1.2259523285    3.1273079773
 H    0.4889117277    0.3270636844    2.7774995674