21

 C   -0.0144188546    1.4119939376   -0.0960361432
 N    0.0287116585   -0.0201671662    0.1291299133
 C   -1.1855473917   -0.7151357081    0.0312031241
 C   -2.4586935663   -0.1917693321   -0.0206860103
 N   -3.3363057298   -1.2608309783   -0.0366999012
 C   -2.6469160231   -2.4460653098   -0.0100587520
 C   -3.3614435503   -3.7576397735   -0.0393765243
 C   -1.2987472415   -2.1448578825    0.0355320383
 C   -0.1388794756   -3.0908221393    0.0910306270
 H    0.9994916800    1.8182845508   -0.0548472420
 H   -0.4699066759    1.6971266685   -1.0602644458
 H   -0.5984221855    1.8900003312    0.6989796888
 H    0.7627004926   -0.4679160501   -0.4034068595
 H   -2.8146235759    0.8240080161   -0.0311442683
 H   -4.3366088787   -1.1809450442   -0.0635778872
 H   -3.8692134557   -3.9356347683   -0.9965859740
 H   -2.6593120916   -4.5803682656    0.1121456945
 H   -4.1212751908   -3.8273349107    0.7492680904
 H    0.4698312630   -3.0623414095   -0.8241450204
 H    0.5326098280   -2.8503624525    0.9246244113
 H   -0.4653496949   -4.1265819736    0.2199864606