16

 O   -0.0823209848    1.4850407683    0.1486891222
 C   -0.0230849294    0.0847897431    0.0863459652
 C    0.2079012173   -0.7360916022    1.3899590332
 C   -0.9332381080   -0.2355487039    2.2869183956
 N   -1.9262193549   -0.8828960026    1.3595856249
 C   -0.8499545287   -1.7536703944    0.8340569316
 C   -1.3630595391   -0.6385795000   -0.0283191445
 C   -2.2468916152   -0.6563117251   -1.1410244924
 C   -2.9606827522   -0.6588825888   -2.1087545184
 H    0.8032345945    1.8390727285    0.0218843534
 H    0.6394969993   -0.2651640235   -0.7150594402
 H    1.2136215689   -0.9416169776    1.7509004297
 H   -0.9897093875   -0.7523270563    3.2476673060
 H   -1.0467930322    0.8440940088    2.4150066478
 H   -0.9123087385   -2.8264542459    0.7154553578
 H   -3.6033036695   -0.6595532584   -2.9538205218