20

 C   -0.1370589459    1.3103482975   -0.0381998381
 O   -0.0109487573   -0.0919312358   -0.0044941391
 C    0.6595117901   -0.6108318207   -1.1347408007
 C    0.6855391657   -2.1037328644   -1.0291014084
 C    1.2608134990   -3.0050448442    0.0929274967
 C    0.5335985696   -3.9368596898   -0.9034224948
 N   -0.6029487597   -2.9292062977   -1.0385869347
 C    1.2153723749   -3.1506295420   -2.0648119614
 O    0.6479629497   -3.1818527540   -3.3297351219
 H    0.8453101603    1.8083141738   -0.0602383323
 H   -0.7113931811    1.6474610740   -0.9153327059
 H   -0.6659593224    1.6130807841    0.8687129935
 H    0.1440360356   -0.3195118683   -2.0649994961
 H    1.6911775404   -0.2227898595   -1.1929244265
 H    2.3499050276   -3.0868891714    0.1807091621
 H    0.7828762405   -2.8923993185    1.0681807709
 H    0.3388345419   -5.0072106211   -0.8270052660
 H   -1.0819725227   -2.8147686164   -0.1419032946
 H    2.2984239364   -3.2457586995   -2.1590639806
 H   -0.3064939826   -3.1150334662   -3.1686312622