20

 C   -0.4013114868    1.3245348321    0.3521305878
 C   -0.0324929409   -0.0959348634    0.0017560724
 C    0.6387517788   -0.5146981034   -1.2820273072
 C    1.2138410938    0.4160195340   -2.3293238921
 C    2.7329714084    0.1562736574   -2.3759998525
 C    3.3774879346    0.4731997434   -1.0076933824
 C    2.4352434353    0.3277058687    0.1916659853
 O    2.6301403952    0.8900559136    1.2470454040
 N    1.3604850827   -0.5351939743   -0.0128265751
 H    0.2005523472    2.0615147291   -0.1837189917
 H   -1.4556024162    1.5021987852    0.1176412127
 H   -0.2483414710    1.4986166924    1.4209091917
 H   -0.6982650700   -0.8390748922    0.4391315390
 H    0.3923913310   -1.5093059598   -1.6544803038
 H    0.7511892416    0.2267582407   -3.3023514439
 H    1.0258052872    1.4662697005   -2.0807825325
 H    2.8988858632   -0.8953746627   -2.6369331679
 H    3.2085591740    0.7514839730   -3.1617406244
 H    4.2547448349   -0.1589213795   -0.8299355168
 H    3.7375291568    1.5055474854   -0.9670150028