20

 C    0.1127371754    1.5151182339   -0.1054722211
 C   -0.0369664474    0.0335696208    0.0749621348
 C    1.0254488850   -0.9764530464   -0.3037419285
 C    0.5525329998   -0.9079641388    1.1290568126
 C    1.4142003238   -0.6712422810    2.3326367451
 N   -0.7468644349   -1.5782205176    1.2298937557
 C   -1.3849091118   -0.6936016638    0.2402587414
 C   -1.0559042289   -2.8697014981    1.5094880662
 O   -2.1016422452   -3.4096604523    1.2118533727
 H    1.1466086928    1.8330100846    0.0635599729
 H   -0.1591869711    1.8186421385   -1.1233998764
 H   -0.5272703772    2.0703623826    0.5891388966
 H    0.7854956560   -1.8403031787   -0.9189465752
 H    2.0082348686   -0.5513941078   -0.4868342542
 H    2.2085972000    0.0426006885    2.0949005018
 H    0.8256148971   -0.2703522844    3.1638948418
 H    1.8964171121   -1.5949667521    2.6716755970
 H   -2.1670693848   -0.0715244523    0.6876689147
 H   -1.7907228383   -1.2159827897   -0.6319280863
 H   -0.2517400707   -3.3731491960    2.0850564985