18

 C    0.5366865822    1.3370855163    0.0040263232
 O    0.8352228317   -0.0338923529   -0.1254036200
 C    0.0713913854   -0.6695658425   -1.1252398964
 C    0.4134188424   -2.1267096678   -1.1224950957
 C    0.4633735909   -3.0475209078    0.1090967183
 C    1.7020101949   -3.7146626779   -0.5587225707
 O    2.5120956715   -4.5079321130   -0.1760583475
 C    1.5994084603   -2.8248116479   -1.7756383889
 N    0.2298509080   -2.9012358523   -2.3268675413
 H    0.7420072615    1.8886172068   -0.9265721937
 H   -0.5182623780    1.5007945865    0.2747203060
 H    1.1722648993    1.7347346018    0.7983353198
 H   -1.0079875532   -0.5382584265   -0.9299100666
 H    0.2739749752   -0.2489175126   -2.1227947641
 H    0.7703966986   -2.5415196817    1.0284715057
 H   -0.4256362236   -3.6555923073    0.3033814446
 H    2.3899992216   -2.4534235048   -2.4163229351
 H   -0.2141400888   -3.8022509965   -2.1573414375