19

 C    0.0192026664    1.4936153010    0.0218880643
 C   -0.0547650184   -0.0108367795   -0.0121920825
 C   -1.3174826995   -0.7340663720   -0.4711388650
 C   -0.8250174944   -2.1565253535   -0.3004796025
 C    0.6469533307   -2.2775821158   -0.8051253804
 O    0.9605443854   -3.1260890027    0.3387687889
 C   -0.0136206233   -2.2865192429    1.0264548334
 C    0.6171103520   -0.8788965696    1.0355267121
 C    1.1338762238   -0.8718932520   -0.3973957342
 H    0.9966179730    1.8370609110    0.3752989714
 H   -0.1427377447    1.9200107060   -0.9747395600
 H   -0.7419685351    1.9117796439    0.6905162153
 H   -2.1821890096   -0.5036876937    0.1628635209
 H   -1.5791794662   -0.4955029622   -1.5090947428
 H   -1.4747125579   -2.9950573670   -0.5388918217
 H    0.9475304931   -2.6981147819   -1.7637149142
 H   -0.3927682128   -2.7162435272    1.9525608736
 H    1.1753017375   -0.4792084441    1.8712894065
 H    2.0957527300   -0.4667180678   -0.6810400731