18

 C   -0.0109518795    1.5011567733   -0.0099717984
 C    0.0167648111   -0.0085405272   -0.0018879175
 C    0.0584629206   -0.7146501964   -1.2074733434
 C    0.1108865588   -2.1079488748   -1.1921751651
 O    0.1487057776   -2.8466658621   -2.3395770717
 C    0.1197381886   -2.8091641840    0.0103993444
 C    0.0776014737   -2.1102550129    1.2192403169
 N    0.1451596351   -2.7965573074    2.4331398770
 C    0.0223850341   -0.7078464385    1.2013219083
 H    0.9891055549    1.9139175500   -0.1907851782
 H   -0.6650744324    1.8853590294   -0.7991577860
 H   -0.3617966978    1.8997187654    0.9458058828
 H    0.0478423272   -0.1809673053   -2.1546004279
 H    0.1385365458   -2.2468170421   -3.0923645103
 H    0.1606440527   -3.8927769175   -0.0109816461
 H   -0.1783261181   -3.7522442402    2.3971386299
 H   -0.2522754358   -2.3020341439    3.2184260659
 H   -0.0100217867   -0.1644685957    2.1413491594