18

 N    0.1125419686    1.1942683665   -0.3825934013
 C    0.0286664361   -0.0167193385    0.2367275432
 O    0.9257677254   -0.4653915290    0.9300618982
 C   -1.2611805579   -0.7922033365    0.0327508220
 C   -2.0488789129   -0.8529917268   -1.3261233652
 C   -1.9105333241   -2.3827521766   -1.3053723557
 C   -0.4383646537   -2.7358654964   -1.3116616501
 C   -1.0912241078   -2.3100387983   -0.0261464629
 O   -1.1490467106   -3.1197513524    1.0873636741
 H    0.9250600398    1.7657992055   -0.2166314045
 H   -0.6501207819    1.5759471358   -0.9133550751
 H   -1.9427639946   -0.5262026064    0.8478811992
 H   -3.0758130089   -0.4940214227   -1.2333854302
 H   -1.5752352389   -0.3601239430   -2.1823803939
 H   -2.6770288876   -3.0880277672   -1.5995165506
 H   -0.2294140937   -3.7998610846   -1.3489707132
 H    0.2836717364   -2.1104805430   -1.8332003181
 H   -0.3053252739   -3.0124717964    1.5450484540