21

 C   -0.0134484499    1.4790678236    0.0294513543
 C   -0.0030716387    0.0238715300    0.0038715388
 C    0.0026952612   -1.1827104409   -0.0141517163
 C    0.0302336344   -2.6058804505   -0.0564261839
 C    0.7530052284   -3.4339432281   -1.1401780166
 C   -0.4343771609   -4.4454797078   -1.1579303089
 C   -1.1422819339   -3.6305199852   -0.0712200229
 C   -0.2917650257   -3.4659633846    1.1540164487
 C    0.6250818176   -4.5172880257    1.7421766729
 H    0.7048534925    1.8919720115   -0.6880307101
 H   -1.0008679658    1.8789318118   -0.2291782925
 H    0.2512854240    1.8674852243    1.0196889696
 H    0.8396237914   -2.8826763991   -2.0777384758
 H    1.7411896387   -3.8191285799   -0.8708235568
 H   -0.9702435513   -4.4285920480   -2.1089547973
 H   -0.2066233591   -5.4873783971   -0.9111772996
 H   -2.2037545540   -3.4122278347   -0.0535970447
 H   -0.8008346700   -2.8740157458    1.9118027366
 H    1.1335544361   -5.1097177291    0.9776664723
 H    1.3952575384   -4.0535880274    2.3678025251
 H    0.0577767965   -5.2115908470    2.3721260771