16

 O    0.1452762245    0.0260700862    0.2192084164
 C    0.1518901236    1.2108592901    0.3419175056
 O    1.0011258508    2.0068892393   -0.3597846314
 C    0.8762117352    3.3814426750   -0.1772096301
 C    0.0954373711    4.3760257792   -1.0114634055
 N    0.9740106739    5.4624713390   -0.4142014333
 C    0.5427629734    5.4479004569    1.0467862440
 C    1.1723217819    4.0760901941    1.1789163528
 C    1.9941552652    4.3590748289   -0.0505563475
 H   -0.5023870445    1.7866858816    1.0211731145
 H    0.3085545554    4.2823633180   -2.0788943027
 H   -0.9794988216    4.5116519832   -0.8508012625
 H    1.0861021701    6.2244491623    1.5907202623
 H   -0.5345060326    5.5707710707    1.2035811901
 H    1.4498261044    3.4972769386    2.0515968346
 H    3.0452820093    4.3462936769   -0.2973884274