14

 N   -0.5274342820    0.8220510508   -0.9719300451
 C   -0.2517680670   -0.3279143547   -0.2745777171
 C   -0.9839337623   -1.2430196840    0.4315901028
 N   -2.3646097211   -1.3782500794    0.6410946371
 C   -3.3657421805   -0.8337591522   -0.0888240433
 O   -3.2294030692   -0.0997478807   -1.0545556133
 N   -0.1298885034   -2.1518027907    1.0358548248
 C    1.0494051581   -1.7775389264    0.6759099012
 O    1.0599933748   -0.6770368531   -0.1267664929
 H    0.1229574001    0.9955812922   -1.7276225662
 H   -1.5009134434    0.8234611116   -1.2746568546
 H   -2.6104553848   -2.0073391511    1.3914458705
 H   -4.3579253285   -1.1271505983    0.2971436020
 H    2.0042364790   -2.2122760641    0.9190098441