20

 C    0.2112838009    1.6034476615    0.3468632196
 O    0.5600883311    0.2896375048   -0.0342694832
 C    0.6010932012   -0.6225225867    1.0333801406
 C   -0.7587910902   -1.0593826361    1.6041172696
 C   -0.4839416061   -2.4696488556    2.0716395744
 N   -1.1764374988   -3.1231440164    2.8996863515
 O    0.6512204757   -2.9387624010    1.4680363470
 C    1.2059037853   -1.9646168159    0.5584642973
 C    0.8799349662   -2.3349995425   -0.8824932028
 H    0.9029273543    2.0005681956    1.1056677360
 H    0.2739589042    2.2247607260   -0.5492193825
 H   -0.8113098837    1.6608376953    0.7462764234
 H    1.2244015006   -0.2178606326    1.8471318695
 H   -1.1419391348   -0.4462890382    2.4194408391
 H   -1.5079146381   -1.0716579705    0.8040143355
 H   -0.7795766547   -4.0548080918    3.0372717161
 H    2.2888215680   -1.9844565132    0.7105646814
 H   -0.1987719313   -2.3291894368   -1.0633602880
 H    1.3436274214   -1.6216966588   -1.5672681181
 H    1.2606495188   -3.3369143269   -1.0973609064