25

 C    0.0974923894    1.3647666592   -0.1639506429
 O    0.2239977850   -0.0348283899   -0.1423039623
 C    0.5712829090   -0.5362538025    1.1306060633
 C    0.6900113488   -2.0513486366    1.0452434343
 C    1.0617835418   -2.6956013418    2.3872216560
 C    1.1690264830   -4.2043937601    2.2919362092
 C    2.4506218970   -4.8697801617    1.8433998002
 C    1.9657620358   -5.0471024390    3.2634382196
 C    2.7308035456   -4.4652280563    4.4327625244
 H    1.0397274033    1.8668070729    0.1102054666
 H   -0.1721874213    1.6555301278   -1.1824578885
 H   -0.6874625577    1.7174284569    0.5248770678
 H    1.5255961326   -0.0935538772    1.4686497984
 H   -0.1926821818   -0.2503868504    1.8758506948
 H   -0.2638182990   -2.4559861490    0.6852602067
 H    1.4416113981   -2.3048012302    0.2887339039
 H    2.0099985717   -2.2721140292    2.7398537411
 H    0.3090373569   -2.4270268292    3.1418867264
 H    0.2552419647   -4.6726874422    1.9311062453
 H    2.4015881487   -5.7082331105    1.1570401077
 H    3.3142743554   -4.2275541807    1.6933469873
 H    1.5237235021   -6.0168456320    3.4802211810
 H    3.2103524102   -3.5156049974    4.1790803225
 H    2.0754641098   -4.2864050844    5.2929872054
 H    3.5214292007   -5.1513158967    4.7566099618