21

 C    0.0076436189    1.4841073648    0.1385607411
 N    0.0149013579    0.0317189869    0.1004260612
 C   -1.0591716052   -0.5989626735   -0.1061204634
 O   -2.2641494933    0.0413150791   -0.2298067310
 C   -3.2919605405   -0.5638708514   -1.0251392771
 C   -3.3941944814   -2.0571669232   -0.7751803792
 N   -2.0780376856   -2.6227757242   -1.0321675086
 C   -1.0916412177   -2.1228059247   -0.0674720884
 C    0.2742573003   -2.7436701621   -0.3349331617
 H    0.9538534209    1.8519893888   -0.2699891251
 H   -0.8255540795    1.9396561312   -0.4079521565
 H   -0.0466501164    1.8258929207    1.1802381102
 H   -4.2153338922   -0.0433134187   -0.7583666870
 H   -3.0725399435   -0.3836539235   -2.0849405650
 H   -3.7526489651   -2.2341591720    0.2566446982
 H   -4.1262149937   -2.4889821418   -1.4656882105
 H   -2.1058517497   -3.6353793237   -0.9806254779
 H   -1.3984334116   -2.3757573264    0.9693821513
 H    0.6052737912   -2.5091932031   -1.3495540382
 H    1.0123439082   -2.3563536589    0.3670525623
 H    0.2180204780   -3.8329275742   -0.2284188145