15

 N    0.0215984891    1.3868805627    0.0282238216
 C   -0.0970220217    0.0048249128   -0.0022406692
 C   -1.1493260214   -0.8324801861    0.0477291591
 C   -0.6449631309   -2.1857143723   -0.0165959870
 C   -1.4003276173   -3.4129123111    0.0196562065
 O   -2.6103344486   -3.4945803485    0.1057280376
 C    0.7298038196   -2.0534856890   -0.1109550497
 N    1.7439299231   -2.9581252236   -0.2739737789
 O    1.0930725981   -0.7648272313   -0.1021003093
 H    0.5145112169    1.7267556965    0.8479221638
 H    0.4769209669    1.7630819577   -0.7971516272
 H   -2.1859476804   -0.5487669701    0.1246307968
 H   -0.7802193904   -4.3417978792   -0.0364504509
 H    1.5318473788   -3.9060461704   -0.0038367667
 H    2.6515386481   -2.6407147380    0.0338765233