22

 C    0.4913432458    1.5460404721   -0.1745939675
 C    0.0346799179    0.0964998132    0.0315917675
 C    0.3918425646   -0.8396664315   -1.1583433095
 C    1.5191443529   -1.7665637259   -0.6570464800
 C    2.9112976045   -1.4800045631   -1.2365376307
 C    1.5254634240   -1.5747678082    0.8613068088
 O    2.1819058345   -2.2143454118    1.6607497394
 N    0.6809230845   -0.5435183135    1.1700631336
 C    0.4609773972   -0.1194053137    2.5333961607
 H    1.5697905483    1.5932656010   -0.3581264382
 H   -0.0234795318    1.9815776277   -1.0369785749
 H    0.2657511599    2.1694203355    0.6961184202
 H   -1.0518059552    0.1028153182    0.1983864865
 H   -0.4861855545   -1.4217957988   -1.4486226732
 H    0.6951767864   -0.2574692211   -2.0326232318
 H    1.2804959158   -2.8174537168   -0.8479587736
 H    3.1971361985   -0.4326862035   -1.0886604246
 H    3.6583329137   -2.1064419273   -0.7421119843
 H    2.9352861144   -1.6869428147   -2.3108764961
 H    1.0014398712   -0.8120814724    3.1809697457
 H    0.8327037004    0.8965227203    2.7129288025
 H   -0.6074465730   -0.1432993657    2.7821724494