24

 C    1.5535365376   -0.0251773426   -1.8541966901
 C    0.7313560936   -0.1561698751   -0.5837429645
 O    1.4977867599   -0.8507568018    0.3809161508
 C    0.8381332160   -1.0225337083    1.6155932317
 C    1.7499673604   -1.7447915360    2.5952370465
 C    1.1520844316   -1.8250633768    3.9933629071
 C    1.9909199883   -2.5857500908    5.0226809364
 C    2.6715903354   -2.7743298138    2.0538255555
 N    3.1904647534   -1.4658334657    2.5112775956
 H    1.8210320459   -1.0121194973   -2.2422582250
 H    0.9844814482    0.5071337438   -2.6220245190
 H    2.4763249803    0.5289026338   -1.6600048419
 H    0.4506518117    0.8378236267   -0.1973703601
 H   -0.2064868277   -0.7008376557   -0.7827557100
 H    0.5543153812   -0.0399278874    2.0328811769
 H   -0.0950035795   -1.5958247704    1.4793820858
 H    0.9957957306   -0.7968313649    4.3483165715
 H    0.1528296016   -2.2762271116    3.9211907724
 H    1.5644108708   -2.4690191462    6.0233080124
 H    2.0266198596   -3.6576230556    4.8046390548
 H    3.0154000472   -2.2052529168    5.0359082760
 H    2.9703938037   -3.6218048596    2.6628147887
 H    2.6401652423   -2.9598764725    0.9850716059
 H    3.3536659476   -0.8872668353    1.6896802027