19

 C   -0.0037360675    1.4859802887   -0.0425069550
 O    1.1656853928    0.6653903885   -0.0690791252
 C   -0.1125489560    0.0222937797   -0.0078844672
 C   -0.4318725884   -0.7269443529    1.2400803556
 C   -1.6358128141   -1.6509239345    1.2678892609
 C   -0.2527930218   -2.2171074642    1.2874104703
 C    0.4281154366   -3.1392254195    0.2783280562
 O    1.0247558243   -3.9007930500    1.3509822964
 C    0.4236575323   -3.0623229094    2.3615189686
 H   -0.1554850249    2.0540523660    0.8748086750
 H   -0.2202065890    2.0273668955   -0.9626658489
 H   -0.3955858661   -0.4832205352   -0.9338530763
 H   -0.2051257072   -0.1855414304    2.1553392089
 H   -2.2271732362   -1.6918807652    2.1770075249
 H   -2.2156027958   -1.7548682045    0.3547107141
 H   -0.2397724395   -3.7544238497   -0.3391924987
 H    1.1866744959   -2.6724854423   -0.3633630964
 H    1.1781207611   -2.5479329884    2.9714612944
 H   -0.2480349265   -3.6292145622    3.0200652425