16

 N   -0.1038701060    1.4916584648    0.0833475293
 C   -0.0812795059    0.0719332585   -0.0204834438
 C    0.4178037240   -0.7823643353   -1.2112482248
 N   -0.5025179138   -1.8860689878   -0.7825947216
 C   -0.4658186548   -1.8653038492    0.7165165772
 C   -1.3280857734   -0.9154086188   -0.0220395222
 C    0.4495102657   -0.7369121739    1.2086287845
 C    1.8873622270   -0.9377734613    1.3458722897
 N    3.0313391868   -1.0788282375    1.4399208693
 H    0.8049438745    1.8521176483    0.3600437239
 H   -0.3432561413    1.9219860363   -0.8047034981
 H    0.0666696081   -0.3992627904   -2.1736097644
 H    1.4799101147   -1.0438173398   -1.2725285823
 H   -0.7081530630   -2.7850175892    1.2303208009
 H   -2.3991053197   -0.7951984905   -0.1085604750
 H    0.0451014570   -0.3074847042    2.1289080974