21

 C    0.0119441893    1.5433372643    0.0121326872
 C   -0.0018862796    0.0113456920   -0.0000183019
 O   -1.3553550727   -0.4585095068    0.0726950870
 C    0.6812430432   -0.5337504142   -1.2726191111
 C    1.0402427656   -1.9930458380   -1.1820220196
 C    1.0187174042   -2.6823972533   -0.0443832354
 C    0.6202321086   -2.0862980885    1.2822463791
 O    1.4950574669   -2.5049629781    2.3334055571
 C    0.6843546178   -0.5600367237    1.2458786844
 H    1.0330184320    1.9356399628    0.0538953242
 H   -0.4610388514    1.9422067432   -0.8939913403
 H   -0.5418746794    1.9164927912    0.8781293639
 H   -1.8217024935   -0.1390070813   -0.7069256379
 H    0.0179791276   -0.3597548177   -2.1328195729
 H    1.5865433811    0.0530003034   -1.4857694214
 H    1.3378207582   -2.4808129941   -2.1076745296
 H    1.2860132124   -3.7378687127   -0.0381666477
 H   -0.4120601609   -2.3905263758    1.5138083269
 H    1.3854614357   -3.4540954735    2.4484003667
 H    1.7389101904   -0.2637790599    1.2499969452
 H    0.2197145046   -0.1498686295    2.1473695860