20

 C   -0.6480928523    1.4152213908   -0.4323033880
 N   -0.4278309364    0.0045514003   -0.1330384892
 C   -1.2349225406   -0.5861941141    0.9714017309
 C   -0.1332119045   -1.6347775944    1.2662073088
 O   -0.0985600811   -1.4058412320    2.6965498224
 C   -0.3246436771   -0.0635529419    2.1547556437
 C   -0.4479018380    1.0431648550    3.1561037884
 C    0.6165136180   -0.3215474277    0.8900742215
 C    2.0840873053   -0.0756439096    0.7272009322
 H    0.1526004249    1.7735870994   -1.0875729229
 H   -1.5914780344    1.5213855785   -0.9780756861
 H   -0.6891268173    2.0784769521    0.4471598883
 H   -2.3177408794   -0.7146796626    0.9306972604
 H   -0.0089207572   -2.6446138232    0.8791076480
 H    0.4745850319    1.1256715499    3.7403465305
 H   -0.6410210863    2.0036600728    2.6735566191
 H   -1.2699013280    0.8301171122    3.8474078128
 H    2.6216598022   -0.4838588686    1.5889095851
 H    2.4599495428   -0.5596854801   -0.1798923917
 H    2.3074379875    0.9946260133    0.6608891559