11

 C   -0.0038980087   -1.2141574694   -0.0044152015
 C   -0.0039238173   -0.0163059536    0.0020148463
 C   -0.0034707202    1.4578616128    0.0099177869
 C    1.3723554129    1.9872330484   -0.0003761902
 C    2.4904555919    2.4169657472   -0.0087409042
 C   -0.7337159931    1.9580275211   -1.1872417228
 N   -1.2910064771    2.3399005542   -2.1222087126
 C   -0.7106733859    1.9450843591    1.2260988647
 N   -1.2499682883    2.3168531961    2.1755787190
 H   -0.0037005556   -2.2774428486   -0.0101256068
 H    3.4830331512    2.7982036927   -0.0161574487