17

 C   -0.0188734922    1.5479125690    0.0260448477
 C    0.0253358913    0.0426283431    0.0308080337
 C    0.9490219256   -0.8110411481   -0.9127770976
 C    0.6979362771   -1.9531092131    0.1255039093
 C    0.6456450537   -0.8132817375    1.1948246825
 C   -0.7853653711   -2.1934368431   -0.0882557651
 O   -1.4201075821   -3.2049535473   -0.1806867100
 C   -1.2858888761   -0.7072168630   -0.1587427419
 O   -2.3985728612   -0.2906197836   -0.3184099440
 H    0.9781195286    1.9755019736    0.1699896317
 H   -0.4204267325    1.9199663877   -0.9217613258
 H   -0.6715250617    1.9181136807    0.8229155173
 H    0.6377965036   -0.9674809521   -1.9492494325
 H    1.9817317437   -0.4550100358   -0.8773077976
 H    1.3402900113   -2.8251372791    0.2170408364
 H    1.6463267058   -0.4574911930    1.4528074853
 H    0.0547709962   -0.9717866785    2.1011103107