11

 N   -0.0427288854    1.3521850622    0.0100710888
 C    1.2894505037    1.7184584971   -0.0007043881
 N    2.1108282732    0.6992922245   -0.0146681373
 N    1.2565127998   -0.3620774658   -0.0124017367
 N    1.3940497113   -1.7066705335   -0.0216744810
 C    0.1098465932   -2.0717552405   -0.0109665439
 N   -0.8361406743   -1.0761316791    0.0039660288
 C   -0.0490978199   -0.0180408928    0.0023818457
 H   -0.8409145175    1.9623696973    0.0217125392
 H    1.6097068494    2.7473134345    0.0020922096
 H   -0.1632246435   -3.1163670640   -0.0143750751