25

 C   -0.0553750641    1.5668393617   -0.0753646783
 C    0.0507544887    0.0402988564    0.0126850096
 C    0.7309859649   -0.4921501800    1.2904297391
 C   -0.0612937047   -0.1103402134    2.5506972115
 C    0.9472291699   -2.0146630044    1.2125328123
 C    1.7894043613   -2.5028467737   -0.0025632027
 C    2.5270424443   -3.7044209413    0.5358825610
 C    2.4539674378   -3.7797828245    1.8628829179
 C    1.6553290346   -2.6414867581    2.4493329237
 H    0.9295449138    2.0372382393    0.0254151176
 H   -0.4696748632    1.8725853110   -1.0414143116
 H   -0.7023358035    1.9832905301    0.7023738837
 H   -0.9527520975   -0.4020526458   -0.0644300802
 H    0.6058690432   -0.3174005573   -0.8617348228
 H    1.7256503703   -0.0230158356    1.3588940171
 H    0.4302983056   -0.4689287580    3.4593163984
 H   -0.1720783870    0.9731699538    2.6472706980
 H   -1.0679595547   -0.5460422891    2.5235005093
 H   -0.0409116216   -2.4888513723    1.1323557892
 H    1.1698335204   -2.7376426732   -0.8751396713
 H    2.5032110432   -1.7322891018   -0.3337741054
 H    3.0777794922   -4.3867590581   -0.1027211140
 H    2.9358827531   -4.5332526848    2.4766935341
 H    2.3246928441   -1.9174848859    2.9395193916
 H    0.9458831092   -2.9675467150    3.2180436321