16

 O   -0.1908327806    1.3757664618    0.0159083459
 N    0.0216583389   -0.0259232736   -0.0159783860
 C   -1.0839641566   -0.6308455565    0.0752952846
 C   -2.5451322703   -0.2147334691    0.0341454250
 O   -2.8959400566    0.8095429093   -0.8563967752
 C   -2.8628486467   -1.6573738272   -0.4538584320
 C   -1.4186762817   -2.1167372879   -0.0192789752
 C   -0.6549886105   -2.9661597264   -0.9082066581
 C   -0.0360384888   -3.6732966410   -1.6570450013
 H    0.6940300981    1.7221983119   -0.1408255971
 H   -2.9391681486   -0.0332575995    1.0473151770
 H   -2.2392264590    1.5082555249   -0.7447588696
 H   -3.6982340113   -2.1762486576    0.0156432585
 H   -2.9684255172   -1.6681994172   -1.5389551845
 H   -1.4479143308   -2.5550289416    0.9862473499
 H    0.5177688617   -4.2935716403   -2.3172994718