18

 C   -0.0726404675    1.5855126492    0.0421991894
 C    0.0235134869    0.0819092211   -0.0277572797
 O   -1.1163548991   -0.6048618315    0.4297106130
 C    0.6708235793   -0.6683832171   -1.1731440547
 C    1.6298538501    0.0612447992   -2.1122221621
 C    2.9213702165    0.1533792894   -1.2699422424
 O    2.5086060772    0.1163307131    0.1018804556
 C    1.3328419793   -0.6481085388    0.1860703271
 H    0.8769427872    2.0611509094   -0.2080076485
 H   -0.8520765376    1.9602028386   -0.6290325240
 H   -0.3301821816    1.8946120071    1.0627348044
 H   -1.2078182358   -0.4238627632    1.3724041076
 H    0.1452340968   -1.5499710194   -1.5185898187
 H    1.7882826498   -0.5055781849   -3.0333694483
 H    1.2643871310    1.0529863019   -2.3960750946
 H    3.5851472610   -0.6976752034   -1.4842539459
 H    3.4855000816    1.0778769096   -1.4212401954
 H    1.3773034949   -1.5144303403    0.8405615073