18

 C    1.1884731441    1.4125925819    0.1461205448
 O    1.2520359084    0.0059573026    0.0707292446
 C    0.7796215072   -0.4981163079   -1.1579081764
 C    0.7683709450   -2.0070131703   -1.0681665907
 C    1.0090367146   -2.9135611851   -2.2337580668
 N    1.9528466687   -2.8616507466   -1.0201572953
 C    3.0119991417   -2.2101538412   -1.8696103691
 C    2.1050648068   -2.3650447091   -3.1061925664
 O    2.2768653028   -2.3069101836   -4.2890691500
 H    1.7971129968    1.8915470053   -0.6368177965
 H    0.1546207524    1.7789700475    0.0490493352
 H    1.5777677610    1.7032547565    1.1242600630
 H   -0.2517130632   -0.1581844555   -1.3534463537
 H    1.3929540033   -0.1292315643   -1.9932479924
 H    0.0128296376   -2.3778590141   -0.3781725475
 H    0.3632710886   -3.7546613082   -2.4608145728
 H    3.3251020434   -1.2183491716   -1.5376429304
 H    3.8847344407   -2.8643483162   -1.9461699195