21

 C    0.0501103305    1.5637071351    0.0787352069
 C    0.0104068103    0.0370099087    0.0512778934
 C    0.5762440447   -0.4971529330   -1.2875909321
 O   -0.0838272056   -1.6116521933   -1.8692630779
 C   -0.2528116397   -2.7745183348   -1.0608179557
 C    1.0036308790   -3.2100271456   -0.3548336147
 C    1.3730154059   -2.7336535704    0.8346693882
 C    0.5814097900   -1.7184521509    1.6344856219
 O    0.7594803831   -0.3779252108    1.1929984188
 H    1.0725823982    1.9217138499   -0.0815347003
 H   -0.5898373585    1.9802673574   -0.7042928733
 H   -0.2904967397    1.9320288623    1.0491405292
 H   -1.0343961820   -0.2986827206    0.1519511149
 H    0.4823850140    0.2801088202   -2.0517938694
 H    1.6468465281   -0.6913180716   -1.1366470818
 H   -1.0584785298   -2.6114351686   -0.3309000270
 H   -0.5973932441   -3.5462362908   -1.7548375846
 H    1.6632108459   -3.8883450267   -0.8907967418
 H    2.3267620504   -3.0403588284    1.2578636959
 H   -0.4889976055   -1.9725165987    1.6399688085
 H    0.9204916647   -1.7240371494    2.6743608608