19

 O   -0.0516748334    1.3925512286   -0.0442137891
 C    0.0189964294   -0.0164214188   -0.0281245321
 C   -1.2783680213   -0.6116101932   -0.4902399491
 C   -1.7557751144   -1.4993095543    0.3844308746
 C   -0.8840862552   -1.6795209940    1.6132752539
 C    0.2988672421   -0.7255994700    1.3446110117
 C    1.6260841921   -1.2660110812    0.7721762767
 C    1.4140744762   -2.0756712562   -0.4744738738
 C    1.3618889463   -0.5780171678   -0.5742742564
 H    0.8191783341    1.7317883875    0.1910411090
 H   -1.7433475621   -0.3354030680   -1.4298370208
 H   -2.6763131435   -2.0597931374    0.2515057970
 H   -1.4327616080   -1.4325186308    2.5307672063
 H   -0.5556284317   -2.7211825754    1.7234691522
 H    0.4610760334   -0.0007449204    2.1448461907
 H    2.5544129940   -1.3272912186    1.3281994560
 H    2.3122120437   -2.5303308688   -0.8811502790
 H    0.5142175152   -2.6662890169   -0.6194456511
 H    2.0326675133   -0.0173100043   -1.2169115967