19

 C   -0.1601904197    1.3277831481    0.0686198944
 O    0.0646205776   -0.0732023498    0.0774346284
 C    0.6044429337   -0.6066019568   -1.1006500263
 C    1.3373084377   -1.9019619199   -0.7545035495
 C    1.8012321345   -2.5779257372   -2.0434588777
 C    0.5936279434   -2.8748312553   -2.9177718062
 O   -0.2478155133   -1.7298645483   -3.1497929154
 C   -0.4700044608   -0.7928243923   -2.1943846841
 O   -1.4357852021   -0.0856740544   -2.2839859747
 H    0.7686357901    1.8735589276   -0.1610126257
 H   -0.9319159466    1.6078994483   -0.6530681157
 H   -0.4834983740    1.5958429610    1.0772066840
 H    1.3335036348    0.0974072570   -1.5444967358
 H    2.1719611107   -1.6722213363   -0.0866581989
 H    0.6531389509   -2.5572929750   -0.2017362830
 H    2.5020443576   -1.9287323255   -2.5827462515
 H    2.3258723908   -3.5161240595   -1.8345841562
 H    0.8841249652   -3.2196569848   -3.9130214868
 H   -0.0260358704   -3.6554092268   -2.4571277492