17

 C    0.0362271699    1.4560212112    0.0603983052
 C    0.0150825683   -0.0349814437   -0.0153259253
 C    0.0748265309   -0.8041968511   -1.1215619228
 C    0.0173579922   -2.2457304492   -0.7657488380
 O   -0.0353725720   -3.1876619441   -1.5234754268
 C    0.0292676289   -2.3156797313    0.7484325686
 C    1.2402822623   -1.7133563103    1.4478253972
 O    2.4683874962   -1.4765128620    0.8577513039
 C   -0.0067010299   -0.8710651562    1.2254038610
 H    0.9052013596    1.7970161514    0.6366453768
 H    0.0697213576    1.9153003679   -0.9299470557
 H   -0.8507454439    1.8286985178    0.5868293583
 H    0.1457515195   -0.4584689505   -2.1453038978
 H   -0.5029580511   -3.1253192559    1.2315915631
 H    1.3972517095   -2.0554995074    2.4659385340
 H    2.3241739315   -1.1434649010   -0.0372107643
 H   -0.5833612297   -0.5411388257    2.0828234627