19

 C    0.1831007598    1.5555921932   -0.1335626957
 C   -0.0098146500    0.0677146526    0.1763491477
 N    0.6994110356   -0.3770387291    1.3543000240
 C    2.1276639928   -0.5530142742    1.4241614150
 C    2.3242230462   -1.1975572347    2.7802165756
 N    3.5940999398   -1.4350738590    3.2431441701
 C    1.1302036195   -1.3753751758    3.3760239846
 C    0.0616966211   -0.8855092003    2.4843905253
 O   -1.1436431264   -0.9045236617    2.6487400760
 H    1.2346541235    1.7975802763   -0.3224681639
 H   -0.3859298698    1.8344932817   -1.0262707805
 H   -0.1629845548    2.1707521542    0.7020487380
 H   -1.0641637979   -0.1443160882    0.3742283049
 H    0.2936827719   -0.5360192606   -0.6923888578
 H    2.5040716003   -1.2025454608    0.6160160699
 H    2.6794815438    0.3961542511    1.3596220618
 H    4.3115631429   -1.5861578959    2.5504316169
 H    3.6755065505   -2.0491882328    4.0391087193
 H    0.9248209511   -1.8054846161    4.3448386287