19

 O    0.3528149095    0.6119257165   -0.9500469822
 C   -0.2431900912    0.3637491631    0.3150227660
 C   -1.5070248409   -0.4368854037    0.2113784062
 C   -2.0165202019   -1.3335573813    1.3029439961
 C   -1.6795527506   -1.9441410101   -0.0289352889
 C   -2.8165088346   -1.6804979806   -1.0397618150
 C   -2.6376102129   -0.1339779276   -0.7820756470
 C   -2.5192089863   -2.0956724061   -2.3968269779
 C   -2.2441831834   -2.4356514349   -3.5174824840
 H    0.4508635585   -0.2388284535   -1.3922426997
 H    0.4566550200   -0.1436698972    0.9997011210
 H   -0.4471461250    1.3541651495    0.7397506757
 H   -1.3102821224   -1.5529981459    2.0982782005
 H   -3.0508238518   -1.2649434444    1.6341655612
 H   -0.9311959375   -2.7202555757   -0.1375644217
 H   -3.7873208644   -2.0847477402   -0.7296545674
 H   -3.5109223603    0.3908437637   -0.3825851946
 H   -2.2775176978    0.3793934274   -1.6734780899
 H   -2.0189019270   -2.7384555090   -4.5099040682