25

 C    0.1904808913    1.5038531546   -0.2376113697
 C   -0.1527150025    0.0550715473    0.1368308191
 C    0.6643369716   -0.4858725143    1.3047291130
 C    0.3787085817    0.1782233039    2.6416946473
 C    1.0302675767   -1.9700290980    1.3534967154
 C    0.5954447310   -2.9673669171    0.2997693260
 C    2.0838775192   -0.9158496977    1.0549997419
 O    2.5720400806   -0.7790954165   -0.2451858901
 C    3.7239454590   -1.5627510079   -0.4855228898
 H    1.2446966013    1.5836256220   -0.5171589405
 H   -0.4133386779    1.8359996242   -1.0882836097
 H    0.0024027774    2.1986582368    0.5868796481
 H   -1.2179462366   -0.0187860741    0.3948678908
 H   -0.0044473752   -0.5716000174   -0.7448877249
 H   -0.6721387017    0.0434986503    2.9258007877
 H    0.9929392138   -0.2503527513    3.4401259966
 H    0.5812864224    1.2542555899    2.6137116389
 H    1.0695990550   -2.3855611870    2.3583883660
 H    0.8206830921   -2.6150917754   -0.7092309196
 H    1.1165359281   -3.9210611752    0.4385140130
 H   -0.4798066503   -3.1709269021    0.3550026107
 H    2.8308938769   -0.7015212056    1.8227836681
 H    3.5240313093   -2.6354406639   -0.3556237805
 H    4.0315666175   -1.3772985899   -1.5174769344
 H    4.5482247593   -1.2806765857    0.1872640765