20

 C   -0.1370407091    1.5711421059   -0.0335226049
 C   -0.0046537509    0.0533557614   -0.0032943353
 O   -1.2893979659   -0.5241647015   -0.1404789827
 C    1.1739639984   -0.6525523509   -0.7809802152
 C    2.1262561060   -0.1599994031    0.3571130137
 C    0.8436288581   -0.6551251689    1.0982267256
 C    0.9111665466   -1.8619101421    0.1366190250
 C    0.2167843529   -3.1366727855   -0.0093478729
 N    1.6751153766   -3.0810143307    0.3216476873
 H    0.8057077056    2.1026912852    0.0963180979
 H   -0.5582427146    1.8893643638   -0.9963181477
 H   -0.8268370198    1.8937197367    0.7524912619
 H   -1.7486959594   -0.0634237465   -0.8497384689
 H    1.3606370419   -0.6532784573   -1.8573236634
 H    3.0130041078   -0.7724972396    0.5217811018
 H    2.3666131561    0.9014566908    0.4012485147
 H    0.6521779139   -0.6654547091    2.1712873529
 H   -0.4153228766   -3.5178046130    0.7875530997
 H   -0.0761589543   -3.4543680776   -1.0071552166
 H    2.2248116767   -3.2919644879   -0.5086736831