16

 C   -0.0438602591    1.5939968909   -0.0141137649
 C    1.4533691244    1.9092719932   -0.0088807804
 C    2.0738902778    0.7607276588   -0.3514007502
 C    2.4771823815   -0.1849215980    0.7312247114
 O    2.7608610134   -1.4698706056    0.1668999988
 C    1.3931989029   -1.5198495530   -0.2406974310
 C    0.8341986599   -0.6673010905    0.9032092329
 N   -0.0485954802    0.0857202418   -0.0343879863
 C    1.0407490642   -0.2043339834   -1.0133684557
 H   -0.5182996896    2.0068510461    0.8828523599
 H   -0.6307829861    1.9200246637   -0.8805317672
 H    1.8707641661    2.6169157670    0.7016262764
 H    3.1045169328    0.1074796905    1.5702333661
 H    1.0373912369   -2.4902791191   -0.5778958675
 H    0.4742971066   -0.9840251075    1.8809649469
 H    0.8284521584   -0.1239160349   -2.0792707691