17

 O    0.2090066436    1.3823280337   -0.2809664042
 C    0.1715871458    0.0264607938   -0.1361216540
 C   -0.2667428318   -0.8654149655   -1.2712766841
 C    0.5502131169   -2.1240064902   -1.5763192086
 C    0.4665833242   -2.9578536547   -0.2674656923
 C   -0.1038586840   -1.9766055814    0.7742705472
 C   -1.0373373628   -1.0157904911    0.0013385073
 C    0.7902488268   -0.7290752056    0.9763801412
 O    1.4604546303   -0.3324669110    1.8992989277
 H    0.4307888503    1.7487658608    0.5862414944
 H   -0.7167229381   -0.3014092526   -2.0825624455
 H    0.1201207039   -2.6649239545   -2.4244401988
 H    1.5818094800   -1.8719571341   -1.8394232376
 H   -0.2163758465   -3.8049115987   -0.3892499935
 H    1.4364254728   -3.3593386201    0.0389055409
 H   -0.4588013212   -2.4207085735    1.7033750176
 H   -2.0760970402   -0.7895724651    0.1901848023