14

 O    0.0044623571   -0.0122406977    0.0474795001
 C   -0.0141933780    1.1677612139   -0.0532156763
 C   -1.0572220084    2.3220771065    0.0223283712
 N   -0.0266576379    2.9148274667    0.9531544265
 C    0.9961049312    2.3522418030   -0.0046072576
 C    0.6846214297    3.0486636575   -1.3482135490
 N   -0.0583809034    2.1774591338   -2.2908023537
 C   -0.8016706994    3.0268303084   -1.3287153294
 H   -2.0743329913    2.2093447457    0.3914505186
 H   -0.0419115005    3.9357942802    0.9336855261
 H    2.0254188877    2.2695735349    0.3376695729
 H    1.2817826659    3.8735400872   -1.7188388271
 H   -0.0767965552    2.6056487249   -3.2150956810
 H   -1.4323147473    3.8336704049   -1.6832333714