19

 C   -0.1272521738    1.5434434836   -0.0512376651
 C   -0.0048888101    0.0177767675   -0.0096196339
 O   -1.2947035266   -0.5839592440   -0.0071990432
 C    0.8937181606   -0.4969480593   -1.1834099185
 C    2.2240027899   -0.7482251297   -0.5362090857
 C    2.1422688543   -0.7216532348    0.8032221440
 C    0.7354011826   -0.4498111384    1.2724752376
 C    3.2755904923   -0.9551827703    1.6998513103
 O    3.2040843776   -0.9451453267    2.9093230455
 H    0.8580847654    2.0180248543    0.0003995936
 H   -0.6046729533    1.8721716426   -0.9829652088
 H   -0.7288077094    1.8985299348    0.7903482703
 H   -1.8122361310   -0.1876345787   -0.7162457495
 H    0.4741319996   -1.4309829586   -1.5810890178
 H    0.9504406588    0.2086666297   -2.0214206854
 H    3.1335092799   -0.9519443009   -1.0934193856
 H    0.6936331582    0.2867001428    2.0799850026
 H    0.2642929457   -1.3632951924    1.6525010859
 H    4.2424244694   -1.1457987716    1.1810471436