18

 C    0.6495280903    1.3492810131   -0.0923065843
 C    0.0270486063   -0.0414281314   -0.0442925448
 O   -1.3689802734    0.0011574908   -0.2522895785
 C    0.7058179722   -1.0727878038   -0.9816687037
 C    1.5101903792   -1.6500676555    0.2301402894
 C    2.8821010467   -1.1873691212    0.3367616592
 N    3.9764762284   -0.8245665657    0.4304074115
 C    0.4921462678   -0.8935971419    1.1729831179
 O    0.9604274170   -0.1607730844    2.2641376000
 H    1.7362777191    1.3138504584    0.0119916471
 H    0.4006393590    1.8235592455   -1.0463853392
 H    0.2662991177    1.9681435561    0.7260415535
 H   -1.7257556328    0.7514401116    0.2353735276
 H   -0.0185908651   -1.7990113262   -1.3530492006
 H    1.2903374789   -0.6766685557   -1.8122994762
 H    1.4995729868   -2.7384060198    0.3221616382
 H   -0.3118007556   -1.5902003081    1.4447042374
 H    1.2546153975   -0.7636068516    2.9548862557