13

 N    0.0869104232   -1.1062753678    0.0275652703
 C   -0.0012845864    0.0462355018    0.0375779170
 C   -0.0554854446    1.4793287522    0.0271744664
 N   -1.1535403002    2.1516136477   -0.0102731373
 C   -0.7910221058    3.5375093531    0.0032026544
 C   -0.0439579932    4.0625866902    1.2130566030
 C    0.7581846638    3.5953767839    0.0373654018
 N    1.1267608596    2.2031311893    0.0806184904
 H   -1.4335845082    4.2069516971   -0.5561915132
 H   -0.0963230984    5.1342916199    1.3672924230
 H   -0.0372168249    3.4632534420    2.1173345114
 H    1.3879213853    4.2593641814   -0.5410483731
 H    1.9459348100    1.8685281690   -0.4036321040