14

 C    0.0070567468    1.4981308878   -0.0357637412
 C   -0.0014739074   -0.0024911351    0.0508976239
 O    0.0088911975   -0.6547255317    1.0639948053
 N   -0.0240623927   -0.6733834059   -1.2003956107
 C   -0.0359075531   -2.0189986041   -1.4055512307
 N   -0.0563160722   -2.2858445545   -2.6887292930
 C   -0.0562117380   -1.0321502852   -3.2501282108
 O   -0.0741945253   -0.8500127294   -4.5703918847
 N   -0.0373799839   -0.0209718940   -2.4117424486
 H    0.8767528953    1.8405050547   -0.6029593605
 H   -0.8746222314    1.8519099325   -0.5768767356
 H    0.0247104342    1.9021664868    0.9756908980
 H   -0.0286805176   -2.7229795777   -0.5891115465
 H   -0.0858345723   -1.7266358142   -4.9743465950