21

 C   -0.1178136554    1.4453224874    0.1064867086
 C    1.2723296143    0.8439259406    0.0649802152
 C    2.1452782732    0.8569467509    1.3228583623
 C    2.5326813020   -0.5147964896    1.9043784695
 C    1.2992179666   -1.3756773114    2.2511614995
 C    0.7006102938   -2.1979447369    1.0904548998
 C   -0.3078299740   -1.0336576763    1.0028964505
 O    0.0826674223   -0.5751981984    2.3227594612
 C    0.0454115544   -0.0374378947   -0.0759021153
 H   -0.4607882870    1.7857364496    1.0782423274
 H   -0.4697843025    2.0359767388   -0.7323652400
 H    1.8218662060    0.9966354612   -0.8599774863
 H    3.0637002303    1.4126007488    1.1021268016
 H    1.6310228515    1.4123344017    2.1112633189
 H    3.1721345645   -1.0734267382    1.2092220120
 H    3.1328317378   -0.3450180302    2.8060808090
 H    1.4521615118   -1.9227266464    3.1867252772
 H    1.3326789574   -2.3748919699    0.2177891229
 H    0.2512192522   -3.1360351739    1.4223599757
 H   -1.3717460245   -1.2965621551    0.9760797792
 H   -0.1476586249   -0.4237090282   -1.0752926290