15

 O    0.1166846271    0.1073987922   -0.7318818949
 C    0.0417004589    1.1819824613   -0.1896415234
 O    1.0954323244    1.8601479877    0.3061718935
 C    2.3531076984    1.1903440239    0.1809366753
 C    3.0227120856    1.2149768530   -1.2038369017
 O    4.1649743225    1.9182678183   -0.6674045292
 C    3.5296576923    2.0702607155    0.6186958573
 C   -1.1874042571    1.9141589691    0.0137678012
 C   -2.2373931560    2.4800558016    0.1563329857
 H    2.2849272726    0.2039841068    0.6405390531
 H    3.2915710912    0.2445366055   -1.6315860486
 H    2.4774983744    1.8088950410   -1.9474448879
 H    3.2405128153    3.1078190340    0.8260183618
 H    4.1504341809    1.6892655258    1.4364882437
 H   -3.1663932606    2.9809992942    0.2829968242