20

 C   -0.4979931157    1.4423048626   -0.0647236943
 C    0.0399821439    0.0127475435    0.0052869098
 C    1.1292696849   -0.2991078991   -1.0507472199
 O    2.0784573586   -1.1712463918   -0.4432511324
 C    1.5709437219   -1.5997911308    0.8169447596
 C    0.7150783604   -0.4348692250    1.3261053830
 C    1.5796674392    0.6337490765    1.9926919342
 O    2.1381304403    0.0536804874    3.1653139053
 H    0.2993010678    2.1832422565    0.0532804532
 H   -0.9741947733    1.6270767096   -1.0336348332
 H   -1.2488555092    1.6264273829    0.7105587203
 H   -0.7998764280   -0.6722050038   -0.1627780845
 H    0.6978730579   -0.7690963444   -1.9456190950
 H    1.6543391592    0.6099561911   -1.3740751530
 H    0.9613249880   -2.5113199903    0.7056645216
 H    2.4178017545   -1.8236640181    1.4692021906
 H   -0.0242712805   -0.7735430567    2.0591388690
 H    2.3690158708    0.9623182672    1.2990042045
 H    0.9689402089    1.5128064804    2.2461620113
 H    2.7494633403    0.6868600822    3.5520349899