16

 C   -0.3344574148    1.5665578128    0.0832334202
 C   -0.0586601712    0.0654468639   -0.0265019774
 C    0.7109429391   -0.3405131123   -1.3222487125
 C    2.1513175898    0.2172172465   -1.2889860048
 O    2.8290905822    0.1456886753   -0.3003610233
 C    0.8593026211   -1.8865606111   -1.2837010975
 O    0.3930246560   -2.6367389018   -2.0878149799
 C    0.0236642375    0.0898405352   -2.5353480343
 N   -0.4960072658    0.4765572911   -3.4915504647
 H    0.5954801255    2.1421661964    0.1136106886
 H   -0.9347674655    1.9253677624   -0.7574495682
 H   -0.8848018603    1.7743588980    1.0048000462
 H    0.5547161223   -0.2694341791    0.8147370544
 H   -0.9979589187   -0.4961531219   -0.0009523456
 H    2.5234106840    0.6409231743   -2.2420892511
 H    1.4403956888   -2.2207082097   -0.4002441301