19

 C   -0.0297391949    1.4643766043   -0.0784603172
 C    0.0286529771    0.0101874145   -0.0416868175
 C    0.0816916790   -1.1937471803   -0.0173737728
 C    0.1157855997   -2.6473851355    0.0119473327
 C    1.0720791029   -3.2355833528   -1.0313557759
 C    0.1947377919   -3.2343888675    1.4746497357
 C   -1.3287817853   -3.5536440371    1.4612866006
 C   -1.3347154044   -3.2414904766   -0.0388354316
 O   -2.0854337233   -3.4614297560   -0.9402191165
 H    0.7565420019    1.8772277223   -0.7200930742
 H   -0.9922610469    1.8134426036   -0.4685935848
 H    0.0988099646    1.8945164809    0.9209969491
 H    2.0937943459   -2.8863202316   -0.8565662165
 H    1.0645794624   -4.3293554728   -0.9891201835
 H    0.7680357628   -2.9290135379   -2.0353330204
 H    0.8143385297   -4.1331115070    1.5119358213
 H    0.5305776984   -2.5314188054    2.2356655856
 H   -1.6527780697   -4.5592707934    1.7394919139
 H   -1.9285679019   -2.8281860418    2.0199516221