18

 C    0.7495766176    1.6081614815   -0.1324670540
 O    0.7819543183    0.2111408515    0.0390128468
 C   -0.1539264526   -0.4624922071   -0.7674621112
 C   -0.0113196205   -1.9499019877   -0.4841520326
 O   -0.9483619278   -2.6326902815   -1.2905831491
 C   -0.9221366404   -4.0254818447   -1.1252491362
 C   -1.9686435982   -4.6328360715   -2.0432683280
 O   -2.1804246577   -5.8130713348   -2.1236982442
 H    0.9796404541    1.8972822423   -1.1700252515
 H   -0.2337769159    2.0288188260    0.1304410227
 H    1.5057340222    2.0362275710    0.5297738067
 H   -1.1835316888   -0.1387983914   -0.5433078338
 H    0.0259279756   -0.2693451900   -1.8377200655
 H    1.0160229333   -2.2755776423   -0.7103366955
 H   -0.1933021905   -2.1448935241    0.5842647070
 H    0.0626000383   -4.4550492542   -1.3770193411
 H   -1.1451098238   -4.3245457120   -0.0867332145
 H   -2.5269683532   -3.8784345109   -2.6404539759