18

 C    0.6114179941    1.4434591958   -0.2152701903
 C    0.0939545429    0.0275415142    0.0040156100
 N    0.7422448947   -1.0096571829   -0.8602357454
 C    1.2586255039   -1.7903555495    0.2945705043
 C    2.7652122039   -1.9125139971    0.3609976848
 C    3.6083327886   -1.7157372938   -0.8236107452
 O    3.4959839372   -0.7000161891    0.1775933451
 C    0.6472865496   -0.7169075209    1.2314552442
 O    0.6171789629   -0.5477888283    2.4115332988
 H    1.7039606638    1.4430506858   -0.1895393755
 H    0.2857255637    1.8240467051   -1.1880750772
 H    0.2329172729    2.1106014665    0.5653730287
 H   -1.0045748183    0.0033525572   -0.0168959179
 H    0.0822003136   -1.5302417316   -1.4247722609
 H    0.8052812188   -2.7808417356    0.4393087717
 H    3.1322047667   -2.5387834720    1.1748453657
 H    4.5782444913   -2.2072833273   -0.8821790508
 H    3.1252724497   -1.4768527463   -1.7677102501