19

 C    0.4036523975    1.4438273973   -0.1592630123
 C   -0.0760913414    0.0240060257    0.1308881105
 O    0.1334591840   -0.8506137720   -0.9874092245
 C    1.3637428347   -1.5305614313   -0.8124968796
 C    1.4711797843   -1.8063598902    0.6998874911
 O    2.7669800750   -1.6488387997    1.2534404773
 C    2.8705121621   -0.2922770826    1.6151911482
 O    1.5865974338    0.1252430460    2.0307799102
 C    0.6302802725   -0.6645707397    1.3324892255
 H    1.4739003713    1.4734876311   -0.3813504544
 H   -0.1360246893    1.8391452223   -1.0238638035
 H    0.2236349371    2.0950362070    0.7001791569
 H   -1.1591973158    0.0384448088    0.2919823195
 H    1.3329893044   -2.4380385891   -1.4201832512
 H    2.2257233587   -0.9279047322   -1.1395437614
 H    1.1186048338   -2.8055085292    0.9603547941
 H    3.5715653555   -0.1971600886    2.4496582271
 H    3.2177570248    0.3172788346    0.7625198673
 H   -0.0967621128   -1.0171389279    2.0674182491