19

 C    0.0664653482    1.4872961145    0.0464807291
 C   -0.0060788454   -0.0053810799   -0.0151629560
 C   -0.0527122003   -0.7734112601   -1.1094182243
 C   -0.0363096227   -2.2282865637   -0.7929895295
 C    1.1969590115   -2.7253589938   -0.0805188600
 C   -0.0066402798   -2.2993507991    0.7445374791
 C   -0.0306096562   -0.8478066962    1.2480551276
 C   -0.7325260381   -3.2961273895    1.4701398331
 C   -1.3470956148   -4.1181592682    2.0991111024
 H    0.9863558206    1.8235431796    0.5418911335
 H    0.0392980964    1.9323965588   -0.9518135554
 H   -0.7675672514    1.9008157897    0.6281472887
 H   -0.0614002706   -0.4000664922   -2.1278407831
 H   -0.6263052369   -2.9306050216   -1.3707186032
 H    1.4015872540   -3.7899359563   -0.1028929498
 H    2.0729414324   -2.0842133072   -0.0746708198
 H    0.8167481380   -0.6276386467    1.9101068971
 H   -0.9388207966   -0.6573900853    1.8343418193
 H   -1.8875502085   -4.8478574928    2.6487024712