19

 O    0.2439149381    0.0095350848    0.2856678317
 C    0.0152757549    1.1613369007    0.0556746680
 O   -1.2299365802    1.6566218635   -0.0101767077
 C   -1.4163967942    2.8954463987   -0.7277650457
 C   -1.3378527914    2.7079745619   -2.2485652281
 C   -0.1235456006    1.9550829659   -2.8381378734
 C    1.2855175718    2.4905352598   -2.4988353898
 C    1.8714581185    1.8986301387   -1.2160855625
 O    0.9616054603    2.1234081597   -0.1276783524
 H   -2.4203187744    3.2221932380   -0.4475272176
 H   -0.6973485566    3.6340378102   -0.3733709985
 H   -2.2394126587    2.1796279707   -2.5795418784
 H   -1.3906330661    3.7129206976   -2.6886451664
 H   -0.1824519823    0.8948122519   -2.5624243877
 H   -0.2514403116    1.9755451291   -3.9256050349
 H    1.9760832501    2.2516845460   -3.3167018906
 H    1.2654310470    3.5845229900   -2.4195423942
 H    2.0516864891    0.8221374055   -1.3096476172
 H    2.8088365562    2.3868275170   -0.9391978046