17

 C   -0.0239665207    1.5321079762    0.0391376679
 C   -0.0183119910    0.0266277831    0.0210815407
 C   -1.1765013829   -0.7018169973    0.0484889931
 N   -2.4207922551   -0.1093556379    0.1419400038
 C   -1.1188100467   -2.1456989539    0.0345426016
 C    0.0830438480   -2.7357230751   -0.0078424403
 O    1.2405235538   -2.0547933294   -0.0357856568
 C    1.2620038265   -0.6480419427   -0.0163591440
 N    2.3912088695   -0.0578775210   -0.0381164007
 H    0.9985019597    1.9020779397   -0.0308292050
 H   -0.5943135250    1.9481641611   -0.8037418416
 H   -0.4709782656    1.9261803806    0.9611276071
 H   -2.4761436544    0.8643381210   -0.1133434754
 H   -3.2025768627   -0.6539950246   -0.1869598692
 H   -2.0200986577   -2.7445442165    0.0668103700
 H    0.2453186001   -3.8068011591   -0.0234279529
 H    3.1494386544   -0.7374351242   -0.0690588881