18

 C   -0.0981384580    1.4887249609   -0.0378791692
 C   -0.0921008775   -0.0059305091   -0.0694477439
 N    0.8101188631   -0.7620278400   -0.9518671350
 C   -0.1043611343   -1.9903787449   -0.7636438061
 C    0.5441236054   -2.7932252574    0.3322196054
 C    0.4550378396   -2.0869581454    1.4678806742
 C   -0.3630679623   -0.8698681470    1.2362818104
 C   -1.1515272619   -1.0517848417   -0.0391726657
 O   -2.5149967349   -0.9680540882   -0.1998482261
 H    0.8816417160    1.8706733669    0.2682913078
 H   -0.3296621922    1.9050630721   -1.0254200383
 H   -0.8489676263    1.8618116119    0.6644640299
 H    0.6348960751   -0.4180128989   -1.8961399383
 H   -0.3726168519   -2.4901782297   -1.6931161266
 H    1.1214045888   -3.6938947811    0.1700581464
 H    0.9371613763   -2.3178543234    2.4101631981
 H   -0.8019225428   -0.2965908465    2.0455049998
 H   -2.9316777119   -1.6269710385    0.3689310072