15

 N   -0.0162054521    1.4048137496    0.1492486989
 C    0.0020095316    0.0256366757    0.0584038994
 C   -1.1964606011   -0.7090006905    0.0457399784
 C   -1.1772188934   -2.0914038793    0.0093492857
 C    0.0398288589   -2.7893839958   -0.0167941722
 C    1.2376825674   -2.0585876640   -0.0045770456
 C    1.2197732461   -0.6761667611    0.0318072995
 C    0.0589572202   -4.2145142043   -0.0580057402
 N    0.0744996983   -5.3728197549   -0.0922678110
 H    0.8170733834    1.8877950989   -0.1487078540
 H   -0.8656910286    1.8649274940   -0.1389741880
 H   -2.1456008110   -0.1826394955    0.0677811612
 H   -2.1087924610   -2.6453757704   -0.0019329465
 H    2.1837725039   -2.5870442901   -0.0266876997
 H    2.1544513075   -0.1242059822    0.0429870941