18

 N    0.2978193140    1.1310982479   -0.3605409212
 C    0.1479652989   -0.1031959930   -0.1514225497
 O   -1.0606625351   -0.5827365020    0.2116218977
 C   -1.2135236694   -1.9798884586    0.3510545265
 C   -2.1232284706   -2.4590298840    1.5109221647
 C   -2.7518305237   -3.5109113005    0.5452507275
 C   -2.1717666359   -2.6875236748   -0.6086456394
 C   -2.8468524641   -2.1055596439   -1.7661314189
 O   -1.8498322641   -3.1355943418   -1.9051100605
 H    1.2652566033    1.3254451550   -0.6097410689
 H    0.9203316574   -0.8812020324   -0.2257171579
 H   -0.2347644090   -2.4763966949    0.3635296118
 H   -1.6279356658   -2.8256263750    2.4104813588
 H   -2.8334184108   -1.6743335606    1.7791733819
 H   -2.2732827846   -4.4909583077    0.6240771287
 H   -3.8347775428   -3.6393227753    0.5757770756
 H   -3.8651098164   -2.4111392165   -2.0020143189
 H   -2.5525001612   -1.1200644419   -2.1207801677