18

 C   -0.0641852181    1.4294845501    0.0258674093
 N   -0.0257311426   -0.0131917347    0.0431718105
 C   -0.0653801001   -0.7625918096   -1.1243018179
 O   -0.1265422091   -0.3585114024   -2.2729238978
 N   -0.0223168127   -2.0749338987   -0.6745541684
 C   -0.0008891720   -2.1264878855    0.7200343841
 N   -0.0547978712   -3.3744775046    1.3624394570
 C    0.0202201958   -0.8522739355    1.1764706029
 C    0.0927581270   -0.3229851846    2.5653567831
 H    0.8307471554    1.8643445735    0.4853445984
 H   -0.1075100392    1.7297756441   -1.0226417982
 H   -0.9478839778    1.8173799820    0.5454701842
 H   -0.2060054596   -2.8567873850   -1.2786222910
 H    0.8272691774   -3.8779462880    1.3174380621
 H   -0.3189117963   -3.2806897302    2.3346613411
 H    0.2257795570   -1.1457112475    3.2734660607
 H    0.9393144342    0.3617746324    2.6997258914
 H   -0.8130668282    0.2223040543    2.8603512882