23

 C   -2.7232748076    0.1621405859   -2.0837413626
 O   -2.0544472164   -1.0507228968   -1.8310688439
 C   -0.6794759837   -1.0163883927   -2.1878163689
 C   -0.0733806412   -2.3010038252   -1.6861311715
 O   -0.2141663829   -2.4278703638   -0.2931947881
 C   -0.1164789101   -3.5790343200   -2.5018423816
 C   -0.7438539084   -3.6855406030   -3.8751473294
 C    1.2064434974   -2.8662510544   -2.2311136490
 C    2.0379656706   -2.1981513949   -3.3065488778
 H   -2.2773405686    0.9987420143   -1.5233227468
 H   -2.7076352553    0.4203465080   -3.1541954475
 H   -3.7617558941    0.0369131289   -1.7674240935
 H   -0.5689185330   -0.8936096256   -3.2740704596
 H   -0.1873700560   -0.1595201546   -1.6989634675
 H   -1.1520735682   -2.2844411319   -0.1138445748
 H   -0.2691660208   -4.4573822293   -1.8801655524
 H   -0.5621610682   -2.8027418583   -4.4937079017
 H   -0.3454878602   -4.5490220703   -4.4199035379
 H   -1.8291424728   -3.8110185005   -3.7981918357
 H    1.8020164797   -3.3375255041   -1.4533777980
 H    1.4305551276   -1.7447016404   -4.0938357097
 H    2.6677930142   -1.4090914820   -2.8809557291
 H    2.7013439381   -2.9253457493   -3.7875902031