21

 C   -0.1536673240    1.4748494927    0.0335202184
 C    0.0817057957   -0.0478274668   -0.0050696786
 C    0.7696358076   -0.5182079121   -1.2445756174
 C    2.0293929830   -0.9044449205   -1.4697039418
 C    1.9913021656   -1.2513485530   -2.9656729338
 C    0.6991222356   -2.1098056937   -3.0505862857
 C    0.1487652989   -0.6950286126   -2.6669435401
 C   -1.2402542979   -0.2188384137   -2.9907406885
 O    1.2152804096   -0.1336973549   -3.5132139261
 H    0.7960347424    2.0129343282   -0.0357949747
 H   -0.7851365542    1.8072512751   -0.7950716060
 H   -0.6461721658    1.7637874797    0.9673578546
 H    0.6793640945   -0.3383173423    0.8666639231
 H   -0.8849693105   -0.5594208905    0.0994238114
 H    2.8696807296   -0.9847147634   -0.7948229072
 H    2.9106573308   -1.4732423727   -3.5054725927
 H    0.4373477269   -2.3908675049   -4.0745805206
 H    0.5696282362   -2.9369881099   -2.3492083952
 H   -1.9708660697   -0.6580128087   -2.3036760714
 H   -1.3040775598    0.8703641559   -2.9104484311
 H   -1.5140851645   -0.4996364619   -4.0112438465