19

 C   -0.0760601158    1.4470390450    0.1835542339
 O   -0.0105903591    0.0417128183    0.2161680580
 C   -1.2460281743   -0.5691529174   -0.0960730703
 C   -1.0848387652   -2.0451800767   -0.0939473597
 C   -2.0876324880   -3.1964067172    0.0175150325
 C   -1.5373791453   -3.8631275105   -1.2438437405
 C   -0.2322113928   -3.0912362008   -0.9210237390
 O    0.2368610293   -3.7104925065    0.3090665863
 C   -0.8686856044   -3.0843991514    0.9527647766
 H    0.9184385755    1.8261077138    0.4302005209
 H   -0.3628419726    1.8220797452   -0.8123000607
 H   -0.7985230410    1.8413567249    0.9164684492
 H   -2.0200321135   -0.2852684255    0.6396799671
 H   -1.6046649748   -0.2188231441   -1.0807665810
 H   -3.1070363487   -3.1553764097    0.3806782061
 H   -1.4595822922   -4.9540969779   -1.2818134963
 H   -2.0248265403   -3.4788032745   -2.1435873820
 H    0.5579665435   -2.9066989194   -1.6451052208
 H   -0.9082172502   -3.0540039355    2.0335250496