21

 C   -0.1393874391    1.5116158973    0.0242011428
 C   -0.0273089575   -0.0187548158    0.0117039177
 C   -1.4353337465   -0.5803796825   -0.1941209057
 C    1.1801201852   -0.6141903545   -0.8444363041
 C    2.1256155362   -0.1785638735    0.3283463000
 C    0.8707000486   -0.6306331775    1.1627887655
 O    0.6173246866   -0.2324407429    2.4728779062
 C    0.8625687346   -2.1262185250    0.7933578586
 C    1.0680995615   -2.1102368270   -0.5260036486
 H    0.8104820654    2.0380037335    0.1157485930
 H   -0.6215460069    1.8571531418   -0.8971479243
 H   -0.7704420564    1.8272406280    0.8616804015
 H   -1.8600701160   -0.2062636113   -1.1326674544
 H   -1.4574837486   -1.6697136711   -0.2210111102
 H   -2.0942610073   -0.2462474419    0.6150208484
 H    1.3571593057   -0.3040893398   -1.8733839889
 H    3.0338492092   -0.7709783360    0.4553508756
 H    2.3513313108    0.8861517589    0.3789949332
 H    1.2453606885   -0.6714183493    3.0562747827
 H    0.6894984647   -2.9480270281    1.4750795490
 H    1.1215662514   -2.9267739633   -1.2325706583