19

 O    0.1450467047    1.3445087765   -0.2063099345
 C    0.0874571174   -0.0504205600   -0.0222885765
 C    0.3321124966   -0.5490123783    1.4134554806
 C    0.1373179824   -2.0521696822    1.4776707974
 C   -1.0672068372   -1.1590519580    1.4630802669
 O   -1.9954597548   -1.1120233874    2.4884942152
 C   -1.3362973632   -0.6607757477    0.0531713645
 C   -2.5779511008    0.0614829962   -0.3705753420
 C   -2.2028961628   -1.2550477567   -1.0165587608
 H   -0.4853301498    1.7432896587    0.4049079463
 H    0.7504419927   -0.4763182904   -0.7824586286
 H    0.8898871986   -0.0093162749    2.1689186135
 H    0.3821997178   -2.6831789709    0.6255103545
 H    0.3695412307   -2.4852046283    2.4464935187
 H   -2.3396043411   -2.0001207413    2.6299478878
 H   -3.4079376855    0.0708044468    0.3281596178
 H   -2.4587372823    0.9675849945   -0.9559925973
 H   -1.8401334465   -1.2319527729   -2.0392659735
 H   -2.7946755869   -2.1323753738   -0.7726371199