19

 O    0.0111056624    0.0186747795   -0.5028659900
 C   -0.0097448657    1.1577119091   -0.1361015961
 C   -1.1470668266    2.1484403014    0.1988477643
 C   -0.0672896501    3.2249149300    0.5108860208
 C    0.3269193954    3.4901461872    1.9773717351
 C    1.8696177994    3.6895443300    1.8308924666
 C    1.8302181318    2.1654447036    1.4821275102
 C    0.6850687842    2.0791845335    2.5306597859
 C    1.0815166277    2.2129740530    0.1299357893
 H   -1.7597398765    2.3689491631   -0.6813801495
 H   -1.8147634576    1.8492532945    1.0122189942
 H   -0.1450406608    4.1391398766   -0.0785630961
 H   -0.2926564789    4.1850529974    2.5451815156
 H    2.2287447331    4.3844512346    1.0656592474
 H    2.3652840216    3.8873549928    2.7844634379
 H    2.7121653123    1.5287771412    1.5408543111
 H    1.0680828776    2.1323341881    3.5517869125
 H   -0.0436997867    1.2680505744    2.4607500497
 H    1.7342237576    2.4291933501   -0.7192743590