19

 C    0.0271088362    1.5275244918    0.0675757279
 C   -0.0400341917    0.0162278461   -0.0299764738
 C    0.6839512823   -0.5783266633   -1.2621303549
 C    0.6217616182   -2.1215983626   -1.2064157802
 O    0.8185555849   -2.6530860137    0.1071749410
 C    0.1658142972   -1.8938083016    1.1128333831
 O    0.6453785921   -0.5680315016    1.0985993121
 C   -1.3194147594   -1.7209972617    0.8031875033
 C   -1.4332740261   -0.6022019237    0.0955198221
 H    1.0677133254    1.8647364099    0.0603601925
 H   -0.4914095242    1.9913199650   -0.7775327227
 H   -0.4401284659    1.8684796516    0.9955562132
 H    0.2428389429   -0.2356612958   -2.2054402425
 H    1.7222598612   -0.2327239718   -1.2280767940
 H   -0.3457153693   -2.4591348167   -1.6008988912
 H    1.4062742209   -2.5641636073   -1.8258155023
 H    0.4238850393   -2.3666012358    2.0613819767
 H   -2.0794977853   -2.4571710312    1.0273527359
 H   -2.3151733987   -0.2028608875   -0.3892271859