18

 O    0.1718691114    1.3610737398    0.0416990941
 C    0.1153323603   -0.0459132824    0.0594125777
 C   -1.3376361150   -0.5564733900    0.0250797185
 C   -1.5530697139   -2.0547425446   -0.0276845315
 C   -1.2328797645   -2.8459522886    1.1895755376
 N   -2.6283766789   -2.4780230332    0.9163828737
 C   -3.0541509723   -1.2878054556    1.6589737116
 C   -2.1157909668   -0.1382292576    1.2774802639
 O   -1.9891730940    0.9088949444    1.8678217362
 H   -0.3758600496    1.6639335216    0.7797770722
 H    0.6512690399   -0.4008283528   -0.8271693681
 H    0.6275011863   -0.4682808306    0.9393009670
 H   -1.8300703132   -0.0760089745   -0.8324343917
 H   -1.5652070120   -2.5443293002   -0.9962965131
 H   -1.0165017251   -3.9064342730    1.1061226952
 H   -0.7181230426   -2.3462901690    2.0096775489
 H   -4.0764491490   -1.0183433909    1.3629704163
 H   -3.0588547812   -1.4527874527    2.7403641415