15

 C    0.0199546215    1.4800477638   -0.0395499997
 C    0.0247725779   -0.0122692113    0.0206538127
 N   -0.0057378498   -0.7664656942   -1.0795213952
 N   -0.0060796323   -2.0141604441   -0.6112940118
 C    0.0459820172   -3.1617285804   -1.4906135017
 C    1.4150648770   -3.5131255230   -1.8949942609
 N    2.4831279409   -3.8031839194   -2.2228854426
 N    0.0366555339   -2.1392845560    0.7117143251
 C    0.0508399730   -0.8781873802    1.1343934886
 H    0.9091679933    1.8984900853    0.4429486596
 H    0.0042542304    1.8117816684   -1.0792649396
 H   -0.8551221773    1.8968001903    0.4698129903
 H   -0.4048763060   -4.0051040487   -0.9631707948
 H   -0.5471283120   -2.9375289757   -2.3803338532
 H    0.0700237822   -0.6480702348    2.1880889333