18

 C   -0.0082434502    1.5699546446   -0.0843042845
 C    1.2933366409    0.7995913233   -0.0245554727
 C    2.0257273578    0.6846979315    1.2755070786
 C    1.3162900159    0.6690694213    2.6047482523
 C    1.9929751712   -0.5902790272    2.0961489641
 C    0.6019829336   -1.2983448275    2.0258827097
 C   -0.0694853194   -0.0613314509    2.5243453444
 N   -0.3887335622   -0.5942040692    1.2168868073
 C   -0.0214117613    0.0703632398   -0.0091353804
 H   -0.3057015008    2.1288000373    0.7969265754
 H   -0.2904083731    2.0234619098   -1.0277398111
 H    1.9067511393    0.7596939451   -0.9190585375
 H    2.9882059991    1.1882842480    1.3164994262
 H    1.6049454629    1.2981328013    3.4368144834
 H    2.8851320305   -1.0756603890    2.4685419929
 H    0.4354071773   -2.3420518574    2.2655805234
 H   -0.8646907622    0.0689259191    3.2497235852
 H   -0.3403549093   -0.4838178200   -0.8861137867