22

 C   -0.1152750264    1.3831247699   -0.2121964583
 C    0.1290881185   -0.1166802038   -0.0117089262
 N    0.8544138005   -0.4332333808    1.2180943330
 C    0.0529415856   -0.3839759262    2.4298646188
 C    0.2283005047   -1.2840630932    3.6245745608
 C    0.4926708371    0.2044033558    3.7449669253
 C    2.2025682037   -0.6717724821    1.2560580765
 C    2.9623296720   -0.6717302987   -0.0666593300
 O    2.7976182014   -0.8873988072    2.3030291634
 H    0.8309321034    1.9270787307   -0.2917345806
 H   -0.6904201923    1.5566130819   -1.1274745962
 H   -0.6752466038    1.8069257814    0.6265569465
 H   -0.8294955205   -0.6484055755    0.0155951051
 H    0.6747086497   -0.5226298114   -0.8635444934
 H   -0.9784448320   -0.1824396367    2.1635946721
 H   -0.6728542783   -1.6975037581    4.0654209717
 H    1.0987514877   -1.9229066878    3.6526673735
 H    1.5298622589    0.4905403852    3.8435539892
 H   -0.2195448277    0.8291551669    4.2738997059
 H    2.8334178538    0.2589040367   -0.6271049036
 H    4.0165279035   -0.7990138761    0.1770764808
 H    2.6496891506   -1.4983322808   -0.7133392744