18

 C   -0.2216970928   -1.2685411721   -0.3256511710
 C   -0.0989141095   -0.0857007332   -0.1427385194
 C    0.0221289153    1.3474965725    0.0584229437
 C   -0.2626883958    1.9969231663    1.4500194312
 C    0.1139877291    1.0446749941    2.5902272052
 C    1.6060151883    0.7131407012    2.3117199224
 C    2.0519441684    1.8086419521    1.3502669345
 C    1.0093905045    2.8356241733    1.1756932056
 N    1.4064492248    1.9630701007    0.0081157314
 H   -0.3224470909   -2.3127806854   -0.4913162031
 H   -0.5524037588    1.8617336928   -0.7188446813
 H   -1.2243755365    2.4977100452    1.5573995425
 H    0.0008273816    1.5552614888    3.5526964900
 H   -0.5190479228    0.1531003186    2.6040330107
 H    2.2110157551    0.7486705918    3.2229533722
 H    1.7312589293   -0.2811231350    1.8761101126
 H    3.1011388662    2.0799435847    1.3007007736
 H    1.1265157344    3.9124704536    1.1698528092