19

 C   -0.3846355190    1.6043666578   -0.2279041970
 C    0.0486535039    0.1786061411    0.0563738315
 C    0.7509478778   -0.6417255614   -1.1090636910
 C    1.9596367278   -0.6953770516   -0.1824984169
 C    3.2010488712   -1.0491269102    0.3253410168
 C    4.3202948765   -1.8402687752   -0.2779597795
 C    3.1617797232   -0.4463263582    1.6171203412
 N    2.0173579006    0.2037910279    1.8988800048
 N    1.3385472557    0.0260303637    0.7611893144
 H    0.4099093964    2.1604417646   -0.7342619980
 H   -1.2753028724    1.6075112737   -0.8643958680
 H   -0.6295013064    2.1252325077    0.7024347483
 H   -0.7499612781   -0.3860584070    0.5488129629
 H    0.2781679010   -1.6005576496   -1.3358252240
 H    0.8796756593   -0.0759037285   -2.0357559679
 H    5.1184143489   -1.9959236004    0.4535980815
 H    3.9896032093   -2.8285125256   -0.6168825456
 H    4.7651888692   -1.3351422825   -1.1433468190
 H    3.9503161850   -0.4672134162    2.3575071657