18

 C    0.3561564047    1.6453122216   -0.2661994676
 C    0.4304206531    0.1251435095   -0.2761855642
 O    1.3542476334   -0.3107994793   -1.3007425685
 C    2.4971929871   -0.8396369317   -0.7662258569
 O    3.4605197371   -1.0866260843   -1.4316864046
 C    2.3012905649   -1.0432389609    0.7108058493
 C    0.9632255340   -0.4546107020    1.0285477011
 N    1.1737683786   -1.8804070384    1.1256490025
 C    0.5358033095   -2.8290960159    0.2159066430
 H    1.3188301032    2.0803077967    0.0196761583
 H    0.0892189592    2.0173354225   -1.2581967638
 H   -0.4032327183    1.9813393809    0.4471135054
 H   -0.5453225852   -0.2979331976   -0.5411761636
 H    3.1781294978   -1.0351552994    1.3478131351
 H    0.7493871880    0.0738684352    1.9533313668
 H    0.4328194180   -2.4906991607   -0.8231847371
 H    1.1215746995   -3.7521643350    0.2211676476
 H   -0.4591654444   -3.0576457411    0.6096750069