20

 C   -0.2068173193    1.5759446717   -0.0952931144
 C   -0.0308594067    0.0752693735    0.0691319741
 C    1.1674985179   -0.6262461369   -0.5751092780
 C    2.1855975743   -0.1850623868    0.5199591181
 C    2.5931393952   -1.6421076797    0.6855475087
 N    1.0903662525   -1.8024965966    0.4376592458
 C    0.8173489017   -0.4802260917    1.2302143924
 C    0.4458417290   -0.5319161533    2.6910619687
 O    1.2000617802   -1.4750650933    3.4356991065
 H    0.7361319690    2.1131309551    0.0509228584
 H   -0.5756350243    1.8180900558   -1.0977597444
 H   -0.9318750210    1.9707254217    0.6244378584
 H   -0.9735507945   -0.4689576586   -0.0664798814
 H    1.3803664412   -0.8321372708   -1.6265803018
 H    2.7872334341    0.7285541551    0.5612721881
 H    3.1991992520   -2.0893769272   -0.1100751251
 H    2.9240800440   -1.9805783327    1.6682594391
 H    0.6225064306    0.4436625805    3.1578936715
 H   -0.6339531786   -0.7390310485    2.7673007814
 H    1.0089884827   -2.3405703475    3.0566829339