27

 C    1.0815173426    1.4520325593    2.4410539836
 O    1.5124782132    0.3624356998    1.6627882358
 C    0.4821797436   -0.5288736283    1.2441454904
 C   -0.3955341102    0.0857884152    0.1465937350
 C    1.1725317737   -1.8468513249    0.8226337599
 C    2.1849888827   -1.5961208369   -0.3081239119
 C    1.8037696159   -2.5677724041    2.0477649567
 C    0.7369874045   -3.0821679855    3.0293355103
 C    2.7145747957   -3.7399454326    1.6489961226
 H    0.4925180175    1.1234011332    3.3123794254
 H    1.9771309171    1.9673188406    2.7985661362
 H    0.4751128146    2.1701543650    1.8698999129
 H   -0.1698229446   -0.7347649305    2.1071493233
 H    0.2034980073    0.4195234173   -0.7044717460
 H   -1.1281625727   -0.6460365168   -0.2087177144
 H   -0.9523010081    0.9486611927    0.5234974096
 H    0.3782831700   -2.4990086003    0.4296218574
 H    2.5767039527   -2.5342640091   -0.7067742515
 H    1.7237180994   -1.0618564419   -1.1430004693
 H    3.0248028259   -0.9928629753    0.0477510012
 H    2.4193488842   -1.8231292183    2.5679291925
 H    0.0900783541   -3.8261278023    2.5476388790
 H    1.2090324711   -3.5671561641    3.8901726500
 H    0.0952621645   -2.2877342251    3.4192896761
 H    3.0819419837   -4.2563772224    2.5420832568
 H    2.1713336776   -4.4777308169    1.0448611498
 H    3.5871207241   -3.4157850176    1.0770944084