21

 C    0.2170867952    1.6160008868   -0.0306416609
 C    0.0338874176    0.0865893951    0.0337832639
 C    0.5924898208   -0.6471997215   -1.2128106478
 C   -0.1256172653   -0.2945723308   -2.4997004651
 C    0.3713980264    0.8175937063   -3.4096089348
 C    0.4923088190   -0.6257406723   -3.8277886935
 O    1.7430818537   -1.2518502271   -3.7992903309
 C    0.6425095561   -0.4549445222    1.2486119892
 C    1.1655530223   -0.8967599041    2.2371964526
 H    1.2788556777    1.8729302784   -0.0981039916
 H   -0.2943957904    2.0276489056   -0.9038008422
 H   -0.1881149900    2.0906839956    0.8668173787
 H   -1.0454938986   -0.1199702569    0.0823059186
 H    1.6619212288   -0.4386677624   -1.3099561870
 H    0.5089459258   -1.7259884010   -1.0386576832
 H   -1.2057351152   -0.4182657707   -2.4552041080
 H   -0.3471394173    1.4552419258   -3.9137902532
 H    1.2915071263    1.3124967755   -3.1158180115
 H   -0.1738297573   -0.9811430977   -4.6142074267
 H    2.2673694951   -0.9005904195   -4.5262798101
 H    1.6168031090   -1.2907107926    3.1136618934