19

 C   -0.2995073025    1.2908523059   -0.3215880371
 C   -0.1413785862   -0.1767733186   -0.7053293346
 N    1.2253358302   -0.6339796340   -0.4402643991
 C    1.4694171076   -2.0052996813   -0.8305423992
 C    1.5601191707   -2.2302498146   -2.3404579410
 O    1.6988972847   -1.3543670700   -3.1580204141
 O    1.5048738775   -3.5405609977   -2.6431013080
 C    1.6428493253   -3.8596012884   -4.0346909276
 H   -0.0314331959    1.4473630433    0.7272937457
 H    0.3473827947    1.9278460992   -0.9356215342
 H   -1.3307821037    1.6228824452   -0.4736586084
 H   -0.8184507918   -0.7923765285   -0.0983081444
 H   -0.4392303634   -0.3166882862   -1.7582073846
 H    1.8691765412   -0.0379543671   -0.9535620372
 H    2.4190825391   -2.3552830917   -0.4032481355
 H    0.6940235434   -2.6601433453   -0.4195988348
 H    0.8441958129   -3.3933401455   -4.6169816701
 H    2.6052828570   -3.5097759694   -4.4166773596
 H    1.5783454791   -4.9457682254   -4.0988715462