12

 O   -0.0091618085   -0.0641009989   -0.1861418583
 C   -0.0675006717    1.1021885114    0.0574995067
 C   -1.3082735007    1.9615094549    0.0999361757
 C   -1.2117976458    3.0063844401    1.2193129156
 N    0.0564721135    3.7256907683    1.1907816345
 C    1.0512324091    3.1014091015    0.7415820074
 O    1.1079392570    1.7948504216    0.2955891224
 H   -1.3788588016    2.4744216396   -0.8682946805
 H   -2.1782436702    1.3099537830    0.1961297418
 H   -2.0272007581    3.7297023879    1.1344430330
 H   -1.3170158523    2.5313522611    2.2042893960
 H    2.0404383595    3.5468428997    0.6858424059