23

 C    0.0480932774    1.5534044211   -0.0361785223
 C    0.0346502265    0.0234931513    0.0115844507
 C    0.7366088422   -0.5524003366    1.2375396842
 C    0.6457874958   -2.0808105105    1.3290738256
 C    1.5043534807   -2.6206944590    2.4841563321
 C    2.9263265459   -2.0391811922    2.4139334564
 O    3.6406954556   -2.5374299751    1.2890988608
 C    2.8401326363   -0.5141794201    2.3371539629
 O    2.1076348832   -0.1386184129    1.1781291018
 H    1.0740781857    1.9288181047   -0.0201742241
 H   -0.4403287674    1.9234095544   -0.9425546358
 H   -0.4790619072    1.9801490665    0.8245752285
 H   -0.9974582439   -0.3475823495    0.0053272586
 H    0.5199696264   -0.3840363654   -0.8842029875
 H    0.2886952719   -0.1148420878    2.1491671544
 H   -0.4006347023   -2.3815723781    1.4507250119
 H    0.9928722274   -2.5114333658    0.3814760235
 H    1.0546847061   -2.3420335181    3.4466873774
 H    1.5544822977   -3.7131391317    2.4518145689
 H    3.4992759884   -2.3350910621    3.3002182059
 H    3.3717950801   -1.9928640500    0.5391406435
 H    2.3701649833   -0.1012003356    3.2444699172
 H    3.8372000001   -0.0780302575    2.2273817555