21

 C    0.0378710947    1.5977960740   -0.0341971808
 C   -0.0519531503    0.0663538605    0.0366584837
 C   -1.4574851798   -0.4803997562    0.0428119218
 C   -1.8911521153   -1.6914176828   -0.7417379031
 C   -2.5519427772   -0.3604195897   -1.0092212845
 C   -3.5737438918    0.0763494255    0.0779502627
 C   -3.7468106756   -0.9346392331    1.1952553315
 C   -2.5140225006   -0.0719042301    1.1364297762
 O   -2.2053206772    0.8330000443    2.1410006568
 H    1.0827324583    1.9245610844   -0.0503510364
 H   -0.4452968174    1.9727010397   -0.9427103989
 H   -0.4556920575    2.0578709022    0.8244013248
 H    0.4834340169   -0.3694834185   -0.8159264715
 H    0.4764345012   -0.2885694596    0.9329995928
 H   -1.1832015851   -1.9928160235   -1.5098103101
 H   -2.4180482957   -2.5313007399   -0.3026495961
 H   -2.4965766227    0.1176537954   -1.9793880851
 H   -4.2791759685    0.8835338395   -0.0691178597
 H   -4.4424163482   -0.5975863982    1.9587360619
 H   -3.7589563734   -2.0072312483    1.0351644205
 H   -1.8948894947    0.3370361445    2.9070738737