16

 C    0.3749394817    1.4744765747    0.2303378035
 C   -0.1976021833    0.1186997362   -0.2170084753
 C    0.6010759862   -0.5207764093   -1.3130027038
 N    0.1757447852   -0.4835563313   -2.5803116628
 N    1.1188590283   -1.1086074535   -3.2914304977
 C    2.1498957707   -1.5570862686   -2.5188605379
 C    1.8425030419   -1.1874802486   -1.2201458192
 C    3.2547475664   -2.2535264249   -3.0608540437
 N    4.1536003705   -2.8221042464   -3.5195114339
 H    1.3994479472    1.3698691571    0.6012811201
 H    0.3913276774    2.1829185311   -0.6030859858
 H   -0.2323624429    1.9041301251    1.0325350425
 H   -0.2414076739   -0.5608766756    0.6418080643
 H   -1.2227137512    0.2487779007   -0.5758880695
 H    1.0100154137   -1.2154333689   -4.2868583904
 H    2.4364034422   -1.3818117780   -0.3422467204