16

 O   -0.0585532041    1.2521106737   -0.4794939428
 C   -0.5829231754   -0.0609278575   -0.5792284388
 C   -0.5651297153   -0.6553468554    0.8336925127
 C   -1.0840346513   -2.0163331259    0.8710659968
 C   -1.5171695011   -3.1386354625    0.8719752274
 C   -2.0416409794   -4.5059073227    0.8914558918
 C   -2.4516857421   -4.9954272143   -0.4266749362
 C   -2.7913767696   -5.4083557405   -1.5015827371
 H   -0.0602264011    1.6451852299   -1.3568248093
 H   -1.6140710998   -0.0614049786   -0.9623566829
 H    0.0201246646   -0.6923107257   -1.2483607648
 H    0.4654616975   -0.6264099967    1.2078749198
 H   -1.1518232098   -0.0020334133    1.4909161410
 H   -1.2849338604   -5.1854375880    1.3077949719
 H   -2.8975929112   -4.5630322460    1.5783236183
 H   -3.0906763916   -5.7699471664   -2.4539034979