18

 C    0.3721581836    1.5698264429    0.4370279127
 C    1.5578862435    1.5439095410   -0.5693843598
 C    1.3847890128    0.0026337993   -0.7142620975
 C    2.2681052706   -0.8543079298    0.1687627334
 O    2.3981071758   -0.3534578847    1.5107581604
 C    1.4805219393   -1.4293019492    1.2738456361
 C    0.0333816272   -0.9836507602    1.1721640053
 C    0.0282611358    0.0948776372    0.0675455297
 H    0.7010206106    1.6759581610    1.4719528956
 H   -0.4121647799    2.3043981789    0.2368528233
 H    1.3398442436    2.0739833502   -1.4998410004
 H    2.5241274398    1.8837027725   -0.1913263472
 H    1.3615900656   -0.3948852861   -1.7328354812
 H    3.1617148310   -1.3321866440   -0.2269866490
 H    1.7391192508   -2.3696067258    1.7567479535
 H   -0.5874039404   -1.8443204110    0.8943703826
 H   -0.3450716889   -0.6048545544    2.1282941488
 H   -0.8588247206    0.0239077721   -0.5651647963