15

 N   -0.4327576530   -0.8945986540   -0.7581251521
 C   -0.2356694298    0.1791162383   -0.3792169960
 C    0.0129929690    1.5285356950    0.1101461024
 C   -0.5054350929    1.7666458566    1.5609869195
 O    0.4997878801    2.5292567675    2.2351768068
 C    1.4737402837    2.9718776634    1.3097969393
 C    1.5137263810    1.8882782830    0.2200349150
 C    1.1199795834    4.2967445897    0.7490991460
 N    0.8281073751    5.3206921682    0.3004017342
 H   -0.4746808122    2.2337340734   -0.5702086365
 H   -1.4533684792    2.3134248296    1.5536348304
 H   -0.6401855148    0.8288558088    2.1064698940
 H    2.4237699172    3.0662234888    1.8430487058
 H    2.0877921532    1.0358458469    0.5895043800
 H    1.9410365293    2.2268671047   -0.7240515288