18

 O    0.0515685390   -0.0181386784   -0.5648435772
 C    0.7025255690    0.5510015690    0.2723965204
 C    1.1974021615    1.9868418583    0.1686843228
 C    0.7327867966    2.6772837680   -1.0809860396
 C    0.4325760589    3.9726586735   -1.1030851561
 C    0.5080690951    4.8520951262    0.1165373808
 N    0.5010464418    4.1636163309    1.4125423482
 C   -0.5734173251    3.2029594705    1.6574144089
 C    0.8286487796    2.7407210950    1.4490195330
 H    0.9990785432    0.0367368055    1.2155518001
 H    2.2991531892    1.9053384136    0.1543039755
 H    0.6472777298    2.0613910076   -1.9696749638
 H    0.1199009388    4.4463009278   -2.0304487709
 H    1.4229294990    5.4607099274    0.0768128704
 H   -0.3247963304    5.5661653670    0.1187106530
 H   -1.0038078297    3.2288350751    2.6547014218
 H   -1.2795784218    3.0045176201    0.8538011652
 H    1.4113000457    2.4488038229    2.3210509676