20

 O   -0.2717661968    1.3685833134   -0.2890720425
 C   -0.1499650215   -0.0188167660   -0.0151454618
 C   -1.4872535562   -0.6761489702   -0.3391888099
 C   -1.4795611201   -2.1622699628   -0.0634312002
 C   -1.7838652202   -2.6961392582    1.3194667312
 C   -2.7561169609   -2.9286643921    0.1947939389
 N   -4.0174191335   -2.2476272724    0.2333526158
 C   -4.7223939624   -1.9615812938   -0.8977911378
 O   -4.3265077494   -2.1484847157   -2.0269310959
 H    0.5776726939    1.7849935156   -0.1175507756
 H    0.6471392029   -0.4773607328   -0.6233194507
 H    0.1055622129   -0.1979035571    1.0421371820
 H   -2.2679809994   -0.1849538456    0.2508590535
 H   -1.7287310256   -0.4940210526   -1.3921280357
 H   -0.7405925405   -2.7221412059   -0.6312467080
 H   -1.2315161591   -3.5453722619    1.7052613958
 H   -2.0684079087   -1.9681997697    2.0739308844
 H   -2.8064606325   -3.9286523421   -0.2279467878
 H   -4.4914402927   -2.1576216581    1.1186337737
 H   -5.7142082301   -1.5236422719   -0.6635348893