21

 C    0.3627500214    1.0980515780    0.3786359141
 O   -0.3341615411    0.0675974649   -0.3021241666
 C    0.4225066342   -0.5428078563   -1.2847112434
 C    1.3895527260   -1.6794000817   -0.9120347788
 C    1.5566549793   -2.0799216329    0.4505495935
 C    1.7204141073   -2.4230594100    1.5930568283
 C    0.0729874253   -1.9436315629   -1.6725406088
 C   -1.0575122174   -2.6381045992   -0.9414325552
 C    0.2123139177   -2.3208543940   -3.1347974535
 H    1.2512401515    0.7090361545    0.8904719570
 H    0.6692831025    1.8961508468   -0.3142306875
 H   -0.3272615040    1.5142370069    1.1157294993
 H    0.7728025012    0.1338139354   -2.0682113130
 H    2.2929717110   -1.7380972703   -1.5141856267
 H    1.8604156932   -2.7285877226    2.5999260010
 H   -1.1242231311   -2.3133520173    0.0965496016
 H   -2.0132125322   -2.4173383380   -1.4296036332
 H   -0.9131420284   -3.7237399481   -0.9576005455
 H    0.4121530404   -3.3928091479   -3.2437194903
 H   -0.7094606241   -2.0941568603   -3.6828707881
 H    1.0307119570   -1.7781185250   -3.6184092545