21

 C   -1.0908723195    0.9552879589    0.1207775969
 C    0.0766494431   -0.0176222374    0.1549073582
 C    1.1867937550    0.0946929993   -0.9289034870
 C    2.2412453462   -0.2118954096    0.1617257366
 C    1.1839847385    0.1692100530    1.2310654597
 C    2.8429744216   -1.6519519774    0.2448926923
 C    4.2244892233   -1.0099970910    0.4503296400
 O    5.2997536868   -1.4365487396    0.7559083271
 C    3.6716816573    0.3969212565    0.1760182202
 H   -0.7366183457    1.9920433633    0.0849011564
 H   -1.7229523288    0.7887888217   -0.7587384035
 H   -1.7235711447    0.8502341401    1.0092851389
 H   -0.2976493959   -1.0470039962    0.1897038428
 H    1.1391089844   -0.5792370115   -1.7895369664
 H    1.2787054851    1.1233918382   -1.2958278782
 H    1.2760447756    1.2208738462    1.5252852464
 H    1.1333628954   -0.4427224855    2.1364899320
 H    2.4991369864   -2.2993337216    1.0573784523
 H    2.7880820955   -2.2160959337   -0.6933145147
 H    3.9994675157    0.7875523389   -0.7945159458
 H    3.8894682445    1.1489761176    0.9408429257