19

 C   -0.0473203511    1.5569187340   -0.0453058260
 C   -0.0113132155    0.0387776632    0.0048586583
 O    0.6484055811   -0.4154067189   -1.1770499190
 C    0.4737893915   -1.7949362215   -1.4044165996
 C    0.8716460100   -2.6386426652   -0.2137556524
 O    2.1379795225   -2.3381763558    0.3762181489
 C    0.9491577713   -2.0131846745    1.1155531089
 C    0.7124614413   -0.5066745717    1.2529155074
 O    1.9419607817    0.1480439013    1.4978656564
 H    0.9691617526    1.9537274739   -0.0255671039
 H   -0.5482217636    1.8913898054   -0.9569960745
 H   -0.5869947510    1.9546109600    0.8195449171
 H   -1.0419838403   -0.3603120574    0.0156559051
 H   -0.5776982695   -2.0260721972   -1.6526585578
 H    1.0885812847   -2.0503403863   -2.2739469710
 H    0.6473040944   -3.7029153767   -0.2949700449
 H    0.8071453368   -2.6219543977    2.0067403721
 H    0.0804458837   -0.3188910377    2.1285511906
 H    2.5682865192   -0.2399559271    0.8716754641