14

 N   -0.1203720373    1.2896238638   -0.0124400691
 C    0.0090909439    0.0285976620   -0.0269164714
 N    1.1161791474   -0.7953543733   -0.0644690589
 C    0.7988727250   -2.1659154763   -0.0294815116
 O    1.5881110540   -3.0702694444    0.0495765490
 N   -0.5821196533   -2.2342670530   -0.1222688860
 C   -1.1840713590   -0.9277452422    0.0205590978
 C   -1.9746566432   -0.7619761495    1.3192425147
 O   -2.2072772609   -1.6803665522    2.0585527923
 H    0.7772875536    1.7740199291   -0.0367961794
 H    2.0744409952   -0.4857764083   -0.0598613542
 H   -1.0287526435   -3.0210126317    0.3271976028
 H   -1.8672898698   -0.6786038906   -0.8036290589
 H   -2.3243035221    0.2721891967    1.5059493328