16

 N   -0.0659549516    1.2229616731    0.5005080666
 C   -0.0063055043    0.0681373450    0.0012305514
 O    1.1566855941   -0.5761629025   -0.2997771165
 C    1.0638512865   -1.8764510451   -0.8587894287
 C    0.0068302878   -2.0978211552   -1.9746844328
 C    0.0315449260   -3.5970863385   -1.5804748385
 C    0.0416625412   -2.8550186998   -0.2192108240
 C   -1.0238898228   -1.9020906580   -0.8284207942
 O   -1.1451957371   -0.6081986167   -0.2679045754
 H    0.8755738121    1.5842322956    0.6376372685
 H    2.0856535492   -2.2178343160   -1.0263140428
 H   -0.0127832678   -1.6563374326   -2.9699204068
 H   -0.8673692125   -4.1726255100   -1.8108880797
 H    0.9378932106   -4.1496202435   -1.8367865353
 H    0.0617183732   -3.2759195021    0.7848945097
 H   -2.0390242145   -2.2732752237   -0.9683866712