21

 C   -0.1928527717    1.6341881739    0.2483146276
 C    0.0119379468    0.1348606926    0.0876778045
 C   -1.2937556049   -0.5887792912   -0.2634754119
 C   -1.2317497553   -2.0789364206   -0.0525534996
 C   -0.4981737608   -2.6331108377    0.9110680320
 C    0.3455068521   -1.8054542344    1.8477484497
 C    0.9013667431   -0.5479014325    1.1732686891
 C    1.8912148582   -0.7738094987    0.0128762850
 O    1.0152237521   -0.1387924374   -0.9346504005
 H    0.7641702866    2.1367781729    0.4151694101
 H   -0.6469012611    2.0586476599   -0.6535698354
 H   -0.8516038799    1.8492399160    1.0969784746
 H   -2.1143472248   -0.1674257647    0.3366949975
 H   -1.5292189956   -0.3526486918   -1.3076227323
 H   -1.8419980785   -2.7022305390   -0.7004477537
 H   -0.5060028132   -3.7101723507    1.0538362546
 H   -0.2516676609   -1.5179462777    2.7261153356
 H    1.1777618639   -2.4009497274    2.2434466983
 H    1.2672413514    0.1560610205    1.9249039407
 H    2.8544744678   -0.2548235283    0.0979647107
 H    2.0728870949   -1.8258244838   -0.2419329366