19

 C    0.1754600259    1.3340497794    0.1663038523
 O   -0.0069487089   -0.0523726345   -0.0123615354
 C    0.5560965196   -0.5448151330   -1.2099843009
 C    2.0460572799   -0.8749327388   -0.9766036406
 C    2.2977869948   -2.1140030682   -1.4360052058
 C    2.1522040834   -3.2708342442   -0.4423978681
 C    0.6899983978   -3.2924946231   -1.0309906111
 C    0.0443531011   -1.9472910177   -1.5474020811
 C    1.1339938316   -2.6325478661   -2.3013920374
 H    1.2398775192    1.6075762371    0.2246200405
 H   -0.2803753284    1.9103100509   -0.6539263694
 H   -0.3098626098    1.6075538525    1.1062554014
 H    0.3164675140    0.1475721519   -2.0358561125
 H    2.5091440246   -0.4795298228   -0.0763943346
 H    2.6435547016   -4.2158797116   -0.7017637834
 H    2.3087921150   -3.0375298639    0.6143077778
 H    0.0293605490   -4.1521751654   -0.9458732285
 H   -0.9946956825   -2.0701109720   -1.8471901570
 H    1.1462006019   -2.9873598406   -3.3228920661