17

 C    0.3092413791    1.2027197807   -0.3947796018
 C    0.3190296911   -0.1889481154    0.1761290128
 O    1.5753943501   -0.7559849694    0.5206714265
 C    0.6611209692   -0.5306287709    1.5907017191
 C    1.0267939451    0.5621544068    2.5611675192
 O    1.8080090735    1.4497319667    2.3374816036
 C    0.0416554743   -1.7465292066    2.2190270103
 C    0.3541213836   -3.0976281908    1.7441652549
 O    0.9270537536   -2.5959816631    2.9539078001
 H    0.9915191130    1.8543658478    0.1512556693
 H    0.6217518131    1.1662708615   -1.4435476681
 H   -0.7026870891    1.6197921347   -0.3618283422
 H   -0.3598432592   -0.8978306950   -0.3044490167
 H    0.4929839499    0.4909307591    3.5344671588
 H   -0.9167114260   -1.5698782382    2.7111594293
 H   -0.3814800330   -3.8906126238    1.8689243198
 H    1.0496510516   -3.2106159741    0.9166574150