16

 O   -0.0695503062    1.4079706598   -0.0343520218
 C    0.0010063254   -0.0053482740    0.0185871199
 C    0.5773956485   -0.5039992838    1.3775249069
 N   -0.6340407573   -0.7001650963    2.1515230538
 N   -0.8396841823   -0.9001045812    3.4599455478
 N   -2.1339831420   -1.0479130944    3.6032462167
 C   -2.7466718596   -0.9469224380    2.3858592941
 C   -1.7791625163   -0.7191837252    1.4353412428
 C   -1.4692007815   -0.5169143991   -0.0146226738
 H    0.8255794129    1.7620947209   -0.0246190079
 H    0.5879564752   -0.4010992242   -0.8200247869
 H    1.1268073672   -1.4463429701    1.2750397114
 H    1.2299688514    0.2376426683    1.8443652253
 H   -3.8158106285   -1.0360526876    2.2868104438
 H   -2.0997386727    0.2264065465   -0.5063949784
 H   -1.5477746741   -1.4531030216   -0.5782675736