16

 O   -0.0424446908    1.4170770617   -0.0242105317
 C   -0.0178856410    0.0431886287    0.0227312657
 C   -0.2714203332   -0.8344603555   -1.1717327490
 C   -1.1963858345   -0.9185411770    0.0196698635
 C   -0.5361616415   -1.7790090543    1.0996914841
 C    0.6782941821   -0.7645178544    1.1325223338
 O    1.9569509720   -1.2284732371    0.7593080746
 C    0.7445447931   -0.0366377269    2.4073984882
 N    0.8313634780    0.4918707655    3.4315445031
 H    0.7254208718    1.7234537173   -0.5205488781
 H   -0.6695979497   -0.2843026918   -2.0179805694
 H    0.3914616597   -1.6572681387   -1.4226528466
 H   -2.2512611157   -0.6897908944   -0.0456373430
 H   -1.0786809537   -1.8147493138    2.0451179423
 H   -0.2464450350   -2.7895512559    0.7975421740
 H    2.3431782582   -1.7092421534    1.5004796184