16

 C    0.0413625297    1.4616025150    0.0008714962
 N   -0.0291021417    0.0165640515   -0.0043087646
 C   -0.1392686699   -0.8004288989   -1.1223144864
 C   -0.0926772958   -2.1089501856   -0.7130631025
 C    0.0585441019   -2.1059685732    0.7107045299
 N    0.1523270417   -3.1451391136    1.6871364288
 C    0.0967623699   -0.7847393586    1.0911687989
 O    0.2286821051   -0.2528951312    2.3273420359
 H    1.0697017400    1.8221771876   -0.1224437703
 H   -0.5694136132    1.8574936581   -0.8140774246
 H   -0.3460172116    1.8404660587    0.9484681986
 H   -0.2447762767   -0.3618238595   -2.1010953746
 H   -0.1697938273   -2.9752273801   -1.3532046556
 H    0.9540792011   -3.7465946045    1.5215758792
 H   -0.6668548300   -3.7458176033    1.6784410699
 H    0.2725518167   -1.0229299724    2.9148166312