20

 C   -0.3276581579    1.3773602793   -0.1260664828
 N    1.0657851685    0.9249547203    0.0145371469
 C   -0.0197338160   -0.0717239160   -0.0194551830
 C   -0.2294215357   -0.8162441273    1.2595992339
 N   -1.3906237343   -1.7231936741    1.3391695405
 C   -0.0335210667   -2.2872158387    1.3989515986
 C    0.3591585260   -3.1732512702    0.2511462682
 C   -0.4207111464   -4.4046346005   -0.0283887078
 N   -0.5005797552   -3.2482672985   -0.9381398896
 H   -0.7200310036    1.9127549013    0.7347923482
 H   -0.6665985995    1.7576573495   -1.0860229178
 H    1.5382267334    0.9562920449   -0.8845126927
 H   -0.1340518183   -0.6636191023   -0.9229619576
 H   -0.0006828228   -0.2185835564    2.1405070502
 H   -1.8204161886   -1.6895372747    2.2581420690
 H    0.3297409712   -2.6240570881    2.3694751840
 H    1.4250817393   -3.1763845238    0.0305401489
 H    0.0710808021   -5.2836465454   -0.4352815230
 H   -1.2773944235   -4.6105064982    0.6086643241
 H   -1.3569360220   -2.7402976311   -0.7134337681