17

 N    0.0300529999    1.4512936940    0.0289653209
 C   -0.0087000414    0.0168876169   -0.0138610702
 C    0.2191582363   -0.7863155874   -1.3279618248
 O   -0.9505532767   -1.5910003473   -1.0738166048
 C   -1.3465431511   -0.7678044680    0.0423714152
 C   -1.3226273136   -1.5237513569    1.3595835843
 O    0.0563446521   -1.5334213592    1.7852766900
 C    0.7718387254   -0.5693052143    1.1508916950
 N    1.9363546251   -0.1918179991    1.4587616735
 H    0.9524557740    1.7458969614    0.3378160329
 H   -0.1485143713    1.8560674945   -0.8836210644
 H    0.1015831012   -0.1671828311   -2.2288726972
 H    1.1336670806   -1.3825512603   -1.4098199334
 H   -2.2764529229   -0.2223955996   -0.1432883085
 H   -1.9242856651   -1.0228522052    2.1267293885
 H   -1.6515115317   -2.5594899948    1.2500122954
 H    2.2828311591   -0.6854520735    2.2820545974