18

 C   -0.1352838107    1.6130457824    0.0883659237
 C    0.0243992820    0.1113535546    0.0722213388
 N    1.3907175329   -0.4246239304   -0.0530510001
 C    0.6233608148   -0.6882151818    1.1758656236
 C    1.1710888665   -0.0897747711    2.4478785055
 C    2.1282025699   -1.0186906199    3.1617229698
 O    2.3306722964   -2.1737344589    2.8669754229
 C    2.8842840258   -0.4446726432    4.3697592591
 O    2.7564541270    0.6855366370    4.7599271133
 H    0.6822790777    2.0978210539    0.6262488592
 H   -0.1369641724    2.0066878749   -0.9335784123
 H   -1.0813544944    1.9002321835    0.5602179938
 H   -0.7534056373   -0.4065505156   -0.4889519171
 H    1.4091292659   -1.2489085765   -0.6464306488
 H    0.2322456447   -1.6947850109    1.3051772801
 H    1.6892895399    0.8559113569    2.2633254282
 H    0.3679717292    0.1541784770    3.1591590775
 H    3.5597774820   -1.1875655021    4.8446412830