24

 C    0.1323159264    1.4448783151   -0.2900875273
 C    0.2106253471   -0.0686301765   -0.0773984727
 C    0.4203591974   -0.4602635684    1.3918113868
 C    0.4968471070   -1.9594494243    1.5750950062
 N    1.7798084357   -2.6164326195    1.2654066335
 C    1.2607585482   -2.6681941774    2.6443815469
 C    2.0857165811   -1.9316929507    3.6811895039
 C    0.6864461604   -3.9926532631    3.1207063106
 O    1.6699541031   -5.0032006125    3.3022323474
 H    1.0526571954    1.9390780184    0.0406676592
 H   -0.0162715413    1.6925613462   -1.3458246017
 H   -0.6982006024    1.8836763147    0.2746233285
 H   -0.7087373288   -0.5397171558   -0.4508582300
 H    1.0330431891   -0.4874078387   -0.6695468597
 H    1.3391783661    0.0076925173    1.7597972518
 H   -0.4040902995   -0.0644718608    2.0012246233
 H   -0.4048881501   -2.4766306999    1.2411336558
 H    1.6382027974   -3.5117693662    0.8034455372
 H    2.5388328601   -1.0315110340    3.2648315244
 H    1.4748143148   -1.6493501921    4.5462425609
 H    2.9082404521   -2.5631493481    4.0388505125
 H    0.1039172514   -3.8358828909    4.0430428617
 H    0.0008064216   -4.3911501969    2.3650525305
 H    2.2374309277   -4.7418805756    4.0337415903