16

 N   -0.2044828752    1.4198589760   -0.0945410218
 C   -0.0393252068    0.0336762365   -0.0461024734
 N   -1.0901832407   -0.7795041304   -0.0784172058
 N   -0.5555488991   -2.0173920901    0.0741089686
 C    0.7888474757   -2.0040800050    0.1829954302
 C    1.1804249799   -0.6807189789    0.1186892698
 C    2.5533328287   -0.1512617692    0.2123513216
 C    3.4203588892   -0.3749120250    1.3853682253
 O    3.6117289248   -1.1152950048    0.1790603040
 H    0.4826142053    1.8853133274   -0.6737242672
 H   -1.1382849131    1.6628132123   -0.4020186889
 H   -1.1677843216   -2.8134945131    0.0646361243
 H    1.3750946047   -2.9030353792    0.2843047470
 H    2.7583008140    0.7446766472   -0.3776423973
 H    4.2081570112    0.3385560966    1.6255318202
 H    3.0254694530   -0.9432465903    2.2256730134