19

 C    1.1886685741    1.7415112492    0.3177620085
 C    0.2592620830    0.5584402245    0.0141958720
 C    0.6021518534   -0.0332861699   -1.3830124978
 O    1.8288872721   -0.7352733626   -1.4074992678
 C   -0.5083455058   -0.8673085030   -1.8917516245
 N   -1.3878297904   -1.5167166836   -2.2675468553
 C    0.3664297391   -0.4951984424    1.1028714928
 C   -0.6152003445   -0.5535003485    2.2133161363
 N   -0.5758082455   -1.6242268973    1.2043837085
 H    2.2357140227    1.4273035224    0.2728148754
 H    1.0468956285    2.5515646741   -0.4044254493
 H    0.9920271696    2.1386945513    1.3172468055
 H   -0.7782662201    0.9139297327   -0.0336785434
 H    0.7282942631    0.7950975289   -2.0892970839
 H    1.7226879097   -1.5441011952   -0.8923985489
 H    1.3920262481   -0.7811374773    1.3333300092
 H   -0.2964220885   -0.8470143662    3.2092972177
 H   -1.4440005989    0.1503681132    2.1927544357
 H   -1.3400719795   -1.5132910404    0.5421698495