19

 C    0.9045167147    1.1101130426    0.3065842939
 O    0.0642394598    0.0741178059   -0.1795178858
 C    0.5391302432   -0.5986350505   -1.3144779808
 C    1.6931570026   -1.5675859319   -1.1411179514
 C    0.2692341340   -2.0780902975   -1.2438409508
 O   -0.3851573227   -2.5803580134   -0.1257258818
 C    0.3470252046    0.1558639210   -2.5964340376
 C    1.4527168494    0.8130446061   -3.3112655035
 O    0.9189301274   -0.4343013146   -3.7620453828
 H    1.9079850252    0.7344585599    0.5449824057
 H    0.9971533082    1.9280176040   -0.4189815988
 H    0.4372547925    1.4939791777    1.2159888812
 H    2.3541871309   -1.7256456122   -1.9859221039
 H    2.1538671853   -1.6121803532   -0.1600762473
 H   -0.0152620784   -2.5856120890   -2.1602409031
 H   -0.5581502349   -1.8203684244    0.4468976269
 H   -0.6608970663    0.5514120599   -2.7331664790
 H    1.2479890845    1.6659083137   -3.9561947216
 H    2.4591674201    0.7634506759   -2.8993716894