17

 O   -0.0027740002    1.3822738663    0.0892199842
 C    0.0103686265   -0.0136949834    0.0345295130
 C    0.4609942313   -0.6742740277    1.3904038330
 C   -0.8811961770   -1.3442180136    1.7520759034
 C   -1.2881114342   -2.0754244787    0.4545011739
 C   -1.4484670365   -0.5930499247    0.0470719077
 O   -1.8456242146   -0.3022724970    1.4133295238
 C    0.8303994099   -0.4661272558   -1.1502875844
 O    1.3321611535    0.3235765378   -1.9159508537
 H    0.4948345401    1.6787353570   -0.6899315783
 H    1.2858803616   -1.3864517082    1.2935840977
 H    0.7402078464    0.1166873043    2.0869954383
 H   -1.0070439779   -1.7621216731    2.7500821528
 H   -0.5655909356   -2.7187191984   -0.0543685200
 H   -2.2573556060   -2.5655055301    0.5476677789
 H   -2.1332660721   -0.2226834179   -0.7146050747
 H    0.9520080048   -1.5583712870   -1.2900854458