14

 C   -0.0111857950   -1.2399275376   -0.0368158310
 C   -0.0227902246   -0.0395185675   -0.0265870062
 C   -0.0261308871    1.4143142077   -0.0012960218
 C   -0.1620177653    2.0328265465    1.4426796002
 N    1.3028680160    2.1984656337    1.4857941455
 C    1.4116374007    2.0611753240    0.0213836822
 C   -0.9389860264    1.9631706238   -1.0009755247
 N   -1.6523215420    2.4286078505   -1.7819804665
 H   -0.0039891164   -2.3020974639   -0.0497872396
 H   -0.7417216344    2.9639554378    1.4159762569
 H   -0.5737386565    1.3616226444    2.2000860976
 H    1.6272114252    3.0811676729    1.8625183135
 H    2.2200129902    1.4119600741   -0.3231906483
 H    1.4253177856    3.0029998334   -0.5412502479