23

 C    0.1974344255    1.4225219627    0.2502748030
 O   -0.0241610646    0.0486736591    0.0288380535
 C    0.6421233980   -0.4958552608   -1.1045493959
 C    2.1449873825   -0.6682298098   -0.8457942987
 C   -0.0110092768   -1.8343560376   -1.4456540309
 C   -0.4030701388   -2.7638426168   -0.2742252682
 O   -1.7876758517   -2.7608284635   -0.6715057320
 C   -1.5209715250   -1.9199571947   -1.8189348049
 C   -2.3961280802   -0.6813607091   -1.8481306152
 H    1.2369294091    1.6450980647    0.5298694370
 H   -0.0577296854    2.0228364857   -0.6369644489
 H   -0.4527613263    1.7219354401    1.0759742922
 H    0.5066387109    0.1892386524   -1.9600241123
 H    2.6440993687   -1.0631664843   -1.7359968927
 H    2.6226498831    0.2823934047   -0.5941562184
 H    2.3123526463   -1.3636680921   -0.0170625570
 H    0.6169096904   -2.3255434980   -2.1935244057
 H    0.0313748182   -3.7710587898   -0.3044927937
 H   -0.2656151058   -2.3362505354    0.7241214802
 H   -1.6740421727   -2.4922536163   -2.7464331926
 H   -2.2672929135   -0.0916620901   -0.9402073014
 H   -2.1564560925   -0.0598002104   -2.7187113819
 H   -3.4459125697   -0.9812458206   -1.9308246355