18

 O    0.1334802692    1.4007028008   -0.1961387339
 C    0.0359629201    0.0162355780   -0.0343153926
 C   -0.0048879633   -0.6600123020    1.3692719345
 C   -1.4770809536   -0.1628845690    1.5067213868
 C   -1.3569101585   -0.6962531425    0.0455170873
 C   -2.4238862980   -0.6946555649   -1.0335762795
 C   -3.6439823213   -1.3857995464   -0.6195047602
 N   -4.5954803613   -1.9375327503   -0.2648842680
 C   -0.5845618296   -1.9069375388    0.6406323944
 H   -0.3346354527    1.8430436246    0.5192381142
 H    0.7376304050   -0.4210035745   -0.7503662932
 H    0.7701751706   -0.6483232896    2.1349003222
 H   -2.1231122616   -0.7348477294    2.1763488454
 H   -1.6540562940    0.9086593341    1.6446389576
 H   -2.6748938584    0.3389852181   -1.3011166418
 H   -2.0397335495   -1.1709408728   -1.9435592485
 H    0.0877896465   -2.4437928527   -0.0348372119
 H   -1.1710469095   -2.5910879828    1.2560646971