11

 N   -0.0582334193    1.3624161584    0.1551853376
 C    0.0067646630   -0.0022669153    0.0465453255
 N   -1.0707834376   -0.7868297985    0.0309198721
 N   -0.5443405774   -2.0179480438   -0.0153898604
 N    0.7599984708   -2.1160563613   -0.0378029770
 C    1.1599565686   -0.8332336797    0.0007029735
 C    2.5142901615   -0.4278665571   -0.0150073280
 N    3.5977923774   -0.0185146615   -0.0321498248
 H    0.7414307992    1.8672655456   -0.1957966842
 H   -0.9431769180    1.7682235896   -0.1095502463
 H   -1.1331274982   -2.8353353264   -0.0335887380