23

 C   -0.0828521596    1.4465263792    0.3827263115
 C   -0.1191792934   -0.0683210282    0.1681664300
 C   -1.5333586298   -0.6061290829   -0.0838394782
 C   -1.5551846108   -2.1158918453   -0.2499625398
 O   -1.1417037798   -2.8197861286    0.9483400785
 C   -2.3601966095   -3.6019027202    0.9949281421
 C   -3.0920937271   -3.4737786430    2.3162187548
 C   -2.9229858971   -2.8552641081   -0.2486527942
 O   -4.1031190071   -2.1057850386   -0.1171192131
 H    0.9383833709    1.7985638174    0.5586370082
 H   -0.4743424530    1.9820947107   -0.4895512923
 H   -0.6881717670    1.7392069397    1.2480574322
 H    0.5228988890   -0.3361457615   -0.6812381894
 H    0.2978740490   -0.5813332275    1.0419720772
 H   -2.1797849736   -0.3150506200    0.7557459770
 H   -1.9618304251   -0.1481004355   -0.9851205763
 H   -0.9171896628   -2.4015332637   -1.0994168033
 H   -2.1437554629   -4.6599764937    0.7912678114
 H   -3.3307395611   -2.4312155104    2.5497863553
 H   -4.0240262901   -4.0475615040    2.2980188938
 H   -2.4645214767   -3.8572998362    3.1262929990
 H   -3.0847761303   -3.4964456842   -1.1171120864
 H   -4.0078616622   -1.5010008554    0.6253577021