18

 C    0.0692664372    1.5792177599   -0.1950344575
 C    0.0020162275    0.0866125382    0.0200935404
 N    1.2746334398   -0.6771967090    0.0043067683
 C    0.5246142373   -0.6154393288    1.2452521874
 C    1.1451453194    0.1374302710    2.4148624788
 C    1.9407944989   -0.7438333868    3.2630095866
 C    2.5805817885   -1.4925792183    3.9512677281
 C   -1.1624433794   -0.6090318053   -0.6015243287
 O   -2.0579961487   -0.0620123495   -1.1923891590
 H    0.9981780575    1.9938369193    0.1980821414
 H    0.0184816415    1.8033283576   -1.2640577993
 H   -0.7790145977    2.0760767360    0.2842349218
 H    1.1600576160   -1.5790786286   -0.4561788997
 H   -0.0170095919   -1.5112051973    1.5483539294
 H    1.7722692997    0.9484148483    2.0332736099
 H    0.3474263395    0.6002080441    3.0100834147
 H    3.1562661544   -2.1417400921    4.5633576420
 H   -1.1329790595   -1.7210045886   -0.4860737445