13

 O   -0.1491832442    1.4258608422    0.1292519858
 C   -0.0428061461    0.0308969112    0.0478765523
 C    0.8614619866   -0.5253337802    1.0610428575
 N    1.5999015588   -0.9412844634    1.8467420270
 C   -1.3815874881   -0.7042499456   -0.0414438162
 C   -2.0995032898   -0.3284830439   -1.2619422092
 N   -1.0139341686   -1.3569545162   -1.3870428200
 C    0.2142917677   -0.6006534479   -1.3773440285
 O    1.1009180696   -0.5451755036   -2.1628302282
 H    0.7281635155    1.8070303120   -0.0018513914
 H   -1.8021650883   -1.3034661792    0.7546233499
 H   -3.0818926734   -0.7583913242   -1.4215643885
 H   -1.9432832998    0.6507782088   -1.7022255806