21

 C    0.0103047662    1.4166251216   -0.3671756523
 C    0.0214934859   -0.0002219756    0.2183632509
 C   -1.3459165631   -0.6579375604    0.1562507774
 C   -1.9548731004   -1.2690346353   -1.1101454331
 C   -0.9366022727   -2.0854490471   -1.8388038490
 O   -0.6479276860   -2.2048602818   -2.9973649803
 C   -0.5681829166   -2.9082381827   -0.5772646086
 C   -1.6539854972   -2.1153074572    0.1767449081
 C   -2.6416836820   -2.7498533084    1.1129382670
 H    0.9981790187    1.8809021118   -0.2939022626
 H   -0.2782299210    1.4010107845   -1.4229667289
 H   -0.7008618759    2.0592913449    0.1635652775
 H    0.7647003686   -0.6042691369   -0.3109057199
 H    0.3456036559    0.0367991142    1.2667493252
 H   -2.1062317169   -0.0781114018    0.6815254541
 H   -2.8911192284   -0.9042431502   -1.5168913222
 H   -0.8433658486   -3.9559498482   -0.7371120391
 H    0.4580860845   -2.8663323289   -0.2029202557
 H   -2.1561225197   -3.0505759716    2.0490686230
 H   -3.4491309973   -2.0562032094    1.3685868589
 H   -3.0908181541   -3.6462488114    0.6712120495