22

 C   -0.1070752726    1.5712455565    0.1318685649
 C   -0.0001717775    0.0718443975   -0.0267926004
 C    0.6219162038   -0.6853586450   -1.1497287548
 C    1.5778050364   -0.0590204210   -2.1616132770
 C    0.9291432794    0.8394416386   -3.2196600378
 C    2.7002714549    0.6042618410   -1.3150677122
 O    2.5979479580    2.0254955980   -1.3894516734
 C    2.5045318332    0.0203206615    0.1143564170
 N    1.2311299152   -0.7202799614    0.1989286856
 H    0.7016069053    2.1196804771   -0.3494635200
 H   -1.0580593078    1.9145036857   -0.2906794534
 H   -0.1159173319    1.8320769386    1.1973726902
 H   -0.8483307189   -0.4407190960    0.4286996408
 H    0.1351872286   -1.6046504126   -1.4717221164
 H    2.0445793424   -0.9024038583   -2.6861961952
 H    0.4407078231    1.7053273003   -2.7701350543
 H    1.6729006503    1.2094108955   -3.9313256295
 H    0.1770887664    0.2743466202   -3.7796861137
 H    3.6836685948    0.3128365251   -1.7087217262
 H    3.3211371196    2.3993918908   -0.8770760395
 H    3.3034220635   -0.6942547163    0.3416913252
 H    2.5525994636    0.8141530740    0.8689317302