17

 C    0.0260749332    1.4636236399   -0.1361717134
 C   -0.0350346943   -0.0256175937    0.0483066337
 C   -1.2577114917   -0.8219895039   -0.3738653072
 O   -1.1216619536   -2.1099680324    0.2146913791
 C   -0.2765624151   -2.0260293668    1.3666111669
 C    0.4631872070   -3.2712115370    1.5346481653
 C    1.0826639994   -4.2835648658    1.7160618840
 C    0.5898564315   -0.7946081640    1.1278302520
 O    1.1743464228   -0.7734140301   -0.1723184045
 H    0.9602905329    1.8601399884    0.2678521280
 H   -0.0210071999    1.7233582471   -1.1992500563
 H   -0.8128279514    1.9544184564    0.3678017337
 H   -2.1691462967   -0.3120690494   -0.0214681491
 H   -1.3301114697   -0.9579029177   -1.4580996150
 H   -0.8799186554   -1.8420229430    2.2733288963
 H    1.6319298632   -5.1809964863    1.8602721188
 H    1.1683545079   -0.3651366417    1.9409568678