21

 C   -0.0621322663    1.5082415054    0.0110408578
 C    1.2582975598    0.7640704008   -0.0063725436
 C   -0.0376276817    0.0093385758    0.0022753307
 C   -0.4616169858   -0.9676179595    1.1029721409
 C   -1.9983632244   -1.0049362587    1.3133372106
 C   -2.1656444382   -1.8329664642    0.0130166041
 C   -2.0242441044   -0.9901684733   -1.2808720865
 C   -0.4836032223   -0.9550720987   -1.1007953919
 C   -0.6116623142   -2.0782567452   -0.0038825454
 H   -0.3504907725    2.0131014349    0.9280396475
 H   -0.3686953156    2.0234641900   -0.8942133128
 H    1.8390597385    0.7773252446   -0.9237673288
 H    1.8572622103    0.7669689733    0.8993351964
 H    0.1788101478   -1.0450739988    1.9836007936
 H   -2.2529742082   -1.6092878621    2.1897474590
 H   -2.5249860408   -0.0469805428    1.3827729064
 H   -2.9159883718   -2.6242989508    0.0159977896
 H   -2.2963565720   -1.5845334888   -2.1588513779
 H   -2.5520395921   -0.0315447425   -1.3288790919
 H    0.1391198200   -1.0224241631   -1.9948495444
 H   -0.1073450659   -3.0413709564   -0.0143967237