18

 C    0.2335036557    1.5128940691   -0.0956127247
 C    0.0161801278    0.0387838333    0.1259540470
 O    1.1637323488   -0.8462203166    0.1264965812
 C    0.4523140701   -0.6941377486    1.3461714971
 C    1.1780635953   -0.0278041358    2.4774754529
 C    2.4600782175   -0.6122543116    2.9493212780
 N    2.4421209767    0.6726627154    2.2293938825
 C   -1.1443213959   -0.5840552691   -0.5988007319
 O   -2.0317276329    0.0387008908   -1.1210875956
 H    0.9423385054    1.9363248695    0.6155295680
 H    0.5979984069    1.6887353071   -1.1123854206
 H   -0.7253413192    2.0288157274    0.0004018795
 H   -0.1297484894   -1.5725588061    1.6364452002
 H    0.5253139871    0.4542936009    3.2025546408
 H    2.7287807161   -0.5523637790    3.9996884409
 H    2.8368293793   -1.4870955872    2.4258990738
 H    2.7101545960    0.4991894064    1.2616574428
 H   -1.1077987852   -1.6962331060   -0.6105178721