17

 O   -0.0954790647    1.3164106690    0.1126706186
 C   -0.0124554276   -0.0319463335   -0.0212936838
 C   -0.1026060456   -0.7679850665   -1.1782043885
 N    0.0409841423   -2.0942591553   -0.8159060870
 C    0.2183857094   -2.2108406543    0.5354434795
 C    0.1896123808   -0.9323256213    1.0628930471
 N    0.3167044585   -0.4237192197    2.3817976299
 C   -0.2372084453   -1.1962872056    3.4993590725
 C    1.2334012114   -1.0872755109    3.3156025189
 H    0.0109842343    1.4802056780    1.0615558773
 H   -0.2525400462   -0.4698619067   -2.2012475223
 H    0.0177636532   -2.8643274485   -1.4585856237
 H    0.3478236425   -3.1745479368    1.0004083674
 H   -0.7371367671   -0.6135192212    4.2683076187
 H   -0.7110680854   -2.1448643324    3.2610206882
 H    1.7670603645   -1.9611658628    2.9513633576
 H    1.8162426547   -0.4242433115    3.9492526397