21

 C   -0.0152333044    1.5719223097    0.0197813124
 C    0.0521428770    0.0454437256   -0.0120530602
 C    0.7293667461   -0.4840864849   -1.2783588978
 C    0.8977314895   -2.0039635421   -1.2136269842
 C    1.6874014298   -2.5553946798   -2.4002321320
 N    1.5815591437   -2.3332970117    0.0308209523
 C    1.4103033064   -1.6740068071    1.2302294735
 O    1.8197342494   -2.1246293897    2.2868866284
 N    0.8000941167   -0.4402514679    1.1409331468
 H    0.9892697509    2.0036464444   -0.0284034993
 H   -0.6014825128    1.9493484806   -0.8235932863
 H   -0.4931347806    1.9234826934    0.9406905367
 H   -0.9810262171   -0.3428473955    0.0088008145
 H    0.1311495167   -0.2169431754   -2.1549632644
 H    1.7150431416   -0.0149192717   -1.3849476543
 H   -0.1080692015   -2.4586011845   -1.2313996948
 H    2.6859020414   -2.1091496751   -2.4401623363
 H    1.8029174198   -3.6419823094   -2.3225046994
 H    1.1689649624   -2.3429237786   -3.3401785351
 H    1.9267165505   -3.2727243252    0.1529135206
 H    0.5948571547   -0.0449941850    2.0454786688