20

 C    0.0579029848    1.5456286755   -0.0852629711
 C    0.0411395693    0.0212095588    0.0364070294
 O    0.5938672784   -0.4672498082   -1.1775793249
 C    0.9038724558   -1.8475091993   -1.1485278997
 C    2.0190613975   -2.1256099462   -0.1420698493
 C    1.6825289328   -1.4594583700    1.1641988189
 C    0.7658813494   -0.4949062778    1.2689690968
 C    0.3678232746    0.0998370104    2.5933764660
 H    1.0872882196    1.9161543093   -0.0869191054
 H   -0.4152269058    1.8358236406   -1.0268532160
 H   -0.4868604546    2.0176058363    0.7360331128
 H   -1.0152688018   -0.3068073249    0.1079075795
 H    0.0097216988   -2.4369564009   -0.8848474804
 H    1.1979044367   -2.1169652921   -2.1671713311
 H    2.1350966795   -3.2079433288   -0.0008404373
 H    2.9792157870   -1.7603356289   -0.5322325108
 H    2.1975712303   -1.8077476953    2.0572450111
 H    0.8506806218   -0.4279425348    3.4200693935
 H    0.6371624534    1.1600510650    2.6667661584
 H   -0.7180619577    0.0420066814    2.7449540994