14

 O   -0.2114563383    0.0215468250    0.0015941158
 C   -0.0267252043    1.2128403315    0.0091755372
 C    1.2736654554    1.9118340381    0.0006196859
 C    1.2674124744    3.2869663145    0.0118455411
 C    2.4472225887    4.0625903535    0.0055807654
 C    3.6392660354    3.3951316022   -0.0125226846
 N    3.6692688068    2.0445250986   -0.0238841050
 C    2.5401746269    1.1757638724   -0.0190855295
 O    2.7256666960   -0.0211329643   -0.0309894472
 H   -0.8861084582    1.9267117522    0.0231525206
 H    0.3030446795    3.7913670989    0.0262501305
 H    2.4212351121    5.1428789833    0.0146926924
 H    4.6003439618    3.8969019080   -0.0186021202
 H    4.5518602639    1.5500696261   -0.0373747225