17

 O   -0.1667828425    1.4978940739    0.0217317584
 C   -0.1360130692    0.1111194502   -0.0892893970
 C   -0.2925591491   -0.8289856624    1.0986116602
 C   -1.3373442206   -0.2438432418    2.0350635712
 O   -2.2773457484   -0.0436827205    0.9319214687
 C   -1.3765907330   -0.7048822413    0.0243278044
 C   -1.9596412057   -1.6357552317   -0.9709528200
 C   -2.1061564533   -1.2493515030   -2.3837987426
 O   -1.0472714743   -2.1097621086   -1.9614723882
 H   -1.0750634498    1.7274708929    0.2618971301
 H    0.5780438069   -0.2354535029   -0.8295395362
 H    0.3954866140   -1.6335766300    1.3206539255
 H   -1.7498245700   -0.9589689744    2.7530395170
 H   -1.0903004721    0.6967795967    2.5388815861
 H   -2.6327321271   -2.3926539130   -0.5670762371
 H   -2.8766631873   -1.7220715228   -2.9901831811
 H   -1.8001426884   -0.2523372514   -2.6947921092