16

 O   -0.1140473194    0.0291742102   -0.1729524308
 C    0.0003906793    1.2200956564   -0.0862305019
 C    1.3385392140    1.9596858275   -0.0495700895
 C    2.5871684652    1.1528527362   -0.5785304032
 C    2.6949504382    2.1553721714   -1.7316162923
 N    1.4055791353    2.1080205218   -2.4614841045
 C    1.5327019063    2.9394770911   -1.2444945477
 C    1.5027436632    2.5817703894    1.2492160284
 C    1.5996334986    3.0972793429    2.3316906713
 H   -0.8811862238    1.8947073740   -0.0170881212
 H    3.4222489814    1.2028139841    0.1199292529
 H    2.3726007132    0.1195565593   -0.8538950772
 H    3.5960891703    2.5003920274   -2.2217467637
 H    1.4802635548    2.7352211568   -3.2616893720
 H    1.3345865890    4.0033073387   -1.2416012770
 H    1.6983264344    3.5481551628    3.2882419085