20

 C    0.1589089524    1.6792475623   -0.0582958120
 C    0.1106844085    0.1490252944    0.0047227749
 C    0.6901762746   -0.5449897763   -1.2572179730
 C    1.3737785832   -1.8404940351   -0.7576504650
 C    1.6042069240   -1.5549942945    0.7037867532
 C    0.9292274951   -0.4783697994    1.1241730301
 C    0.8084926652   -0.0043485246    2.5295436970
 N    1.8485131348   -0.3316566450    3.3665059605
 O   -0.1730365718    0.6032792678    2.9244068141
 H    1.1897792677    2.0328474127   -0.1782907047
 H   -0.4206662742    2.0468929290   -0.9116968933
 H   -0.2532352929    2.1151608476    0.8539026726
 H   -0.9376953570   -0.1463655022    0.1525170780
 H   -0.0692794002   -0.7309780720   -2.0207885183
 H    1.4441384060    0.1119876397   -1.7059166310
 H    0.7230444022   -2.7199581703   -0.8679967569
 H    2.2966536903   -2.0766508636   -1.2996356026
 H    2.1867220931   -2.2120562582    1.3416350519
 H    2.7531313814   -0.5431158535    2.9810947543
 H    1.8242019778    0.0853521610    4.2840850800