19

 C    0.0662334940    1.6000572685    0.0695640666
 C    1.6270540144    1.3747937196    0.0413263159
 C    1.2971385072   -0.0294033997    0.4927624400
 C    1.4913772060   -0.8966681491    1.4838051344
 C    0.1995285850   -1.6261696881    1.8028829123
 C   -0.5267303654   -1.0394227533    3.0362497981
 O   -1.3046843179   -0.1496453326    2.2063514011
 C   -0.8887862517   -0.8262070235    0.9997878050
 C   -0.1247826839    0.0435599171   -0.0002727438
 H   -0.2669406799    1.9840810308    1.0347539687
 H   -0.3619699559    2.1914292686   -0.7424586870
 H    2.0118264582    1.4263525616   -0.9828346436
 H    2.2557416986    1.9882361676    0.6905048524
 H    2.3696967119   -0.9768061000    2.1154651651
 H    0.2294292978   -2.7168147692    1.7335636830
 H   -1.1672703879   -1.7582591844    3.5662238885
 H    0.0858681719   -0.4938612345    3.7631241821
 H   -1.7148984847   -1.4029575661    0.5677343891
 H   -0.2704979479   -0.2903311431   -1.0343388178