15

 C   -0.3331637696    1.4397619539    0.1277977157
 C   -0.0481781549   -0.0360611800   -0.0005972396
 C   -0.3530528070   -0.7096643140   -1.1488411341
 N    0.0630637828   -1.9584766144   -1.5356464254
 C    0.3171625097   -2.9307246983   -0.7431354776
 C   -0.0091501435   -2.9045360483    0.7233168500
 O   -0.7431187569   -3.7142952421    1.2381650421
 N    0.6829379112   -1.9210109491    1.4094990898
 C    0.6662946632   -0.6744330985    1.0844920212
 H   -0.9534459775    1.6485841548    1.0064448404
 H    0.5935435788    2.0139993103    0.2461839882
 H   -0.8530076562    1.8208011116   -0.7540639094
 H   -0.8685346254   -0.1689671954   -1.9398519386
 H    0.7357054605   -3.8487665343   -1.1574356809
 H    1.2585344048   -0.0117155761    1.7218753180