17

 C   -0.0278462604    1.4677509681    0.0443213397
 C    1.4690429089    1.9356244886    0.1103660339
 C    2.1773505273    0.7989049605   -0.6386555509
 C    3.3970823159   -0.0841070135   -0.2520449706
 N    3.1553298339   -0.6811343208    1.0757445600
 C    2.5015740974   -1.2859793191   -0.1391121715
 C    1.3012570109   -0.3962297629   -0.3299966023
 C    0.0732855161   -0.0610166315    0.0446943504
 H   -0.6132558810    1.8338478467    0.8948393823
 H   -0.5245860599    1.8492639508   -0.8600278254
 H    1.6219486966    2.9323335265   -0.3133443988
 H    1.7923103061    1.9455986409    1.1559251462
 H    2.2262269530    0.9804764287   -1.7214832449
 H    4.4008761636   -0.0155793895   -0.6539744011
 H    3.9669604751   -1.2656034594    1.2840115168
 H    2.6743869625   -2.3236788762   -0.3927717725
 H   -0.7284472860   -0.7082580480    0.3799766488