25

 C    0.0276241997    1.5286855332   -0.0916329184
 C    0.0657010323    0.0038755401    0.0858290176
 C    0.7392483415   -0.3774053549    1.4112477399
 C   -1.3434425896   -0.5879488769   -0.0202136797
 C   -2.0937979737   -0.5254287644   -1.3966886432
 C   -2.3080919524   -2.0399667384   -1.3288302088
 C   -0.9800390108   -2.7420903030   -1.2492042806
 C   -1.5491702113   -2.1210597800    0.0002563664
 C   -1.8736217901   -2.9236729582    1.2296465908
 H    1.0361300392    1.9549656157   -0.0670046861
 H   -0.4324649579    1.8128311440   -1.0435430996
 H   -0.5513038322    2.0010562225    0.7114548968
 H    0.6725325553   -0.4115822985   -0.7309211814
 H    0.1587005683   -0.0106472891    2.2666805726
 H    0.8371802895   -1.4622554735    1.5136957684
 H    1.7424940168    0.0562866295    1.4832051553
 H   -1.9710917583   -0.1328253619    0.7570943463
 H   -3.0169229523    0.0564477448   -1.3504970780
 H   -1.5053431026   -0.1721102820   -2.2517491376
 H   -3.2113522525   -2.5626201898   -1.6221157887
 H   -1.0243572693   -3.8267962203   -1.2774505494
 H   -0.1081891531   -2.3271638377   -1.7503269970
 H   -0.9980406107   -3.0560552018    1.8763431998
 H   -2.6528028465   -2.4360731682    1.8277349300
 H   -2.2364521293   -3.9222104710    0.9624425146