13

 O    0.0829794852    1.3616544057    0.0187841454
 C    0.0604608027    0.0202971494   -0.0590009369
 C   -0.0082812545   -0.7572492438   -1.1659740160
 O   -0.0031010594   -2.0766032808   -0.7229136695
 C    0.0676684509   -1.9779520145    0.6015983642
 N    0.0929736082   -3.1161303787    1.3801871920
 C    0.0531216950   -4.4393387390    0.9802578898
 O   -0.0123389417   -4.8353052240   -0.1533985675
 N    0.1092221499   -0.7662034363    1.0777754291
 H    0.1350581226    1.5871518433    0.9552164589
 H   -0.0617557531   -0.5988969055   -2.2255829128
 H    0.1478268890   -2.9231019492    2.3694769131
 H    0.0907527153   -5.1023343766    1.8659839803