18

 C    0.0240049061    1.4450922426   -0.0075943786
 O    1.2155602210    0.6395132078    0.0119938450
 C   -0.0480864856   -0.0120530730    0.0069055661
 C   -0.5860103554   -0.9168259061    1.0871513617
 C   -1.3416836642   -1.6915588321    0.0406691398
 C   -0.5451244915   -0.9745336759   -1.0907989610
 C    0.5777827631   -1.9552458396   -1.4436114365
 C    0.8803161132   -2.6014539574   -0.0663313733
 N   -0.2914424289   -2.3335978666    0.8060374089
 H   -0.1689842095    2.0108069297    0.9036979330
 H   -0.1589919125    1.9875989312   -0.9345883304
 H   -0.8487100558   -0.6449455667    2.1036180422
 H   -2.3577882893   -2.0642362951    0.0311820632
 H   -1.0821679982   -0.5321551209   -1.9292812461
 H    0.2346203524   -2.6969694328   -2.1723541345
 H    1.4480536953   -1.4407000127   -1.8589653983
 H    1.0079267390   -3.6849338688   -0.1378852025
 H    1.7780353010   -2.1840207639    0.3966310812