25

 C   -0.3700793939    1.5737541555    0.0557418150
 C   -0.1080903122    0.0653948303    0.0913985273
 C    0.6112982850   -0.4793626254   -1.1389796373
 C    2.1108266180   -0.3267418250   -1.2428662746
 C    1.5120881500   -1.6058755679   -0.7062091562
 C    1.3720190632   -1.7856076140    0.8024944008
 C    2.6596668889   -2.2152125240    1.5113395667
 C    0.6939009596   -0.4723839837    1.3272750066
 C    1.6359188753    0.5394897831    2.0004290784
 H    0.5601947697    2.1455641397   -0.0150876190
 H   -0.9815647669    1.8334710673   -0.8151387003
 H   -0.9083484000    1.9127930484    0.9476183751
 H   -1.0873103188   -0.4336461760    0.1133153966
 H    0.0454578466   -0.5360323294   -2.0638172528
 H    2.5346962199   -0.3712002683   -2.2408532689
 H    2.6392343725    0.3495980844   -0.5821925244
 H    1.6184268318   -2.5031604957   -1.3081089063
 H    0.6393996996   -2.5930440737    0.9428834249
 H    3.4603123794   -1.4812896477    1.3782345152
 H    2.5033759806   -2.3538771379    2.5867324379
 H    3.0176165911   -3.1678620901    1.1062088057
 H   -0.0292415848   -0.7530325899    2.1019144544
 H    2.4248970412    0.9189868132    1.3460787498
 H    1.0720228254    1.4039143500    2.3634342535
 H    2.1243529187    0.0878822267    2.8690276720