17

 C   -0.1776644038    1.7509015860    0.3036270986
 C    0.0880504692    0.2585903217    0.0610692209
 C    0.8832876471   -0.1057866177   -1.1955694979
 C    1.6877201743   -1.3330942360   -0.7440890982
 O    1.8474402372   -1.2003312212    0.6852578706
 C    0.9577824848   -0.3227523799    1.1967735889
 O    0.8760136047   -0.0700408294    2.3643516853
 C   -1.2459522962   -0.4947365973    0.1275553078
 O   -1.6413709374   -1.2546730958   -0.7166213560
 H    0.7612508101    2.3108304289    0.2892839754
 H   -0.8369106824    2.1619672798   -0.4666348414
 H   -0.6397234430    1.8985893453    1.2830595612
 H    0.2347907451   -0.3369907972   -2.0417587971
 H    1.5505818988    0.7158662530   -1.4697182283
 H    1.1535563872   -2.2667996648   -0.9424002655
 H    2.6865531928   -1.3913411237   -1.1796170638
 H   -1.8379235485   -0.2766710317    1.0416281294