15

 C    0.1033983377   -1.1990268357    0.0302247154
 C    0.0501377883    0.0018233369   -0.0105916836
 C   -0.0585638493    1.4198697547   -0.0313511513
 C    0.2785104711    2.2778499816   -1.1932623157
 N    1.1355233917    2.3923794643   -0.0076028630
 C    0.3731387866    3.2531667108    0.9563602837
 C   -0.8105609560    2.2391114954    1.0403331412
 C   -2.1542769297    2.6943645919    0.7172724769
 N   -3.2081561437    3.0818521852    0.4416111153
 H    0.1592320736   -2.2594793837    0.0582320307
 H    0.7690442299    1.7858710352   -2.0260665522
 H   -0.3813384046    3.1005310354   -1.4631230589
 H    0.9149530756    3.3467169081    1.8973001236
 H    0.1322779085    4.2455815291    0.5665962334
 H   -0.8203217496    1.7190892009    1.9994678244