21

 C   -0.3405075575    1.2503272620    0.0688049419
 O    0.3323771032    0.0195472151   -0.1264832745
 C    0.7549423149   -0.5997083070    1.0606461289
 C    1.9959785901    0.0624636577    1.6468516392
 C   -0.1682097798   -1.1905294808    2.0960757627
 C   -1.3988742797   -1.9920632504    1.5918655341
 C   -1.5809366011   -2.0739837065    0.0947918034
 C   -0.4996936172   -2.8833868826    0.7560291718
 C    0.7464409788   -2.0891605893    1.2296388965
 H    0.3230965403    2.0298629261    0.4675749697
 H   -0.7009799669    1.5718170727   -0.9113304911
 H   -1.1962370913    1.1367895363    0.7481240701
 H    1.7906280933    1.0923201604    1.9551755288
 H    2.3586505414   -0.4792568111    2.5242377346
 H    2.7917514758    0.0825503125    0.8961001394
 H   -0.0543711591   -0.9460193152    3.1462764335
 H   -2.1817758652   -2.2940048246    2.2757222726
 H   -2.4446521100   -2.6711773707   -0.1876447574
 H   -1.3535473764   -1.2590268410   -0.5740183389
 H   -0.4833522339   -3.9651063960    0.7205740539
 H    1.6509574903   -2.6040168178    1.5332693507