19

 C   -0.1529691750    1.5613303994    0.1079412297
 N    0.0137316380    0.1201048388   -0.0219063450
 C    0.4963340981   -0.4861871286   -1.2576833248
 C    0.9415602363    0.3442060162   -2.4600246828
 C    2.4536958064    0.5852601864   -2.4612149078
 N    2.9032406760    1.0415733696   -1.1484224385
 C    2.5818459660    0.3989445550    0.0225971213
 O    3.2221127679    0.5512383500    1.0458874331
 C    1.3531295233   -0.4763373359   -0.0242246412
 H    0.6112360435    2.1721932288   -0.3918005669
 H   -1.1342691071    1.8341991621   -0.2932983756
 H   -0.1404388961    1.8102396626    1.1727417399
 H   -0.0223234226   -1.4108815359   -1.5018943560
 H    0.6654023109   -0.1776942646   -3.3806868007
 H    0.4171801270    1.3053423751   -2.4754687915
 H    2.9765851857   -0.3373187036   -2.7555660428
 H    2.7174060630    1.3524106987   -3.1955866936
 H    3.7799664409    1.5422543194   -1.0975179644
 H    1.4544008577   -1.3568802935    0.6044265174