21

 C   -0.1168833407    1.5107386217    0.0360439030
 C    0.0502473883   -0.0049750734    0.0034174820
 C    1.0455488719   -0.5950589537   -1.0322539954
 C    2.3779468359   -0.0942674718   -0.4558277325
 O    2.1822122684   -0.1670626047    0.9695844473
 C    0.8348620220   -0.6225272436    1.1717511350
 C    0.8087992638   -2.1264696222    0.8442689947
 O   -0.4288644990   -2.6627454772    1.2889298891
 C    0.9582844939   -2.1068938112   -0.7151953589
 H    0.8227848551    2.0196197122    0.2661177494
 H   -0.4837362635    1.8879154572   -0.9246168510
 H   -0.8434129879    1.8003423347    0.8023078036
 H   -0.9259468088   -0.4907628284   -0.0869158425
 H    0.8817728080   -0.3322465916   -2.0786361926
 H    3.2270223617   -0.7261742298   -0.7447253673
 H    2.6073357822    0.9395440887   -0.7433562158
 H    0.5290928524   -0.3747024217    2.1883766520
 H    1.6533842800   -2.6274549770    1.3339160253
 H   -0.4666069591   -3.5875752837    1.0262306437
 H    0.0670063343   -2.5534631157   -1.1668846224
 H    1.8345271409   -2.6596870488   -1.0670450065