23

 C   -0.0485714682    1.5427678108   -0.0039272396
 C   -0.0156226315    0.0358536617   -0.0166716298
 C   -0.0219372000   -0.6485277953   -1.1627382619
 C    0.0456372624   -2.1466173690   -1.2396392892
 O    0.3544288492   -2.7525240044    0.0002342735
 C   -0.3744889250   -2.1710915281    1.0635167921
 C    0.0396136343   -0.7085860289    1.3188759501
 C    1.4766907052   -0.6781994278    1.8823949486
 C   -0.9382105760   -0.1068593748    2.3449995415
 H    0.7899008438    1.9615742728    0.5658223648
 H    0.0053580104    1.9431339446   -1.0197559930
 H   -0.9638700553    1.9274389187    0.4608547483
 H   -0.0803184136   -0.1251945662   -2.1150988693
 H   -0.9074033790   -2.5467162387   -1.6360256728
 H    0.8307786566   -2.4610446703   -1.9381503974
 H   -1.4573339711   -2.2190580624    0.8579756402
 H   -0.1702053378   -2.7859100522    1.9465008797
 H    2.1506671676   -1.2362412229    1.2279081302
 H    1.8538505592    0.3450191691    1.9747435690
 H    1.5077316570   -1.1339062704    2.8789464180
 H   -0.9584034547   -0.7203709654    3.2528721626
 H   -0.6427292526    0.9036516162    2.6408891008
 H   -1.9583851209   -0.0590347068    1.9491268737