23

 O   -0.1513252657    1.5353347456    0.2717294702
 C    0.0311185075    0.1263609343    0.1912402884
 C   -1.3331848175   -0.5056589954   -0.0845103100
 C   -1.9074665788   -0.1126677193   -1.4748188969
 C   -1.7202931677   -1.2040434019   -2.5599842014
 C   -1.6753552237   -2.6095280476   -1.9381121321
 C   -2.5346057258   -2.6711687269   -0.6394548251
 C   -1.3068100660   -2.0368221174    0.0789274989
 C   -0.4327181761   -2.7156864335   -1.0161608983
 H    0.7148128998    1.9473322874    0.3360738700
 H    0.7446971025   -0.1276398266   -0.6073306700
 H    0.4392152104   -0.2721449905    1.1348826511
 H   -2.0039304351   -0.0960618440    0.6820335995
 H   -2.9796823705    0.0712426985   -1.3585469260
 H   -1.4782526158    0.8413572627   -1.7920536577
 H   -2.5391020504   -1.1316112434   -3.2851912943
 H   -0.7947915245   -1.0426212162   -3.1272018468
 H   -1.8208926319   -3.3889735080   -2.6905594428
 H   -3.4892267187   -2.1379725996   -0.6119026430
 H   -2.6941419006   -3.7035493970   -0.3166165374
 H   -1.1195814001   -2.3175493501    1.1194809388
 H   -0.2073930330   -3.7530135437   -0.7523386378
 H    0.4889629514   -2.2253409072   -1.3430252071