17

 C   -0.0686553820    1.5452825305   -0.0292925853
 C    0.0610473136    0.0393176781    0.0136321452
 C    1.3886848585   -0.6489501600   -0.1717796863
 O    2.5598387620    0.1015957638   -0.2551966947
 C    0.7311911234   -0.6725469314    1.2033010834
 C    1.3434955491    0.1117009135    2.3549972366
 C    0.1335491005   -1.9269366298    1.5885754924
 N   -0.3511591363   -2.9313160301    1.8982332008
 H    0.8673982158    2.0422565700    0.2321284931
 H   -0.3477974433    1.8683118596   -1.0380655635
 H   -0.8466710906    1.8964408884    0.6554274400
 H   -0.7896351716   -0.4983123199   -0.3950150098
 H    1.4051959099   -1.5894464043   -0.7201993142
 H    2.6101724810    0.4834844571   -1.1381780879
 H    1.9377215811    0.9444276964    1.9810552064
 H    0.5654646959    0.4956080578    3.0210649467
 H    2.0032646030   -0.5342720097    2.9405016771