13

 O    0.0663830035    0.0748996980    0.0193296650
 C    0.0149336783    1.2648409793   -0.0418359581
 C   -1.0914722557    2.2835386002    0.0226191690
 C   -0.1259837668    3.2127023108    0.7967391172
 C    1.0465729225    2.4098753048    0.0944237491
 N    0.8268097971    3.1411068956   -1.2066301498
 C   -0.4805986909    3.5424587271   -0.6217974100
 C   -1.2993386206    4.5879090550   -1.1453614935
 N   -1.9461874829    5.4512896713   -1.5620245131
 H   -2.1586883485    2.1667760355    0.1462588881
 H   -0.2718708684    3.7000020955    1.7500300620
 H    2.0639915392    2.2531716428    0.4378613616
 H    1.4165451032    3.9737930040   -1.1981765875