12

 O   -0.0886050964   -0.0361457762   -0.0007667232
 C   -0.0229033179    1.1645059058    0.0083972529
 N    1.1662777750    1.8842752775    0.0004610549
 C    2.4446257158    1.3400592974   -0.0181943564
 C    3.3352780326    2.3724512851   -0.0203008609
 C    2.5871783453    3.5994411394   -0.0023712453
 C    1.2645432015    3.2724879067    0.0100154210
 H   -0.9025664128    1.8331416682    0.0228371308
 H    2.5647395765    0.2704052299   -0.0277890085
 H    4.4103367676    2.2775007350   -0.0331768400
 H    2.9920528958    4.5997144366    0.0007812934
 H    0.3745027068    3.8807650244    0.0247392311