21

 C   -0.4304082537    1.5383236345    0.1312713812
 C   -0.0333889143    0.0586953912   -0.0332050441
 C   -1.2955123058   -0.8152404110    0.0714574317
 C    0.7635170760   -0.2329586462   -1.3381594588
 C    2.2054194504   -0.5494013040   -0.9356848382
 C    2.9470063295    0.5041625160   -0.1837715930
 C    2.2839417816   -0.6404741102    0.5784144595
 C    0.9232686312   -0.3545943355    1.1184493444
 O    0.5777385971   -0.4761331130    2.2695015312
 H    0.4232093221    2.2140895407    0.0225110762
 H   -1.1731397545    1.8191018172   -0.6232755808
 H   -0.8665121825    1.7034266548    1.1208151242
 H   -2.0148520785   -0.5449939518   -0.7088896621
 H   -1.0554848192   -1.8775699012   -0.0417487428
 H   -1.7658644572   -0.6804837566    1.0490318021
 H    0.3335815093   -1.0996969145   -1.8498847562
 H    0.7184550959    0.6049331688   -2.0424926634
 H    2.7716309108   -1.2393645203   -1.5507674877
 H    4.0308320097    0.4763980979   -0.2024333547
 H    2.5320841117    1.5028287188   -0.1047085951
 H    2.9146013805   -1.3342856354    1.1196871566