22

 C   -0.4121692452    1.4109733577    0.6249483369
 C   -0.1551897097   -0.0733932739    0.5800386266
 O    0.8762032762   -0.5418201583   -0.2994551102
 C    1.0392193005   -0.7600195026    1.1126320327
 C    2.1846813090   -0.0312936711    1.7756471525
 C    0.9091037738   -2.2267827751    1.4987983720
 N    0.6648086974   -2.3785402664    2.9291862063
 C   -0.7296274855   -2.4610661703    3.3526847937
 C    0.1431625613   -3.6675705303    3.3641111872
 H    0.5135424701    1.9872635975    0.6668434873
 H   -0.9612204116    1.7224888726   -0.2700987007
 H   -1.0240996851    1.6656349385    1.4972746174
 H   -1.0678928311   -0.6729842914    0.5258835428
 H    2.2151762036    1.0246085484    1.5047964660
 H    2.1040574281   -0.1256038056    2.8617041383
 H    3.1349452732   -0.4840958808    1.4707669123
 H    0.1226678565   -2.6895651928    0.8780475268
 H    1.8510452238   -2.7390330875    1.2640416572
 H   -0.9767727271   -1.9476044442    4.2774038998
 H   -1.5009711103   -2.4157964134    2.5853756969
 H   -0.0478883239   -4.4234427386    2.6036460784
 H    0.5461221461   -4.0520463122    4.2968240699