22

 C    0.0594718147    1.5801676231    0.2274382346
 C   -0.0373840484    0.0651245302    0.0220713624
 C    0.6270950728   -0.4541524297   -1.2639938665
 C    0.7948932445   -1.9885606211   -1.3264274884
 C    0.5734818220   -2.3195038914   -2.8235513380
 N   -0.1864799143   -1.1992937154   -3.3921685587
 C   -0.1405208028   -0.2383064641   -2.5590154830
 O   -0.7022282805    0.9611598669   -2.7611910584
 C   -1.3905473057    1.1223832806   -4.0039946626
 H    1.1062228258    1.9033942645    0.2635829805
 H   -0.4301120421    2.1223557265   -0.5840570393
 H   -0.4101348806    1.8752383750    1.1711144381
 H    0.4382394307   -0.4429179290    0.8705518156
 H   -1.0887444506   -0.2495379449    0.0316141834
 H    1.6044540215    0.0400446274   -1.3710042822
 H    1.7599335879   -2.3298636703   -0.9439856300
 H    0.0141791520   -2.4616112153   -0.7197109413
 H    1.5247612070   -2.4177300955   -3.3643706280
 H    0.0305085000   -3.2583353165   -2.9735050713
 H   -0.7073045917    0.9734044786   -4.8446825693
 H   -2.2057928807    0.3984816913   -4.0895621418
 H   -1.7799433713    2.1412309291   -3.9999675657