14

 O   -0.1086406650    0.0728190565    0.3783003670
 C   -0.0728212493    1.2226553705    0.0162595446
 C   -1.2191425360    2.1729037628   -0.2201767842
 C   -0.6634456632    3.3729114512   -0.5076596961
 C   -0.2752836448    4.3354791318    0.6037974801
 C    1.1391345703    3.6485075189    0.3946142049
 C    0.7822834727    3.2450476553   -0.9887179123
 C    1.1488244099    2.1233045580   -0.0522184449
 H   -2.1249673570    2.0379506053    0.3627325678
 H   -0.1608404323    5.3881539641    0.3260378553
 H   -0.8042313958    4.2396136533    1.5552803097
 H    2.0700163087    4.0823969474    0.7499568379
 H    1.2140356511    3.4609626373   -1.9558253769
 H    2.1388704707    1.6770296976   -0.0576554030