17

 O    0.0985817337    1.3926954566   -0.1306918649
 C    0.0621920534   -0.0055999914    0.0167609172
 C   -1.3777168782   -0.5311209265    0.0455141255
 O   -1.9923324965   -0.1440077086   -1.1760693021
 C   -2.9827203360   -1.1274294319   -1.4665260279
 C   -2.5643542731   -2.3525119551   -0.6112922805
 O   -1.3567058303   -1.9404103760    0.0237192273
 C   -2.1546993788   -0.0266532829    1.1961436723
 C   -2.7948297619    0.3585609330    2.1370407064
 H   -0.4139837872    1.6022771177   -0.9201464263
 H    0.5700041898   -0.5355823903   -0.8016159039
 H    0.5592471122   -0.2511618292    0.9583921377
 H   -3.9804374016   -0.7668746944   -1.1904858211
 H   -2.9578597867   -1.3219692892   -2.5416383201
 H   -3.3301982075   -2.5996073359    0.1333939595
 H   -2.3425936692   -3.2419874905   -1.2054677658
 H   -3.3510815222    0.7100541447    2.9711804765