15

 O   -0.0047169062    0.0080886137   -0.4687369529
 C   -0.0366260834    1.1578541491   -0.1731125695
 C   -1.1176051881    2.1958962221    0.1378493259
 C   -1.6143406233    2.2332469994    1.6046062735
 C   -0.4364995177    3.2045111053    1.8858278403
 N   -0.0459234135    3.2351956915    0.4302867103
 C    1.0496562169    2.2729435972    0.0608838345
 C    2.1045056167    2.0148955457    1.0219503763
 N    2.9231291958    1.7992918457    1.8099982920
 H   -1.8351815599    2.3934465818   -0.6624064628
 H   -2.6035359109    2.6807142032    1.7081025093
 H   -1.6029378014    1.2788916981    2.1336699598
 H   -0.7265991053    4.1987845719    2.2313171064
 H    0.3437403696    2.8210917868    2.5487787742
 H    1.4962658707    2.5686404985   -0.8964327373