17

 C    0.0166359776    1.5318538366    0.2014779011
 C   -0.0096569937    0.0114962665   -0.0548231986
 C   -1.4008816771   -0.5320567366   -0.0916704740
 C   -2.1273661888   -0.9604532848   -1.1415272920
 C   -3.4825777123   -1.4109454047   -0.7315083556
 O   -4.3407763102   -1.8432733669   -1.4634214981
 C   -3.5804865477   -1.2248710914    0.7830416462
 C   -2.2143749540   -0.6667841030    1.1651910499
 O   -1.8248114391   -0.3831100873    2.2732126314
 H    1.0493502569    1.8894723787    0.2364443194
 H   -0.5052793017    2.0737571152   -0.5929694957
 H   -0.4606679546    1.7689580142    1.1550608665
 H    0.5047696190   -0.2219715877   -0.9921593960
 H    0.5319579007   -0.4879186689    0.7569224694
 H   -1.8098271839   -0.9969134164   -2.1775716714
 H   -4.3847310739   -0.5321123467    1.0500446796
 H   -3.7874160074   -2.1705985970    1.2930913979