21

 C    0.2476083034    1.4774568781    0.2182746480
 C   -0.1813346373    0.0366750762   -0.0905254856
 C    0.4769448934   -0.5191977457   -1.3297102883
 C    0.1580670397    0.0555302579   -2.7140354516
 C    0.4659457082   -1.0539640761   -3.7253752460
 C    1.8705843331   -1.5796349407   -3.8633747800
 C    0.8931474199   -2.2990248332   -2.9642168574
 C    0.9234787970   -1.9148716862   -1.5034323852
 O    1.8660348992   -0.8789953037   -1.1773399896
 H    1.3339304032    1.5362634002    0.3346435350
 H   -0.0432696140    2.1638968108   -0.5835918514
 H   -0.2140105999    1.8330956504    1.1441181739
 H    0.0761026476   -0.6112068212    0.7544518866
 H   -1.2710464945   -0.0127855497   -0.2117249954
 H   -0.9069653667    0.3117148773   -2.7574097729
 H    0.7208101671    0.9754658938   -2.9061030915
 H   -0.1841397435   -1.1354093741   -4.5895322200
 H    2.1240164777   -2.0594042362   -4.8027564184
 H    2.6801626671   -1.0438376366   -3.3835100848
 H    0.5390371663   -3.2894423421   -3.2238736888
 H    0.7933953531   -2.6766034193   -0.7384148065