23

 C   -0.1479285310    1.5369623933    0.0325409140
 C   -0.0111657683    0.0132245088   -0.0285576663
 C    0.8090449710   -0.5031202127   -1.2372185273
 C    2.2816410122   -0.0459458435   -1.1985608792
 C    0.7243398895   -1.9622393143   -1.3226801293
 C    0.6567058989   -3.1649331723   -1.3604440767
 C    0.5840198774   -4.6185442871   -1.4449003318
 C    1.1420608143   -5.1594507015   -2.7656881726
 O    1.0124954393   -6.5708681138   -2.7243228730
 H    0.8160740512    2.0330782310    0.1797970170
 H   -0.5892174603    1.9329075813   -0.8893999164
 H   -0.7970376861    1.8323100727    0.8626609619
 H    0.4516817800   -0.3615326360    0.8926146238
 H   -1.0072890757   -0.4399093414   -0.0762912521
 H    0.3519708686   -0.0833658043   -2.1458916861
 H    2.8313305918   -0.4437982190   -2.0555900191
 H    2.3569872358    1.0447232352   -1.2235186090
 H    2.7711451683   -0.4057835518   -0.2878654652
 H    1.1408639122   -5.0814897029   -0.6208283413
 H   -0.4538661738   -4.9595278260   -1.3448106238
 H    0.5803606272   -4.7228876878   -3.6050158851
 H    2.1923180606   -4.8492719935   -2.8724121616
 H    1.3561135368   -6.9296922242   -3.5473242208