17

 O   -0.3071779054    0.1305347815    0.2828306818
 C   -0.0783588453    1.2368550584   -0.0874336357
 O   -0.8416256680    2.0176288559   -0.9215536929
 C    0.0869548571    3.1535015049   -0.7921819106
 C   -0.5501493783    4.3813664129   -0.1420807818
 C    0.4166745032    5.0468233926    0.8102841586
 C    1.2442488698    4.3357363541    1.5746239367
 C    1.2694095903    2.8261502239    1.5379898592
 C    1.0022751465    2.3028147625    0.1128118403
 H    0.5074615335    3.3854927699   -1.7726084282
 H   -0.9014036737    5.0825497295   -0.9040488729
 H   -1.4432317184    4.0467835854    0.4032464574
 H    0.3999759858    6.1303178465    0.8749761856
 H    1.9102737179    4.8321394446    2.2740118917
 H    2.2256383614    2.4446790773    1.9052392277
 H    0.5092217306    2.4305178961    2.2252105944
 H    1.9368542931    2.0219911840   -0.3775889512