20

 C    0.8504625233    1.1079476205   -0.2063463997
 C    0.6225164788   -0.3723102304    0.1105768276
 N    0.9386433679   -1.2481600336   -1.0059078644
 C   -0.0189944274   -1.8452635761   -1.7675590529
 O   -1.2161100627   -1.7168911904   -1.5795094013
 C    0.5356714440   -2.6905895532   -2.9243329668
 C    1.6248230895   -3.6570350604   -2.5196031023
 C    2.8106568888   -3.8906027783   -3.3533141504
 O    2.8965584522   -3.0804705066   -2.1769038061
 H    1.8932738968    1.3007472293   -0.4805619766
 H    0.2147032665    1.4260475864   -1.0376122658
 H    0.6121638341    1.7263382351    0.6651342951
 H    1.2257277539   -0.6703893097    0.9764501528
 H   -0.4266754693   -0.5520456846    0.3545974154
 H    1.9049418866   -1.4164896780   -1.2452230472
 H   -0.3110582729   -3.2340426295   -3.3503002835
 H    0.9226633653   -2.0128076887   -3.6944666649
 H    1.3167998608   -4.4528006264   -1.8409576061
 H    3.3380368313   -4.8410982315   -3.2967274019
 H    2.9126954624   -3.3570247838   -4.2971319110