17

 C   -0.2689747280    1.5063371680    0.0302215565
 C    0.1051524538    0.0434298660   -0.0188588780
 O    1.3721056151   -0.1797535248   -0.7544877023
 C    1.9728398233   -0.7509312646    0.3422682100
 O    3.0788902421   -1.1812409468    0.4371964833
 C    0.7549709652   -0.5985530706    1.2015111248
 C    0.6645871956   -0.2732445065    2.6722625016
 C    0.1811446578   -1.5997326978    2.1569718778
 O   -1.1880466832   -1.8218417051    2.0090414190
 H    0.5312739134    2.1010067279    0.4796813775
 H   -0.4623950513    1.8847100364   -0.9775783136
 H   -1.1800150767    1.6376382561    0.6232732808
 H   -0.6806746593   -0.5666856598   -0.4708339810
 H    1.5932736164   -0.2344587821    3.2316748995
 H   -0.0915161460    0.4497307064    2.9606961932
 H    0.7866168605   -2.4814351129    2.3647564687
 H   -1.5566587787   -2.0184494699    2.8769803422