18

 C    0.1445933938    1.5658172571   -0.0427998169
 C    0.0407636578    0.0650213888   -0.0065708382
 C    0.5779650746   -0.9518503821   -1.1544596504
 C   -0.0795797561   -1.7731648024   -0.0184833152
 C    0.6567195332   -0.9037940269    1.0265656055
 O   -0.8592305518   -2.9103395386    0.4671166845
 C   -1.8307780246   -1.9557000641    0.8931302714
 N   -2.8164365508   -2.1199904027    1.6443034203
 C   -1.2648327964   -0.8442333783   -0.0080840632
 H    1.1907973411    1.8808848296   -0.1219560199
 H   -0.4021221501    1.9805063905   -0.8954015810
 H   -0.2725972675    1.9981460138    0.8719212516
 H    0.0533555338   -0.9190650574   -2.1106887777
 H    1.6636100814   -0.9994264539   -1.2749308824
 H    1.7460829956   -0.9720403084    1.0543104338
 H    0.2178246785   -0.8817689576    2.0263773261
 H   -2.8810130492   -3.0870563887    1.9687856625
 H   -1.8425223233   -0.8022993286   -0.9351626509