23

 C   -0.4969460388    1.4225589367   -0.1040507429
 C   -0.0717998009   -0.0409953813   -0.0091912659
 C    1.1274539837   -0.4247902657   -0.9248391775
 C    2.0595052080   -0.5475740559    0.3103568729
 C    2.8828729348   -1.8282716784    0.4547671373
 C    2.9678577188    0.6458937676    0.5047446469
 O    2.9717720854    1.6521129163   -0.1606060790
 C    0.7769926863   -0.4571466117    1.2393951953
 C    0.7829820299    0.4143832356    2.4902028657
 H    0.3621913203    2.0971447552   -0.0530825312
 H   -0.9988218521    1.6045952296   -1.0607180350
 H   -1.1972184212    1.6926117362    0.6937092887
 H   -0.9524227740   -0.6764489465   -0.1446048889
 H    0.9981787325   -1.3780990766   -1.4433605955
 H    1.4313339692    0.3385208799   -1.6445521340
 H    3.6435625440   -1.9074683908   -0.3304295573
 H    3.3967162865   -1.8677397693    1.4227016397
 H    2.2365171713   -2.7082639270    0.3838758008
 H    3.6757855801    0.5371231501    1.3602770383
 H    0.5158129248   -1.4810523548    1.5295497788
 H    1.0431971397    1.4543714702    2.2721590264
 H   -0.2066674229    0.4141379406    2.9599604104
 H    1.4956622945    0.0390792900    3.2330810663