16

 O   -0.1021024813    0.1049506701   -0.7409810167
 C   -0.0333398884    1.2723829099   -0.4467183299
 O   -1.1208942078    2.1183698185   -0.3662595062
 C   -0.6714477441    3.3694725476   -0.0072988543
 C    0.6573968367    3.3403591495    0.1408225421
 N    1.0708396321    2.0355197166   -0.1309246138
 C    2.4328534977    1.5663248609   -0.0876431849
 C    2.7909388907    0.1895396704    0.4005271106
 C    2.9611537318    0.5488164601   -1.0610279753
 H   -1.4092312703    4.1443764281    0.0968792984
 H    1.3539015130    4.1151021552    0.4120655885
 H    3.0948559853    2.3785227513    0.1890268732
 H    3.6673276160    0.0949045539    1.0318217265
 H    1.9736704597   -0.4810365034    0.6319956170
 H    2.2502190774    0.1030679408   -1.7444783218
 H    3.9572075915    0.7068903506   -1.4590682833