16

 O   -0.6997012562    0.8885399148   -0.4661002413
 C    0.2160049953    0.9393022747    0.3150568340
 C    1.3739860119    1.9003893128    0.1984851916
 C    1.2826978876    3.0223740562   -0.8688246959
 C    1.4051895608    4.0939811028    0.2504756676
 N    0.1471778097    4.5033495000    0.8770984303
 C    0.1304460375    3.4981028397    1.8266934184
 O   -0.6762417946    3.1680231709    2.6521270094
 C    1.5030404917    2.9768823936    1.3416622196
 H    0.2615322117    0.2614900687    1.1956134492
 H    2.2939395073    1.3095200670    0.1313199919
 H    2.1203529435    3.0260304573   -1.5689132086
 H    0.3458611541    3.0356788512   -1.4282083326
 H    2.1419068954    4.8891849106    0.1366737004
 H   -0.6317508863    5.0215934277    0.4926713118
 H    2.3087494806    2.8795396620    2.0653174842