22

 C    0.4799195598    1.4657843467   -0.3043626349
 C   -0.0221863204    0.0583748133    0.0400857944
 O   -1.4159439710    0.0986294847    0.3343866550
 C    0.3405752568   -0.9733607092   -1.0497242561
 C    1.8157884826   -1.3355844191   -0.7742431855
 C    2.0160577713   -1.1271497935    0.7573175494
 C    0.7092274592   -0.5196323557    1.2607683761
 C    0.4909294520    0.0144348438    2.6211899821
 N   -0.0560097760   -1.3038291834    2.2416186700
 H    1.5601185611    1.4785843256   -0.4770430761
 H   -0.0014411498    1.8346114692   -1.2190153377
 H    0.2556152297    2.1603078661    0.5095020443
 H   -1.8658945647    0.5466912850   -0.3882122636
 H   -0.3049270051   -1.8456746737   -0.9026035561
 H    0.1722512247   -0.5993128641   -2.0650869033
 H    2.0454736947   -2.3575729513   -1.0848148767
 H    2.4830276846   -0.6799830497   -1.3421672577
 H    2.2014086210   -2.0648823227    1.2855062993
 H    2.8672678421   -0.4678944829    0.9558810974
 H    1.2945115040   -0.0116597859    3.3531896502
 H   -0.2060498931    0.8409958618    2.7379059661
 H   -1.0477661034   -1.1941937448    2.0382080933