19

 C    0.0218666395    1.5342055388    0.0158944295
 C   -0.0008480007    0.0364842075    0.0264986162
 C   -0.0138755310   -0.8024490754   -1.0755889293
 N   -0.0284649486   -2.1188249568   -0.6560655142
 C   -0.0379440482   -2.1315197903    0.7134762448
 C   -0.0117660137   -0.8368274066    1.1502691902
 N   -0.0244658402   -0.7257479108    2.5709156770
 C   -0.2449518629   -2.1296293048    3.0309900791
 C    0.0404551884   -3.1136181654    1.8373208216
 H    0.9618901577    1.9373652636    0.4137235186
 H   -0.0948961067    1.9234996327   -0.9999390098
 H   -0.7850012967    1.9507595193    0.6296951111
 H   -0.0342181686   -0.5590305619   -2.1266468084
 H   -0.1076028318   -2.9138356049   -1.2643347914
 H    0.8607468396   -0.3711423678    2.9222634482
 H    0.3630430218   -2.3457938824    3.9129947290
 H   -1.2969167278   -2.2288570595    3.3203384681
 H   -0.7067392779   -3.9143555965    1.8154102256
 H    1.0268839680   -3.5965350388    1.9112122040