17

 C   -0.1060037109    1.5469824375   -0.0172175670
 C    0.1879932088    0.0614906160    0.0281189645
 O    1.3753661147   -0.3469768032   -0.7359736495
 C    1.8176908922   -1.1813350896    0.3562674975
 C    2.2835093203   -2.4948416243    0.0927908760
 C    2.6894418374   -3.6082643383   -0.1156612069
 C    2.1996686954   -0.2691789497    1.4824506342
 O    2.7786067255    0.9686851323    1.2346017308
 C    0.7324229532   -0.5990551853    1.2901538744
 H    0.6930973054    2.1305179242    0.4421918456
 H   -0.2445310255    1.8724246920   -1.0534006294
 H   -1.0359578658    1.7506960783    0.5245117281
 H   -0.6641891943   -0.5081000565   -0.3631533074
 H    3.0469184917   -4.5903175720   -0.3044350920
 H    2.6433750740   -0.7626032829    2.3420745127
 H    2.7273086502    1.0979888640    0.2769381766
 H    0.1425012478   -1.1038160125    2.0439442219