19

 O   -0.1286255714    1.4489488176   -0.2235996036
 C    0.0235383436    0.0362492222   -0.2766503501
 C   -1.3314479381   -0.5600269018    0.0790571831
 C   -2.4417356396   -0.1242247573   -0.9147710985
 O   -3.2246946322   -1.2788671426   -1.1917259695
 C   -2.3245424298   -2.3627363337   -1.2116456232
 C   -1.4047815173   -2.1257617190    0.0152455246
 C   -0.1383545241   -2.8361003809   -0.0613701168
 C    0.8955683908   -3.4452641618   -0.1419609941
 H    0.7064577940    1.8518813541   -0.4778837899
 H    0.3269781060   -0.2968113918   -1.2819709063
 H    0.7894161046   -0.3144531037    0.4288782443
 H   -1.5828717562   -0.2275026454    1.0895419415
 H   -3.1058086245    0.6440840714   -0.5154191108
 H   -1.9857525004    0.2623113676   -1.8393834939
 H   -2.8935514506   -3.2927367127   -1.1497501732
 H   -1.7222130666   -2.3748020998   -2.1346508379
 H   -1.9442709995   -2.4732444554    0.9027504359
 H    1.8078031114   -3.9849182672   -0.2065995517