21

 C    0.2191726442    1.4894122175   -0.0823613765
 C    0.0548148008    0.0037271026   -0.0143406424
 C   -0.2046819427   -0.8385554721   -1.0111192626
 C   -0.2981226791   -2.2473365032   -0.5057518592
 O   -0.0266965779   -2.1527204185    0.8918071551
 C    0.1512414472   -0.7718535375    1.2855542775
 C    1.5032550050   -0.6441277395    1.9939541682
 C   -1.0126559333   -0.4477511845    2.2489883079
 O   -1.0748095470   -1.3873949353    3.3013170224
 H    1.2095934372    1.7993384050    0.2712683730
 H    0.0962153203    1.8537649473   -1.1053447438
 H   -0.5144133721    2.0047774228    0.5496593968
 H   -0.3405119187   -0.5742314334   -2.0531213248
 H   -1.2936278146   -2.6896260423   -0.6715209162
 H    0.4343539527   -2.9211713720   -0.9762921247
 H    2.3107894517   -0.9814380806    1.3392370750
 H    1.6953594575    0.3939342123    2.2839564755
 H    1.4992199903   -1.2531372957    2.9007089341
 H   -0.8749524521    0.5380485205    2.7064094681
 H   -1.9503535940   -0.4271478992    1.6707941116
 H   -1.0339947456   -2.2506379541    2.8691321249