20

 C   -0.0686860117    1.5297561572    0.0283918305
 C    0.0348286154    0.0235973481    0.0290094191
 C    0.9940212651   -0.7779297008   -0.9128532881
 C    0.6804498546   -1.9053852610    0.1075657480
 C    1.4192445820   -3.2099255884    0.2064387333
 C    0.6743112133   -0.7990047968    1.1969041679
 O   -0.7298413420   -2.1381612977   -0.1084757874
 C   -1.2493022075   -0.7958971825   -0.1737909873
 H    0.9108902845    1.9938170313    0.1812330867
 H   -0.4681843520    1.8994204927   -0.9231998485
 H   -0.7328676363    1.8819351358    0.8262695586
 H    0.6876238475   -0.9436275407   -1.9495999834
 H    2.0251730711   -0.4212115620   -0.8617424280
 H    2.4862901546   -3.0362038918    0.3714483405
 H    1.0311472965   -3.8080273121    1.0368525356
 H    1.2989267640   -3.7892410578   -0.7143508597
 H    1.6732704687   -0.4444314518    1.4605185235
 H    0.0750308110   -0.9839677546    2.0929114060
 H   -1.9927820033   -0.6353554137    0.6177084533
 H   -1.7253689954   -0.6177036233   -1.1467330405