18

 O    0.0584797281    1.3175648292   -0.0136111742
 C    0.0831307805   -0.0675493388    0.1058951101
 C   -0.5316352117   -0.7333680493    1.3328736476
 C   -1.2326216940   -0.7729219927    0.0096115156
 O   -2.3808141178    0.0493804150   -0.2437025935
 C   -2.9156199983   -0.9303308386   -1.1826879256
 C   -1.7605343539   -1.8767516322   -0.8712578885
 C   -1.0405877991   -2.8887107320   -1.6641565708
 N   -1.9232296741   -3.2829177687   -0.5438985492
 H   -0.8331845538    1.5466232020   -0.3141615055
 H    0.9697289850   -0.5230601999   -0.3296405260
 H   -0.0745332624   -1.6454684309    1.7074760202
 H   -0.9591680400   -0.0824764112    2.0887314259
 H   -3.9031129555   -1.2866263530   -0.8754993215
 H   -2.9534478027   -0.5312610023   -2.2019859614
 H   -1.3998615996   -3.1729671222   -2.6496097805
 H    0.0375278427   -2.9602523914   -1.5381082098
 H   -1.3752957732   -3.5200192231    0.2808306369