21

 C   -0.2333394735    1.4575072016    0.0936522478
 C    0.0836676698   -0.0288250242   -0.0244414988
 C    0.8280341548   -0.3813646509   -1.3395892359
 C    2.3040058659   -0.0603740291   -1.3125774195
 C    3.1555786658   -0.7250353144   -0.5300766859
 C    2.7046750517   -1.8143135910    0.3789784980
 C    2.7517882096   -1.6427750665    1.8889357205
 C    1.4343010242   -1.6060125609    1.1770757798
 O    0.8348846933   -0.3500137047    1.1450719627
 H    0.6842952381    2.0493502348    0.0225640196
 H   -0.9177813758    1.7717395536   -0.6998845102
 H   -0.6997477835    1.6666182552    1.0599641826
 H   -0.8586357806   -0.6011647344   -0.0140989674
 H    0.6981782318   -1.4509875304   -1.5383473413
 H    0.3275082186    0.1443065417   -2.1588161894
 H    2.6701427284    0.7350034966   -1.9562437637
 H    4.2178420216   -0.4892907754   -0.5487118867
 H    2.8944534152   -2.8280037349    0.0270895591
 H    2.9943579019   -2.5048446512    2.4999615402
 H    3.1031777236   -0.6907866026    2.2706162476
 H    0.7461040592   -2.4447037029    1.2920765809