15

 C    0.0009313395    1.3972555249    0.0099920969
 C    1.3232013636    1.8170814017   -0.0004670536
 N    2.1088641286    0.7071865699   -0.0141952945
 N    3.4586358770    0.7171435086   -0.0272076584
 C    4.0234857469   -0.4633979139   -0.0391089381
 C    3.3280143672   -1.7031471185   -0.0391273764
 C    1.9588944084   -1.6868636649   -0.0257817958
 C    1.2923345610   -0.4494228781   -0.0125903089
 C   -0.0271932243   -0.0095342396    0.0025166352
 H   -0.8548234815    2.0554624352    0.0218752983
 H    1.7718109020    2.7962198447    0.0005831875
 H    5.1085686807   -0.4397623341   -0.0494812954
 H    3.8863753145   -2.6304445378   -0.0495940869
 H    1.3736660427   -2.5998598293   -0.0251042247
 H   -0.8983192664   -0.6460917290    0.0074315950