25

 C    0.0374370210    1.5312066285    0.1811857788
 C   -0.0505345854    0.0112836106   -0.0469534970
 C   -1.5244037258   -0.4143311447   -0.0011113136
 O   -1.9950090123   -0.1897788381    1.3244724972
 C    0.6916006217   -0.5136476189   -1.3191308330
 C    0.8295439880   -2.0497155674   -1.2547773940
 C   -0.0303376244   -0.1201494252   -2.6238619133
 C    2.1121338808    0.0871836596   -1.3401711777
 O    2.8463111062   -0.4892779555   -2.4142982092
 H    1.0523065682    1.8581879781    0.4217443088
 H   -0.2996090467    2.0950477005   -0.6958981157
 H   -0.6063869915    1.8026257120    1.0209261799
 H    0.4209305524   -0.4763185029    0.8177835937
 H   -2.1068898556    0.1749941406   -0.7261329562
 H   -1.6346739871   -1.4732940868   -0.2706630944
 H   -2.9419234221   -0.3545077069    1.3370866905
 H   -0.1407502570   -2.5501346500   -1.3113413631
 H    1.4412653692   -2.4079270756   -2.0849615329
 H    1.3140422877   -2.3610024017   -0.3223305760
 H   -0.2179031734    0.9574575996   -2.6763899396
 H    0.5873231799   -0.3917620093   -3.4832802236
 H   -0.9915052488   -0.6334284032   -2.7240881890
 H    2.0549304171    1.1771213903   -1.4623339232
 H    2.6068216348   -0.1159981830   -0.3757232956
 H    3.6947261531   -0.0416051505   -2.4693716517