19

 C    0.3101767821   -1.2526457985    0.2921453561
 C    0.1495871519   -0.0743011693    0.1108205350
 C   -0.0618088427    1.3347203840   -0.1119726653
 C    0.0811377480    2.2909826518    1.0615106759
 C    1.1135311022    2.2752886601   -0.0357137295
 O   -0.9858801247    1.6583477403   -1.1180915046
 C   -2.2957203502    1.2181159786   -0.8756968232
 C   -3.2791225113    2.1341731109   -0.1950840706
 C   -3.3609076623    1.8745242906   -1.6879285766
 H    0.4607605717   -2.2920802616    0.4487290560
 H   -0.6136688721    3.1211726508    1.0850114401
 H    0.3381044490    1.8733429894    2.0277855580
 H    2.0885389978    1.8489330808    0.1657491684
 H    1.0983930654    3.0880974426   -0.7525076598
 H   -2.3702999927    0.1503002098   -0.6834642311
 H   -4.0275470709    1.6985638174    0.4579196147
 H   -2.9228936448    3.1109407307    0.1100979102
 H   -3.0419138973    2.6768028685   -2.3436567562
 H   -4.1669283891    1.2627446131   -2.0767154474