23

 C   -0.0392355417    1.4439238133   -0.3998813680
 C    0.0417817562   -0.0488944693   -0.0611409668
 C   -1.3337401516   -0.6598442746    0.1352833953
 O   -2.1668430040   -0.5925662481   -1.0515610639
 C   -2.6055242744   -1.9622375681   -0.8741113049
 C   -2.2384044946   -2.8543238858   -2.0536066928
 C   -0.7173799247   -3.0549970501   -1.9098260026
 C   -0.4883254826   -3.1204756768   -0.3826022960
 C   -1.5471395324   -2.1907528849    0.2405648384
 H    0.9564202119    1.8686142347   -0.5588169428
 H   -0.6262716095    1.5966593541   -1.3098384388
 H   -0.5198106756    2.0078913364    0.4071948470
 H    0.5767754114   -0.5776461877   -0.8574197855
 H    0.6178926022   -0.1970256583    0.8621358176
 H   -1.8372321060   -0.1368199919    0.9648807774
 H   -3.6639424219   -2.0046907292   -0.5919705282
 H   -2.7667086404   -3.8110729180   -1.9519826282
 H   -2.5330841801   -2.4098075209   -3.0086640920
 H   -0.3534895025   -3.9470252969   -2.4268994367
 H   -0.1952171520   -2.1941342833   -2.3379608544
 H   -0.6663290179   -4.1416777824   -0.0259778469
 H    0.5347113156   -2.8599272562   -0.0952020409
 H   -1.8927878453   -2.5366049560    1.2157722837