17

 O   -0.0488744026    1.4320642699   -0.3716141308
 C    0.0935944504    0.0531989379   -0.0969963796
 C   -1.2535411178   -0.5533996132    0.2634203069
 O   -2.1891729687   -0.3492528484   -0.8302723210
 C   -2.3951948574   -1.7745384576   -1.0038147543
 C   -1.4348505785   -2.0667963223    0.1423197124
 C   -0.4602317184   -3.1541276293    0.3633680060
 N   -1.6797254798   -3.0396607256    1.1917903121
 H   -0.7554154931    1.4975189991   -1.0263621731
 H    0.5180931872   -0.4920181649   -0.9551835643
 H    0.7943126002   -0.0385344374    0.7409462047
 H   -1.6383098523   -0.1062372976    1.1908760652
 H   -3.4347395412   -2.0665944981   -0.8168559506
 H   -2.0882568853   -2.1152423467   -1.9997810312
 H   -0.4399288660   -4.0138242291   -0.3012951556
 H    0.5010077900   -2.9022999765    0.8051962855
 H   -1.4562028866   -2.6488580303    2.1045976577