21

 C   -0.0740890083    1.5463206985   -0.0351217374
 C    0.0327434757    0.0191913302   -0.0050717646
 C    0.7347596132   -0.5539029501   -1.2307814745
 C    0.8773934382   -2.0708944492   -1.1748354034
 O    1.5670528068   -2.5820246208   -2.3087047006
 C    1.2462137352   -1.9835787310   -3.5297250003
 C   -0.1470317405   -1.9774524116   -4.1164094286
 C    0.4702566633   -0.6984423778   -3.5785411466
 O   -0.0481923471   -0.2039477645   -2.3758606810
 H    0.9181500640    2.0107628485   -0.0489168230
 H   -0.6118627776    1.8758998949   -0.9271566588
 H   -0.6053735603    1.9194008377    0.8453720749
 H    0.5816667908   -0.3036528394    0.8880280112
 H   -0.9684970570   -0.4241422761    0.0584421792
 H    1.7411486049   -0.1131800396   -1.3277282468
 H    1.4673068766   -2.3764347977   -0.3055165354
 H   -0.1234555832   -2.5228259158   -1.0887827462
 H    2.0747121997   -2.1065625344   -4.2195621914
 H   -0.2506936404   -2.1089416902   -5.1880469391
 H   -0.9576863821   -2.3849775389   -3.5230556990
 H    0.7681419282    0.0861588574   -4.2713872784