21

 C   -0.7260044428    1.4568702231   -0.5394846384
 C   -0.2571106469    0.0282177897   -0.2847152579
 C    1.0703621363   -0.5055566380   -0.9726282691
 C    1.8859836875    0.3988620932   -1.8894107595
 C    1.6182496255   -0.8416381730    0.4189149075
 O    2.4529380189   -1.9039448812    0.7114412520
 C    1.6588142694    0.3685396433    1.3092717742
 C    0.3371023880   -0.3323660222    1.0832465241
 O   -0.3916907883   -0.9042685656    2.1123115532
 H    0.0428172796    2.1960829120   -0.2942008053
 H   -1.0037571170    1.6039641135   -1.5887395746
 H   -1.6088881436    1.6851445586    0.0680555099
 H   -1.0756492005   -0.6646939447   -0.5054715263
 H    0.8375781976   -1.4362762463   -1.5047131147
 H    2.1620866670    1.3389496823   -1.4023263720
 H    2.8135338917   -0.1000041918   -2.1894935098
 H    1.3316667810    0.6467438881   -2.8010650236
 H    1.9985497080   -2.7180253832    0.4662330109
 H    2.0945837160    0.1414798501    2.2777364952
 H    1.8711711259    1.3686459433    0.9385619817
 H   -0.6329830234   -0.2149041711    2.7398838825