15

 N   -0.2344841162    1.3301156878    0.3634759671
 C   -0.0771002469   -0.0327715859    0.0788935388
 C   -1.0374420429   -0.9194796449   -0.2996367011
 O   -2.3341832765   -0.7269488358   -0.6433544528
 C   -3.2827426700   -1.1553148144    0.2498068964
 N   -4.4966729030   -1.0403162857   -0.0502009008
 O   -0.5353960148   -2.1843850218   -0.4133519282
 C    0.7833182415   -2.0952038524   -0.0976364432
 C    1.1219826470   -0.8168794510    0.2107629959
 H    0.5481259216    1.8857477684    0.0417097860
 H   -1.0897559926    1.7016587327   -0.0322480781
 H   -2.8411444387   -1.5626898234    1.1659924548
 H   -5.0794562426   -1.3898182491    0.7076812507
 H    1.3365028679   -3.0184881228   -0.1340428472
 H    2.0974244262   -0.4613290116    0.5047864117