19

 C   -0.0718572515    1.5233844615   -0.0205324674
 C    0.0858136327    0.0203208702    0.0415165746
 C    1.4356358623   -0.6517000139   -0.1658064998
 O    2.5978559233    0.1149649738   -0.2708271188
 C    0.7751236495   -0.6777579746    1.1892542195
 C    1.3430693816    0.0672939822    2.3714742529
 O    0.1302011594   -1.8987734272    1.5524875292
 C    0.9248749155   -2.9645233725    1.7889796321
 O    0.4928267460   -4.0185281800    2.1488042714
 H    0.8637008114    2.0372787788    0.2121677405
 H   -0.3787570435    1.8327441245   -1.0252797749
 H   -0.8364987204    1.8738440983    0.6800073888
 H   -0.7515832959   -0.5474202099   -0.3549040124
 H    1.4428049820   -1.5839526683   -0.7301299249
 H    2.6150752014    0.5180632103   -1.1456816142
 H    1.8586970872    0.9727275010    2.0512588692
 H    0.5451897782    0.3365833478    3.0703651103
 H    2.0682677191   -0.5535975415    2.9075674692
 H    1.9946306121   -2.7548355704    1.6039358649