23

 C    0.2470401410    1.3190393680   -0.6471466248
 C   -0.0467403466    0.0683794820    0.1605531993
 C   -1.5081341299   -0.3363038091    0.1738427994
 C    1.0048781355   -0.9841123413    0.2675505289
 N    0.6503054276   -0.1700778178    1.4324312446
 C    1.6234233635    0.7924060194    1.9414348148
 C    2.0655829523    0.4265968323    3.3509324824
 C    1.0941567923   -0.0761900215    4.3477370209
 N    2.1233335743   -0.9757012577    3.7851900977
 H    1.3122065656    1.5589753998   -0.6742484304
 H   -0.0920101579    1.1863381600   -1.6799036629
 H   -0.2875095199    2.1839812848   -0.2368996487
 H   -1.8607256116   -0.5613080520   -0.8390413050
 H   -1.6575715691   -1.2191965557    0.7996341402
 H   -2.1316684046    0.4715915545    0.5738481817
 H    0.7352569571   -2.0367513380    0.3176054763
 H    1.9651866690   -0.7866955779   -0.2080975077
 H    2.5134388983    0.8670247107    1.2962120715
 H    1.1662008324    1.7901879880    1.9672601147
 H    2.9016470388    1.0268175358    3.7064476523
 H    1.2163560233    0.1638185492    5.4001918217
 H    0.0705179743   -0.2137902929    4.0124156744
 H    1.6694717844   -1.5413260904    3.0698010488