20

 C    0.3113181035    1.5364639237    0.0072919630
 C    1.3893193791    0.4751081792   -0.0087611450
 C   -0.0575592284    0.0827438190    0.0030580694
 C   -0.8052286004   -0.6776864998    1.1134280878
 C   -1.6135158469   -1.3845688093    0.0101717834
 C   -2.0900156238   -2.8060068148    0.0071461058
 C   -3.0863104809   -1.6675995107    0.0228256584
 C   -0.8265307402   -0.6658322965   -1.1007996888
 H    0.1621258149    2.0998475404    0.9234323422
 H    0.1445860002    2.1096080875   -0.8997244612
 H    1.9513444940    0.3309437327   -0.9265482499
 H    1.9688827491    0.3211840477    0.8964473526
 H   -0.1741998861   -1.3439355900    1.7119376133
 H   -1.3930007644   -0.0511114985    1.7928694940
 H   -1.9834651040   -3.3796971933   -0.9085586053
 H   -1.9659268508   -3.3894568792    0.9144369994
 H   -3.6355466345   -1.4814690092    0.9407950044
 H   -3.6530864365   -1.4717084591   -0.8823617966
 H   -1.4272012334   -0.0320796537   -1.7620602418
 H   -0.2072020654   -1.3255705711   -1.7184372377