17

 C   -0.1003916684    1.3753776178    0.1096649492
 O   -0.0152340464   -0.0310992452    0.0628764038
 C   -1.2654522612   -0.6473565868    0.0312189857
 C   -1.0760028025   -2.1618571306    0.1351585753
 O   -0.1362986484   -2.6839358658    0.6911465279
 N   -2.1006135163   -2.8810629323   -0.4332671215
 C   -2.1622252563   -4.3210583714   -0.2944933400
 C   -3.3771174080   -4.7655872382    0.4004610820
 N   -4.3496353785   -5.1043126012    0.9237727627
 H    0.9218831225    1.7571569302    0.1446683234
 H   -0.6047922941    1.7859231385   -0.7793488861
 H   -0.6428152952    1.7197277496    1.0039581470
 H   -1.8951117137   -0.3342665719    0.8843695107
 H   -1.8231880311   -0.3904672549   -0.8874205755
 H   -2.8655215046   -2.4044762659   -0.8828114912
 H   -2.1123964542   -4.8230900441   -1.2681866730
 H   -1.2751995737   -4.6119380978    0.2773898798