17

 O    0.2820379022    0.0570128834    0.1505583654
 C    0.0630906116    1.2292894896    0.1044406536
 C   -1.1958676869    2.1033666693    0.2519250783
 C   -0.2584422974    3.3013113586    0.5743303097
 C    0.9864823987    2.4988323833    0.0575389860
 O    2.1218535947    2.4785177042    0.8902755360
 C    3.3124864526    2.6835695528    0.1258470719
 C    2.8280278239    2.9474220053   -1.2703043013
 C    1.5041070167    2.8453450246   -1.3091580320
 H   -1.7305670831    2.2053565215   -0.6982639166
 H   -1.9066336230    1.7853562892    1.0174000128
 H   -0.4631998751    4.2440719751    0.0653725302
 H   -0.1638233637    3.4777812253    1.6474549331
 H    3.8798767973    3.5251185729    0.5499420055
 H    3.9529265706    1.7908860997    0.1861067114
 H    3.4871687179    3.1809693197   -2.0963334214
 H    0.8608959830    2.9718909957   -2.1702056726