16

 O   -0.0624983351    1.3134951195    0.0647104391
 C    0.0586623425   -0.0548295125    0.0584068949
 C    0.7739789002   -0.9800245337    1.0645508454
 C    0.0901179969   -1.9282899255    0.0506687798
 C    0.0929701660   -3.3609997578    0.0316982065
 N    0.1006038127   -4.5180753147    0.0210478016
 C   -1.1767150654   -0.9965449718   -0.0919205861
 C   -1.0921220852   -0.9945511311   -1.6313148742
 C    0.3812619922   -0.9874764527   -1.1784785660
 H    0.8136723830    1.7066933895   -0.0143480661
 H    1.8682196342   -0.9809909899    1.0591463163
 H    0.3813444525   -1.0001710619    2.0848288415
 H   -2.0441276910   -1.0285664038    0.5674707846
 H   -1.4454488837   -1.8918928724   -2.1454247624
 H   -1.4475023066   -0.0898836967   -2.1293450698
 H    1.2994934769   -1.0067269743   -1.7669336553