20

 C    0.1365915266    1.5861481089   -0.3434979918
 C   -0.0010389254    0.1009312482   -0.0083706381
 N    0.5047566539   -0.7172754424   -1.1306456068
 C    1.4266563496   -1.4373122613   -0.6472795439
 O    1.7310683804   -1.3550422695    0.6676084913
 C    0.7928503987   -0.4116188425    1.2401434411
 C    1.4352680594    0.5941528868    2.2266757420
 C    0.2672849373    0.3167684842    3.2121292333
 C   -0.0460652321   -0.9783358938    2.4132476400
 H    1.1855544099    1.8639173128   -0.4855937599
 H   -0.3958202708    1.7966294380   -1.2744162484
 H   -0.2869841749    2.2153705863    0.4455918976
 H   -1.0663598880   -0.1259726564    0.1226079472
 H    2.0300176272   -2.1461826143   -1.2045037271
 H    2.3813465465    0.1907522409    2.5961616113
 H    1.5976626940    1.6181854625    1.8870215284
 H    0.5223415480    0.2019779784    4.2667919722
 H   -0.5310758204    1.0587014849    3.1268151001
 H   -1.0920449774   -1.2193869411    2.2052453668
 H    0.4445806174   -1.8547212405    2.8442449647