21

 C    0.0084487046    1.4905115660   -0.1147302900
 C    0.0358729483   -0.0306717556    0.0989379947
 C    0.7307732361   -0.3778885144    1.4244383923
 C   -1.3784046196   -0.6072132326    0.0627639025
 C   -2.0737132991   -0.7244595087   -1.3427574870
 O   -1.2580373758   -1.9183169582   -1.5851167099
 C   -1.5199254342   -2.1570234248   -0.1625161860
 C   -3.0475630001   -2.3305079317   -0.1500890798
 C   -3.4293086944   -1.3429819507   -0.9636593591
 H    1.0222917460    1.9037422082   -0.1059709884
 H   -0.4508708803    1.7582737281   -1.0714571821
 H   -0.5593163519    1.9897741610    0.6798847305
 H    0.5999310573   -0.4885098468   -0.7215360438
 H    0.7932261788   -1.4595979890    1.5793589932
 H    1.7505392078    0.0200208141    1.4458960484
 H    0.1901116278    0.0511166109    2.2768898146
 H   -1.9978245520   -0.1875931687    0.8627391116
 H   -2.0116132381    0.0333907366   -2.1229496158
 H   -0.8756597618   -2.9051665454    0.2980229696
 H   -3.6195555401   -3.0628924011    0.3997800681
 H   -4.4090978892   -1.0204484674   -1.2828832336