18

 C   -0.8348144534    0.2368718319    0.6547539817
 C    0.3724898810    0.4065552520   -0.2367705347
 O    1.2884570086    1.1531582308    0.0179013385
 C    0.4486719670   -0.4249807804   -1.5216473852
 C    1.6057172906   -1.4269656942   -1.4744509514
 C    1.5722259145   -2.2718384753   -2.7505230010
 N    0.2368997486   -2.7706442817   -3.0729996663
 C   -0.7570654217   -2.1921698443   -2.5544314943
 O   -0.7974938716   -1.1002869263   -1.7410419867
 H   -1.7452761548    0.5038186139    0.1086640334
 H   -0.9509645861   -0.8129222060    0.9436306130
 H   -0.7227589775    0.8648245213    1.5388202007
 H    0.6092264548    0.2776972008   -2.3504877857
 H    2.5449292115   -0.8811135934   -1.3595654040
 H    1.4842601962   -2.0736469478   -0.5971926969
 H    1.9427321110   -1.6931188974   -3.6070680499
 H    2.2393561976   -3.1350084160   -2.6548266246
 H   -1.7699058065   -2.5500118781   -2.7292912767