19

 C   -0.1246547615    1.5793080199   -0.0065053893
 C    0.0143389686    0.0490408996   -0.0179591290
 C    0.8207906470   -0.5067470402   -1.2135791760
 C    1.9417280508   -1.3537920349   -0.5978789563
 O    2.7733533577   -1.9979944889   -1.1986747561
 C    1.8204803683   -1.2387113070    0.8750020110
 C    2.7813999914   -1.9220945040    1.7888724530
 O    2.4211137190   -1.6564871270    3.1328216407
 C    0.7652028152   -0.4756142356    1.1855147672
 H    0.8595874187    2.0597313679   -0.0166977144
 H   -0.6814457784    1.9261058863   -0.8826434638
 H   -0.6561816624    1.9210686322    0.8877060657
 H   -0.9985383191   -0.3772453629   -0.0138978224
 H    0.2258311997   -1.1202793768   -1.8961985848
 H    1.2684842256    0.2904398256   -1.8167216600
 H    2.7755267900   -3.0016204200    1.5658205230
 H    3.8011862120   -1.5716831118    1.5595604873
 H    3.0507837515   -2.1045984560    3.7043501457
 H    0.4613121861   -0.2397398564    2.1994075685