20

 C    0.2596905621    1.5244753986    0.3223066431
 C    0.1364622975    0.0243361775    0.0537937870
 C    0.6641566778   -0.3591674368   -1.3262897377
 O    0.6565243547    0.4071630388   -2.2724452135
 N    1.1202796671   -1.6486051571   -1.4314563516
 C    1.6706674861   -2.1879900115   -2.6647830386
 C    3.1252691509   -2.6342665341   -2.5335116872
 C    0.7569638723   -3.2970078989   -3.1787795724
 O    1.1373369329   -4.3432062140   -3.6346757805
 H    1.3086289850    1.8296665821    0.3801349730
 H   -0.2044994518    2.0900227425   -0.4878776247
 H   -0.2257546030    1.7896490221    1.2653716940
 H    0.6446910915   -0.5599569985    0.8301312285
 H   -0.9191557768   -0.2768221110    0.0859363820
 H    1.1604502279   -2.2191395435   -0.6016121642
 H    1.5859180658   -1.3614208720   -3.3843619839
 H    3.7602834234   -1.7869594455   -2.2648099476
 H    3.2313057228   -3.4100088054   -1.7679656542
 H    3.4735118564   -3.0597395062   -3.4769904138
 H   -0.3262558725   -3.0543514573   -3.0891299480