19

 O   -0.0459955676    1.4351993472    0.0565258151
 C    0.0188916291    0.0254263570    0.0279470251
 C    0.2803200332   -0.6222520384   -1.3849830433
 C   -1.0279213643   -1.4497910129   -1.2515722662
 C   -0.9380134775   -2.7676061029   -0.4352623034
 C   -1.1178421324   -1.9639944090    0.9094308018
 C    0.1662415691   -1.6811909909    1.6455607441
 C    0.7918192690   -0.6079712802    1.1609969093
 C   -1.3688315129   -0.6758485694    0.0630615194
 H    0.8424874727    1.7802972076   -0.0847358923
 H    0.1887968822    0.1391009306   -2.1652411387
 H    1.2174749996   -1.1702706964   -1.5196494695
 H   -1.6789668680   -1.4645592006   -2.1258286332
 H   -1.7899587681   -3.4233142819   -0.6352326031
 H   -0.0187874076   -3.3528215621   -0.5293588669
 H   -1.9264920775   -2.3314149491    1.5452044748
 H    0.5505928271   -2.3313384687    2.4247548495
 H    1.7624795799   -0.2394873052    1.4788243179
 H   -2.2509858460   -0.0586801147    0.2254360297