21

 C   -0.0234097887    1.5337405081   -0.1407409348
 C    1.2938733808    0.8223059248    0.0324604647
 C    0.0037947106    0.0377767723    0.0401516343
 C   -0.2028634342   -0.6419037677    1.4083821434
 C    0.9995586790   -1.6294995786    1.5564425699
 C    2.3293319667   -0.8208136058    1.5485460137
 C    2.0042892606    0.7003475011    1.3952353744
 C    1.0608266942    1.0616787983    2.5155890880
 C   -0.0799536077    0.3679274237    2.5223864972
 H   -0.3979626128    2.1575362193    0.6618990214
 H   -0.2505643392    1.8974965934   -1.1373129954
 H    1.9513127106    0.7535448505   -0.8292080346
 H   -0.2450811834   -0.5821266306   -0.8161248690
 H   -1.1520900711   -1.1820917552    1.4453332221
 H    0.8951355024   -2.2017470716    2.4826875893
 H    0.9768465076   -2.3481026808    0.7299941164
 H    2.8934600078   -0.9864387258    2.4708416502
 H    2.9706665095   -1.1356276702    0.7181817806
 H    2.9208726948    1.2948282633    1.4210899763
 H    1.3145538851    1.8219996669    3.2464168561
 H   -0.8653833826    0.4963005844    3.2594037360