15

 C    0.0455493337   -3.8165541891   -0.0976455843
 C    0.0387944547   -2.6095059711   -0.0551869279
 C    0.0291588346   -1.2502830849   -0.0098886716
 C    0.0230818954   -0.0401335110    0.0333967744
 C    0.0130522467    1.4033612356    0.0801721745
 C   -0.2396224792    2.1311756068    1.4670803448
 C    1.1089210235    2.8360171103    1.2841342049
 O    2.1066274691    1.8127197185    1.1916365722
 C    1.3767261864    2.1415306319    0.0162563209
 H    0.0548483209   -4.8774822383   -0.1325229726
 H   -0.6701021001    1.8058277173   -0.6754156964
 H   -1.1046771195    2.7955881164    1.4249996504
 H   -0.3046347029    1.4819035525    2.3411922277
 H    1.4263907150    3.8098387767    1.6363206867
 H    1.9372080219    2.4252650384   -0.8666269037