22

 C   -0.0882201023    1.4954196915    0.0149036759
 C   -0.0353486723   -0.0231222957    0.0106453674
 O   -1.3565529295   -0.5203018270    0.0138261450
 C   -1.4262830448   -1.9290596800    0.0099000412
 C   -2.8942272736   -2.3523699269   -0.0322681062
 C   -3.5929145442   -1.8531690678   -1.3015783212
 C   -3.0062126957   -3.8697690158    0.1155502297
 O   -4.3823957817   -4.2055995500    0.2169343363
 H    0.9230575217    1.9130566540    0.0123360953
 H   -0.6185115671    1.8627873764   -0.8683241821
 H   -0.6122331255    1.8582257386    0.9036917479
 H    0.5071408917   -0.3891590010   -0.8780802975
 H    0.5132034438   -0.3934371225    0.8940124333
 H   -0.8863304610   -2.3353794156   -0.8649854821
 H   -0.9329560651   -2.3362746663    0.9101848891
 H   -3.3875167731   -1.9053335466    0.8406093429
 H   -3.1220638475   -2.2812833047   -2.1958357372
 H   -4.6441930774   -2.1480605817   -1.3002017582
 H   -3.5249315561   -0.7656887556   -1.3733087460
 H   -2.5418507640   -4.3617674003   -0.7560774288
 H   -2.4546071975   -4.1994312554    1.0112508805
 H   -4.4568339688   -5.1635087576    0.2455972547