17

 C    0.0105578381    1.4499868088   -0.0308138409
 N    0.0093161951    0.0024941661    0.0306528755
 C   -1.0941632622   -0.6344401943    0.1024157491
 C   -1.1041774142   -2.0925758128    0.1647409197
 C   -2.2538386244   -2.7730566421    0.2399279972
 C   -2.4424703696   -4.2489996620    0.3101196096
 O   -3.4619949812   -2.1014395150    0.2600905511
 C   -3.4029333422   -0.7458014720    0.2004534598
 N   -2.3733016507   -0.0132087354    0.1278997283
 H    0.6005550800    1.8394152900    0.8083734186
 H    0.5305743824    1.7650370685   -0.9442111863
 H   -0.9838540644    1.9081288451   -0.0105125405
 H   -0.1562662138   -2.6144994539    0.1487343096
 H   -1.4768442489   -4.7566057468    0.2927337504
 H   -2.9739424904   -4.5277619767    1.2267979655
 H   -3.0448594992   -4.6024197994   -0.5340940833
 H   -4.4068488244   -0.3291301579    0.2234241368