19

 C    0.1393057859    1.5265028287    0.0008219621
 C    0.0933443625   -0.0136726200   -0.0213285754
 C    0.7200827111   -0.5409476687   -1.3017654043
 O    0.2245402952   -1.3724179309   -2.0160866936
 C    0.7995516242   -0.5723447396    1.1879929064
 C    2.2384945464   -0.9674165160    1.3438029307
 C    1.1392870188   -1.9587267675    1.6889032611
 C    0.4696007580   -1.5163212491    2.9815110963
 O    0.2726245421   -0.1700290135    2.4631954080
 H    1.1673547670    1.8899456729   -0.1014232892
 H   -0.4581303911    1.9475483102   -0.8128679303
 H   -0.2563432351    1.8937830063    0.9502560370
 H   -0.9457146154   -0.3592855353   -0.0053240554
 H    1.7052251857   -0.0822664311   -1.5520685484
 H    2.7804321815   -1.2017204129    0.4326996763
 H    2.8356740564   -0.5088161698    2.1275841038
 H    1.0430380932   -2.9234138388    1.2100668658
 H   -0.4960633940   -1.9987441965    3.1681527561
 H    1.0723155676   -1.5226026482    3.8971557830