16

 N   -0.0886854834    1.2810443715    0.2333565038
 C    0.0085458266   -0.0180328065   -0.1603986162
 O    0.9966818712   -0.5120750938   -0.6713583007
 C   -1.2728175233   -0.8431097690   -0.0086259087
 N   -0.9810082277   -2.2723350912    0.2234494101
 C   -1.3023867241   -2.1895986116    1.5772836754
 N   -1.0615885691   -2.8110010242    2.6505350886
 C   -2.0060591968   -0.8489783010    1.3837804576
 O   -1.7169629830    0.1511494755    2.3253655499
 H    0.7658392639    1.8178245928    0.2039391663
 H   -0.7482105625    1.4948602049    0.9696990868
 H   -1.9129015839   -0.6554445241   -0.8773238735
 H   -0.1200512682   -2.6723319828   -0.1338049987
 H   -0.4580077856   -3.6220951950    2.5084550438
 H   -3.0903091891   -0.9352190679    1.2604024071
 H   -1.2028979550   -0.2686601776    3.0278051784