17

 C    0.1549560228    1.3199563918    0.1240034601
 O    0.1220064701   -0.0983660661    0.0322056972
 C    0.5671263784   -0.5978373925   -1.1762108464
 O    1.9835782728   -0.3466505783   -1.3392735653
 C    2.6707198176   -1.4802586767   -1.6916187451
 O    3.8137492800   -1.4496829901   -2.0398578023
 C    1.7572329739   -2.6588665637   -1.5718255907
 C    1.1614925517   -2.8568583448   -0.1891340721
 C    0.3974777377   -2.1049637201   -1.2326555569
 H    1.1820131948    1.6978963248    0.0810264107
 H   -0.4303532479    1.7824097914   -0.6838776469
 H   -0.2917022932    1.5823999936    1.0845131434
 H    0.0680422996   -0.0882796705   -2.0145819024
 H    1.9339418008   -3.5063114403   -2.2191488944
 H    0.8292454738   -3.8614198235    0.0443790151
 H    1.5772972211   -2.3047616860    0.6453723930
 H   -0.5177354540   -2.5043353492   -1.6489367369