20

 C   -0.0880761594    1.5612306840   -0.0007456213
 C   -0.0681189833    0.0317714173   -0.0163417899
 C    0.7923377701   -0.5289335940   -1.1671198525
 C    0.8326342092   -1.9841243864   -1.2105593853
 C    0.8579166938   -3.1897452500   -1.2356754388
 C    0.9324318955   -4.6401426053   -1.3251078072
 O    1.5760585866   -5.2168893061   -2.1849342771
 N    0.2129043281   -5.2798900897   -0.3544786866
 C    0.1479113394   -6.7234112212   -0.2567281837
 H    0.9207191402    1.9706384233    0.1220637467
 H   -0.4971944423    1.9629096233   -0.9343627390
 H   -0.7028194487    1.9386481273    0.8215881588
 H    0.3200276519   -0.3504790927    0.9343939856
 H   -1.0874536298   -0.3581512976   -0.1142652241
 H    0.4129891449   -0.1523930028   -2.1267209019
 H    1.8176910345   -0.1447385396   -1.0801280329
 H   -0.2854700158   -4.7117959705    0.3103312482
 H   -0.8812183971   -7.0849819539   -0.3627849734
 H    0.7535255064   -7.1312196744   -1.0666780232
 H    0.5465268259   -7.0772231409    0.7008754778