17

 C   -0.2149609206    1.5041509924   -0.4451525267
 N   -0.4165462302    0.0683206393   -0.4897369717
 C   -0.5654700099   -0.6747079239    0.6341367708
 O   -0.4747046571   -0.2418290358    1.7681589480
 C   -0.8047592366   -2.1902357510    0.3794818853
 C   -1.0638964476   -2.9394344981    1.6851360806
 C   -1.8912255682   -2.4489158880   -0.6531063627
 O   -1.9118314448   -1.9774103157   -1.7658964477
 H    0.5998228504    1.7983304582   -1.1140143096
 H   -1.1199683405    2.0509776793   -0.7358472510
 H    0.0432927560    1.7740829517    0.5791654930
 H   -0.6551847894   -0.3749983940   -1.3667493979
 H    0.1218951284   -2.5549731103   -0.0873306360
 H   -1.1530392136   -4.0147897845    1.5016953823
 H   -0.2512940570   -2.7669879524    2.3908283048
 H   -1.9852354217   -2.5896178256    2.1593839254
 H   -2.7006317479   -3.1335583018   -0.3186805569