20

 C   -0.0009193863    1.4432251621    0.0439014882
 N   -0.0412660194   -0.0022809841    0.0252608041
 C   -0.0180222042   -0.7952142141   -1.1073016556
 C    0.0007945242   -2.1236530109   -0.7322111385
 C   -0.0152158482   -2.1366063356    0.6883117140
 C   -0.0381256589   -0.8337623936    1.1135210244
 C    0.0100965423   -0.6609768685    2.5977021914
 C   -0.2806854590   -2.1272144289    3.0615117861
 C    0.0440140324   -3.0764517393    1.8604171062
 H    1.0040788488    1.8217683459    0.2667795197
 H   -0.3059657271    1.8264514472   -0.9321629110
 H   -0.6914958663    1.8332799225    0.7972460124
 H   -0.0336357101   -0.3395996069   -2.0856030653
 H    0.0060799899   -2.9642958690   -1.4096956889
 H    0.9948339468   -0.3161117224    2.9457760427
 H   -0.7265400729    0.0435666139    3.0025591884
 H    0.2758689022   -2.3899872735    3.9651072297
 H   -1.3446025983   -2.2120628815    3.3029725155
 H   -0.6673249044   -3.9082400045    1.8078647230
 H    1.0399655685   -3.5278886589    1.9696039635