19

 C    0.1892080922    1.6172220819   -0.0940536799
 C    1.7090373300    1.3336080084    0.0837765373
 C    1.3298843584   -0.0347274482    0.6696520488
 C   -0.0726120380    0.0895320321    0.0389800158
 O    2.1295425258   -1.2101872562    0.3851724530
 C    2.2359781966   -1.5484597453    1.7767086202
 C    3.4277348671   -0.8785274303    2.4795773328
 O    2.6323306370    0.3022695940    2.7729411387
 C    1.4583445432   -0.2860110373    2.1867430218
 H   -0.2251171954    2.1822618956    0.7446601510
 H   -0.1243296256    2.0945987072   -1.0236864846
 H    2.2146657293    1.2082216553   -0.8778447499
 H    2.3021670326    1.9896770411    0.7237173039
 H   -0.9293459531   -0.2501749328    0.6280373727
 H   -0.0902259504   -0.4082741205   -0.9345385976
 H    1.9914956079   -2.5897868842    1.9905853776
 H    3.7596078910   -1.3668890307    3.4042968434
 H    4.2861264069   -0.6651364077    1.8343572263
 H    0.5731035542   -0.2084022224    2.8213144587