15

 O    0.0021432286   -0.0436657205   -0.0230523143
 C   -0.0015295696    1.1633001633   -0.0086330170
 N   -1.0915535369    1.9909508209   -0.0216765349
 C   -0.8395393285    3.4237663552    0.0261718569
 C    0.6855039391    3.5109665001    0.0041379209
 C    1.4365378048    4.5799525398   -0.7182233215
 N    1.4374534226    4.5422076025    0.7425614355
 C    1.2195211199    2.1071392911    0.0303838362
 O    2.3694484103    1.7652302237    0.0464625921
 H   -2.0234199199    1.6061006222   -0.0369332292
 H   -1.2997745734    3.9362068963   -0.8272009116
 H   -1.2501698617    3.8649223134    0.9449484102
 H    2.3838829990    4.3131040121   -1.1780037471
 H    0.8556310341    5.3408123261   -1.2338467396
 H    0.7820425817    5.2305971537    1.1094532736