21

 C    0.3631384756    1.6482916204   -0.1085238512
 C    0.0360643695    0.1471207885    0.0175116039
 C    0.5874038394   -0.7001151412   -1.1594633045
 C   -0.1602193024   -0.4612383810   -2.4527185289
 N    0.2422624085    0.6843828728   -3.2915921335
 C    0.4204227525   -0.6837788381   -3.8072102564
 C    1.8318184684   -1.1501819321   -4.0731965821
 C    0.5412773770   -0.3774792562    1.2914344738
 N    0.9501989330   -0.7934111555    2.2895283854
 H    1.4446181285    1.8071134676   -0.0793774100
 H   -0.0065921294    2.0318498780   -1.0602245073
 H   -0.0888607597    2.2144996932    0.7096855422
 H   -1.0555705015    0.0252042938    0.0425135558
 H    1.6505793977   -0.4792476776   -1.2850657438
 H    0.5064203630   -1.7615571081   -0.8984802594
 H   -1.2311567871   -0.6540684922   -2.3721744480
 H   -0.5711020690    1.1250969140   -3.7120603383
 H   -0.2983124212   -1.0129125054   -4.5574532039
 H    2.5315570023   -0.7587495146   -3.3321053889
 H    1.8897864104   -2.2439560781   -4.0643046671
 H    2.1654901745   -0.8043462081   -5.0572344280