19

 C    0.2596539170    1.5175807610    0.0671891450
 O    1.1305650745    0.4507547803   -0.3092956558
 C   -0.2290427170    0.1334771792    0.0078337917
 C   -0.4638870413   -0.6998895594    1.2344903757
 C   -1.9459735333   -0.9768440474    1.6481427243
 C   -1.6037212910   -2.4824216784    1.8578248655
 C   -0.2843928743   -2.2255570856    1.1274017455
 C    0.3591945395   -2.9934733372    0.0582665784
 O    0.9203672526   -2.9146568963    1.3775902924
 H    0.4677367523    1.9701067903    1.0361054047
 H    0.0050517454    2.2179761846   -0.7271851541
 H   -0.8254411851   -0.1520075064   -0.8619420573
 H    0.1291961325   -0.3109122089    2.0683640613
 H   -2.3167224721   -0.4297961529    2.5159021898
 H   -2.6374583256   -0.8197002145    0.8156263393
 H   -1.4323811468   -2.7325313172    2.9087555992
 H   -2.2853012188   -3.2195943748    1.4273205531
 H   -0.0389157497   -3.9683305307   -0.2216683936
 H    0.9249778013   -2.4758868358   -0.7147514752