18

 O    0.1471116305    1.2551628616    0.4229224490
 C   -0.0964866901   -0.0635562767    0.0161702095
 C   -1.5779279564   -0.3763686906   -0.1037102540
 C   -2.2701110990   -0.2671830630   -1.4480494295
 C   -1.9106171012   -1.6197899390   -0.8989042657
 N   -0.8467095096   -2.4122016755   -1.4858185144
 C    0.2650722735   -1.6465166752   -2.0356577128
 C    0.6304225152   -0.3587849820   -1.2955874418
 O    1.4352716434    0.4345229019   -1.7328376165
 H    0.8325049240    1.5857482493   -0.1799771121
 H    0.3313386868   -0.7709714543    0.7559685582
 H   -2.1525328931   -0.1385467560    0.7858294975
 H   -3.3200323268    0.0021813577   -1.4565039546
 H   -1.7173470080    0.1424573307   -2.2868885609
 H   -2.7314890784   -2.2419568938   -0.5568407456
 H   -0.5032542837   -3.0598024926   -0.7850440977
 H    1.1551989525   -2.2830457346   -2.0791082824
 H    0.0603884003   -1.3540294078   -3.0737993962