20

 C   -0.0849854939    1.4866384879   -0.3274162791
 C   -0.0875545563    0.0282237674    0.0630710348
 N    1.1696686177   -0.7305607021   -0.0599287786
 C    0.5693225054   -0.5539168418    1.2671640678
 C    1.3530176562    0.1792947171    2.3548133910
 C    2.1114426525   -0.8602551488    3.2270051698
 O    2.7947253348   -0.2739584555    4.3088947499
 C    2.3187668478    1.1736789704    1.8935901842
 C    3.1896891608    1.9609474762    1.6283797921
 H    0.8482277335    1.9738848612   -0.0458678651
 H   -0.2100143433    1.5858599910   -1.4112005374
 H   -0.9160756158    2.0138990513    0.1541803601
 H   -0.9946134066   -0.4988029208   -0.2360034792
 H    1.0032214298   -1.6677367066   -0.4143762005
 H    0.0480359737   -1.4138866192    1.6902527173
 H    0.6314198186    0.6807863046    3.0153045507
 H    1.3840696620   -1.5544014454    3.6606859113
 H    2.7850359647   -1.4356522415    2.5734570731
 H    3.3919004644    0.3878202563    3.9382076290
 H    3.9282250439    2.6698007484    1.3449031090