18

 C    0.0581122204    1.5207488719    0.1067966330
 C    0.0077556391    0.0270134903   -0.0335444507
 C    0.6533625301   -0.7668613474   -1.1997364718
 C    0.7202805338   -1.7995607752   -0.0631042998
 O    0.8923863458   -0.7178395667    0.8835132883
 C   -0.7762076801   -2.1756343051    0.1906139296
 C   -1.3359895549   -0.7085370380    0.1933186611
 C   -1.3541597193   -3.0528707296   -0.8166772251
 N   -1.7953203138   -3.7462520892   -1.6303850566
 H    1.0777306934    1.8896304708   -0.0309377840
 H   -0.5872926027    1.9930369075   -0.6407923720
 H   -0.2894698381    1.8261181961    1.0990370904
 H    0.0664710897   -0.9871271117   -2.0944167817
 H    1.6418266453   -0.3807858990   -1.4494116664
 H    1.4607689849   -2.5946745921    0.0054813877
 H   -0.8757708830   -2.6453919084    1.1716884914
 H   -1.7794160965   -0.4472934960    1.1557518531
 H   -2.0661129643   -0.5281862285   -0.5981354966