20

 O    0.1401660760    1.3396550790    0.4029846132
 C    0.0702730491   -0.0250928623    0.1011390336
 C    1.0170677130   -0.5577170792   -0.9543939898
 C    1.2715185496   -0.8169788534    0.5203718416
 C   -1.3116808168   -0.6283675043    0.2040778046
 C   -2.2308458670   -0.1931806937    1.4108779844
 C   -3.2508595514    0.3284201965    0.3939882267
 N   -2.5537747528    1.3588435893   -0.4210553629
 C   -2.3964352812   -0.0849426601   -0.7497493878
 H   -0.6726331708    1.7390736068    0.0465496490
 H    0.7068321358   -1.3887118252   -1.5805164795
 H    1.6486624197    0.1739993390   -1.4445488187
 H    2.0704005288   -0.2563950865    0.9924227262
 H    1.1322404341   -1.8225866639    0.9034791595
 H   -1.2511618105   -1.7171718764    0.1319434133
 H   -2.5958326496   -1.0472685934    1.9843422108
 H   -1.8112621946    0.5575892293    2.0823364000
 H   -4.3297392555    0.3548464240    0.4817361314
 H   -3.2303925009    1.7507011055   -1.0734784030
 H   -2.6612340249   -0.4481376013   -1.7353726025