16

 O    0.4478794550    1.0803027417    0.3813695622
 C    0.2214462786   -0.2579781481    0.1369583911
 C    0.6235755156   -1.1127937163   -1.1064235530
 C   -0.2421647640   -2.0344153920   -0.1983753827
 C    0.5657572456   -1.4954323993    1.0214168842
 C   -1.2257355701   -0.8383475546   -0.0390173692
 C   -2.2023495545   -0.7638106395    1.0998701030
 O   -2.3419438010   -1.5944054169    1.9646674285
 H    1.3930733930    1.2131965665    0.5136113375
 H    0.1967973615   -0.8152342500   -2.0675597948
 H    1.6808603372   -1.3785871087   -1.1914327017
 H   -0.5177650459   -3.0675816605   -0.3878680816
 H    1.6220914556   -1.7773816064    1.0525969692
 H    0.0923711177   -1.5702775798    1.9983338008
 H   -1.7142845810   -0.4905720669   -0.9575571506
 H   -2.8327192733    0.1551034607    1.0898075671