21

 C   -1.2319498665   -3.1094186091    2.2093638729
 N   -0.7002576503   -2.3472707537    1.0899479201
 C   -1.5204230490   -1.9195731238   -0.0395667400
 C   -0.8434874341   -2.0645569014   -1.3911895774
 C   -3.0126276203   -2.2036527582   -0.0978427231
 C   -0.9833750226   -0.9078764970    0.9628923159
 C   -1.8786666500   -0.1450555677    1.9300172505
 C    0.1832017883   -0.1220427593    0.5892586693
 N    1.0878324003    0.5362876284    0.2962816937
 H   -2.2515217343   -2.8528767632    2.5258367270
 H   -1.2199182624   -4.1689286706    1.9360501878
 H   -0.5663127700   -2.9787129867    3.0677680776
 H   -0.9709248700   -3.0873295996   -1.7626041646
 H   -1.2871630131   -1.3821920225   -2.1241636354
 H    0.2250519336   -1.8568287167   -1.3231087194
 H   -3.5207953254   -2.1345654463    0.8636303848
 H   -3.4999014545   -1.5052756659   -0.7855149692
 H   -3.1767294924   -3.2143552350   -0.4877537154
 H   -2.7822464595   -0.6949618993    2.1881104539
 H   -1.3363636995    0.0760601800    2.8544444001
 H   -2.1782202184    0.8081654776    1.4849738010