20

 C   -0.0262875288    1.5748069413   -0.0332592960
 C    0.0070586434    0.0453561062    0.0127739490
 C    0.6933263337   -0.5678649281   -1.2066027077
 C    0.7442435604   -2.0882425145   -1.1946548948
 O    0.2744138619   -2.7442736144   -0.2865850942
 C    1.4066245221   -2.7359056660   -2.3659595108
 C    2.1653354064   -4.0308518927   -2.1114062626
 C    0.8583063716   -4.0803751201   -2.8231741925
 H    0.9848147331    1.9961034246   -0.0719153607
 H   -0.5668696482    1.9368794662   -0.9152949666
 H   -0.5226740920    1.9857886330    0.8511564540
 H    0.5209226604   -0.2949847321    0.9181112931
 H   -1.0103492912   -0.3534743927    0.0856828759
 H    0.1958779134   -0.2576964673   -2.1378967737
 H    1.7255553627   -0.1997553533   -1.3062313548
 H    1.7966908344   -2.0707879645   -3.1284672347
 H    3.0782685308   -4.1879564457   -2.6741351141
 H    2.1840063089   -4.3640313740   -1.0801194848
 H    0.0023211093   -4.4466635818   -2.2681662054
 H    0.8458750274   -4.2725858340   -3.8898000684