15

 O    0.1107669946    0.0866677397    0.4727020908
 C    0.0671329799    1.2499363024    0.1466834726
 N    1.0965949953    1.9159264912   -0.4895629152
 C    2.5609265347    1.6762404275   -0.2059271479
 C    2.8400370344    2.9579641733   -1.0417070884
 C    1.6411448093    3.2756799195   -0.0947832207
 C    2.4398669972    2.5827868882    1.0583119271
 C    0.8255029158    4.4633066223   -0.0424200302
 N    0.1837878003    5.4230679761    0.0113250093
 H   -0.8398431631    1.8795377835    0.2362529930
 H    3.0006184122    0.6881445727   -0.2977850665
 H    3.7667582391    3.4907177368   -0.8309721971
 H    2.5957620835    2.9074089362   -2.1017214001
 H    1.8434922503    2.1877133415    1.8807044893
 H    3.3427102365    3.0930705691    1.3996368240