17

 O    0.1949250262    1.3456194784    0.3122939748
 C    0.0328102488   -0.0236440884    0.0394955809
 C   -0.6913526712   -0.8732059910    1.0602303084
 C   -1.3873339247   -0.4520876695   -0.2121935390
 C    1.1329248040   -0.6148065392   -0.7542834718
 C    2.1854162062    0.0442331137   -1.3377132482
 N    2.9285472249   -0.9382441172   -1.9609925611
 C    2.3029521934   -2.1243495338   -1.7313142724
 N    1.2198399640   -1.9685277371   -1.0060040309
 H    0.8966185398    1.4246130394    0.9687396416
 H   -0.3802784563   -1.9068383408    1.1543609692
 H   -0.9851013145   -0.3757647518    1.9780563095
 H   -2.1386013759    0.3262047731   -0.1434482585
 H   -1.5504119037   -1.2021087034   -0.9770284360
 H    2.4505790895    1.0858060053   -1.3841917508
 H    3.7744865652   -0.7993353550   -2.4871465853
 H    2.6816911040   -3.0613760028   -2.1119154206