13

 O   -0.0212487461    0.0790297643    0.0187588835
 C    0.0104077336    1.2610351621    0.0698346821
 N   -1.0758289655    2.2302175238    0.0899350786
 C   -0.4892436650    3.4287616324    0.8056931185
 C    0.9183578281    3.0907001058    1.3042176697
 C    1.0935843717    2.3541490099   -0.0668035265
 C    2.3749133946    2.1350110572   -0.6692571950
 N    3.4047490194    1.9608856411   -1.1651938393
 C   -0.1354252162    3.2063276004   -0.5984166475
 H   -1.2154093687    4.1028867137    1.2382794373
 H    1.5403679984    3.9857339556    1.3606781421
 H    1.0370334854    2.4817160633    2.2043202645
 H   -0.3623576898    3.6535325103   -1.5541159881