20

 C   -0.0423906038    1.5659724003    0.1178881482
 C    0.1051654223    0.0780122371    0.0218334811
 N   -0.8392147935   -0.8366300988    0.6948479254
 C    0.6108557323   -0.9429760411    0.9971247237
 C    1.2537678519   -1.7580520315   -0.1497478469
 O    0.4711599051   -2.8166877832   -0.7229757883
 C   -0.0980291951   -1.9180454328   -1.7108767354
 C    0.7306276116   -0.7213827587   -1.1712322609
 C    1.6371786400    0.0361938352   -2.1132279122
 H    0.8594239568    2.0852758670   -0.2208308851
 H   -0.8809145103    1.9222573839   -0.4928972362
 H   -0.2326591787    1.8695146205    1.1533790211
 H   -1.2599053072   -0.3192042850    1.4667598286
 H    0.9658549703   -0.8313552996    2.0157419562
 H    2.3119149114   -2.0070948674   -0.0253592614
 H    0.1776610485   -2.2275928315   -2.7271835370
 H   -1.1839468834   -1.8425848182   -1.6152850349
 H    1.0670138569    0.7083418120   -2.7657756492
 H    2.3649000834    0.6457802071   -1.5659500651
 H    2.1971727914   -0.6537817456   -2.7526393916