19

 C    0.0083189559    1.5020251309   -0.1446985131
 C   -0.1329668641   -0.0091483653   -0.1402838854
 O    0.8741945010   -0.5521213135   -0.9951363854
 C    0.8358458938   -1.9155019332   -1.1051006752
 C    1.2884397652   -2.9807708264   -0.0990358447
 C    1.1706479291   -3.9444105009   -1.3096618188
 O   -0.2617158986   -4.0082592820   -1.5768522388
 C   -0.1391920346   -2.6660453652   -2.0465777462
 C    1.3364235199   -2.7220965463   -2.2890769288
 H    0.9978975530    1.7966404062    0.2158000426
 H   -0.1192974342    1.8974265543   -1.1564249579
 H   -0.7470048851    1.9554611064    0.5039453611
 H   -0.0128336777   -0.4091127254    0.8773218128
 H   -1.1262874708   -0.3163877447   -0.4986106013
 H    2.3297275231   -2.8247126191    0.1943831063
 H    0.6645575289   -3.2156265410    0.7687386435
 H    1.6697521999   -4.9095484172   -1.3481350002
 H   -0.9504552976   -2.2058836685   -2.5949371488
 H    1.9752495028   -2.4954294590   -3.1307920616