21

 C   -0.0366884004    1.4665490888    0.0066582330
 C    1.3133725933    0.7667908715   -0.0250518137
 C    0.0514256108   -0.0264280750   -0.0007543108
 C   -0.5268034001   -0.9657495502    1.0723988737
 C   -1.6376501586   -1.2928695426    0.0275801894
 C   -0.5638471928   -0.9650316371   -1.0604686533
 C    0.3382315948   -2.1762261204   -1.2012083753
 C    0.7914486967   -2.7535962561   -0.0877892080
 C    0.4056184346   -2.1793497063    1.2582146456
 H   -0.3303347902    1.9659972911    0.9255876825
 H   -0.3668029078    1.9715432454   -0.8963467348
 H    1.8848778534    0.8007989671   -0.9473714389
 H    1.9228970433    0.7996128111    0.8732254501
 H   -0.8284298213   -0.5324374946    2.0299919850
 H   -2.0581091946   -2.3013853445    0.0220679215
 H   -2.4359992960   -0.5475440711    0.0515946606
 H   -0.8862640611   -0.5437105364   -2.0144529463
 H    0.5890017033   -2.5504654748   -2.1890176703
 H    1.4347049428   -3.6285579294   -0.1139073009
 H    1.3064968757   -1.8802556663    1.8130451870
 H   -0.0847786757   -2.9461663400    1.8748328739