18

 O    0.1048838294    0.0264273231   -0.2829021127
 C   -0.0485516744    1.2327843716   -0.1061651449
 C   -1.2030373168    2.0174124283    0.1068540849
 H   -2.2242439352    1.7862159622   -0.1499370426
 N   -0.8228693916    3.4292630069    0.0999920785
 H   -1.1415841815    3.9001720292   -0.7561820496
 C   -1.1596846542    4.3437144319    1.2470297045
 C   -0.1684400861    5.5055197833    1.0717759762
 C    1.1285327679    4.8347167564    0.5225026829
 C    0.6778018995    3.4668470153    0.0979392462
 C    1.1184120320    2.2227096902   -0.0155619732
 H   -2.2129084359    4.6253544880    1.2045294698
 H   -0.9777760994    3.7546266252    2.1480610950
 H   -0.5593623168    6.2348837878    0.3551035059
 H   -0.0030419226    6.0358970545    2.0107929363
 H    1.5588097469    5.4184121619   -0.2981607866
 H    1.8998776910    4.7579171886    1.2938919433
 H    2.1526339279    1.9055876958   -0.0036669438