18

 C    1.1050060033    0.3256602668   -0.3447337882
 C   -0.4129334681    0.3815011448   -0.1702704317
 N   -0.9783657130   -0.9649357605   -0.2386397947
 C   -1.9253178103   -1.2031920084   -1.0120957127
 C   -2.7372732157   -2.4348498216   -1.3578763234
 C   -3.4682366365   -1.4542092175   -2.3204046517
 O   -2.6239151441   -0.3671390176   -1.8828721720
 C   -3.3298784208   -1.7797033654   -3.7895035559
 O   -2.5268074538   -1.2830920540   -4.5305782137
 H    1.5414413278    1.3223933373   -0.2264918372
 H    1.5521550112   -0.3425357210    0.3966606692
 H    1.3682440351   -0.0470497140   -1.3392949304
 H   -0.6483028033    0.7850050702    0.8227470873
 H   -0.8569176477    1.0586288786   -0.9109698330
 H   -2.1733143012   -3.2401772078   -1.8323291098
 H   -3.3413194955   -2.8365973946   -0.5437137158
 H   -4.5210636366   -1.2705779886   -2.0754035953
 H   -4.0464653907   -2.5636129368   -4.1303488810