12

 N   -0.0020094612   -1.1366908626   -0.0372784600
 C   -0.0012141656    0.0190179080    0.0047991563
 C    0.0356772607    1.4483202171    0.0242476082
 C    0.3778934119    2.2827971025   -1.1856173634
 C    1.2899159668    2.3514356411    0.0110132148
 N    1.0143443896    3.3807949482    0.9755947104
 C   -0.1545545751    3.1536253507    1.4192676783
 O   -0.8275222716    2.0545250659    0.9755528836
 H    0.7418080768    1.7310029230   -2.0443335662
 H   -0.2618969376    3.1311783338   -1.4038813495
 H    2.3031336704    1.9747611919   -0.0462035315
 H   -0.6983832551    3.7530088004    2.1379385591