21

 C   -0.2331520501    1.4480973854    0.1050583969
 C   -0.1519501751   -0.0785399045    0.1701360362
 C    0.8835645629   -0.5614762557    1.1883035689
 O    0.5805714160   -0.1146676573    2.5192840115
 C   -0.0522515497   -1.1645544320    3.2374228358
 C    0.5715267001   -2.4740335146    2.7251483113
 C   -0.3847598361   -3.4509639333    2.0184137181
 O   -0.0961264462   -2.8607774983    0.7318675120
 C    1.0010800534   -2.0958595819    1.2925293066
 H    0.7188446106    1.8840199384   -0.2190860969
 H   -1.0053609669    1.7726064079   -0.5989218098
 H   -0.4693885782    1.8609607710    1.0895633432
 H   -1.1271556968   -0.5057050813    0.4233549866
 H    0.1110871854   -0.4922724478   -0.8113742820
 H    1.8608760665   -0.1251777217    0.9447047240
 H    0.1221738910   -0.9858065434    4.3019350671
 H   -1.1404214563   -1.1626905794    3.0656530959
 H    1.3180585693   -2.8936983667    3.3989393725
 H   -0.0690417048   -4.5012485238    2.0558862641
 H   -1.4480010126   -3.3841971196    2.2784449269
 H    1.9625777576   -2.4741086515    0.9290666111