15

 O   -0.0184082049    1.4291308340    0.0018015723
 C    0.0423926067    0.0451587903   -0.0156246963
 C   -1.2591566782   -0.6705279327    0.1429221649
 C   -2.5413186077    0.1250246346    0.3298158970
 C   -3.7278456203   -0.6776234790    0.0336835237
 N   -4.6559453976   -1.3284206239   -0.1883102470
 C   -0.5480978766   -0.7128708202   -1.2124158822
 C   -1.0351285243    0.0626085406   -2.3147607719
 N   -1.3992433812    0.7124016828   -3.2003140482
 H    0.5557086964    1.7832776927   -0.6869708393
 H    0.9287206926   -0.3960223128    0.4384302096
 H   -1.2300237035   -1.6096730470    0.6850845504
 H   -2.6056698270    0.4756854312    1.3660940468
 H   -2.5378594296    1.0159561243   -0.3028330713
 H   -0.0804554047   -1.6505182450   -1.4921997185