18

 C    0.0808565472    1.5523254836   -0.0690443181
 C    0.0045369738    0.0251853775   -0.0075803724
 C   -1.4365948252   -0.4974977432    0.0275184495
 O   -2.1926355358   -0.0735123682   -1.0922805252
 C   -1.4626371330   -2.0420401907    0.1700116870
 C   -2.8052901640   -2.5855819547    0.2626106497
 C   -3.9248384929   -3.0308207919    0.3513021711
 C   -5.1884862871   -3.5368085245    0.4505699187
 N   -6.2629291305   -3.9707194760    0.5363918467
 H    1.1176816433    1.8909154320   -0.1485524179
 H   -0.4749202164    1.9333121991   -0.9294836344
 H   -0.3514601597    2.0029995472    0.8306420860
 H    0.5143471356   -0.4129973042   -0.8787995907
 H    0.5394115018   -0.3448469738    0.8759588446
 H   -1.9575929458   -0.0674717757    0.8909354479
 H   -1.7429470485   -0.3716327740   -1.8916351759
 H   -0.9468190705   -2.4905731141   -0.6909989184
 H   -0.8904186922   -2.3358581784    1.0592107521