22

 C   -0.1334960661    1.5003351386    0.0514250125
 C    0.0451715790   -0.0307220458    0.0184445830
 C    0.6876116276   -0.5066016423   -1.2869577248
 C    0.8257287054   -0.4858406202    1.2186318655
 N    1.9674742301   -1.0419652353    1.2263247477
 C    2.3281397859   -1.2813055735    2.6345671512
 C    3.6707763633   -0.6400579399    2.9819068602
 C    1.1263972451   -0.7008476972    3.4322498102
 O    0.2085088924   -0.2517816451    2.4153807864
 H    0.8347319139    2.0030528161   -0.0459387514
 H   -0.7672311539    1.8244294093   -0.7793856667
 H   -0.5957031646    1.8239202831    0.9868587666
 H   -0.9526319445   -0.4802168588    0.1152642197
 H    1.6900575989   -0.0852366410   -1.4009267155
 H    0.7856222948   -1.5944674670   -1.3073664706
 H    0.0792104587   -0.1934175767   -2.1410281368
 H    2.4077002277   -2.3647729887    2.7886639028
 H    3.6289779172    0.4439621455    2.8318941396
 H    3.9376891160   -0.8338239026    4.0264861430
 H    4.4612021568   -1.0414427528    2.3424801779
 H    0.6147094993   -1.4366886619    4.0584083450
 H    1.4042227771    0.1590444563    4.0519595546