19

 C    0.0299038270    1.4938492937    0.0126096838
 C    0.0398821749   -0.0173490956   -0.0699471443
 C    0.6839090037   -0.6508555720   -1.3005657493
 O    0.0067663827   -1.9074085483   -1.4698195951
 C   -0.6701466603   -2.1570094801   -0.2421487546
 C    0.3624548858   -2.2483793692    0.9160283948
 C    0.2778596414   -0.7603959791    1.3008223441
 O   -1.1532177702   -0.6453921784    1.5814995926
 C   -1.2947233596   -0.7782700582    0.1490396636
 H    1.0481851362    1.8933328439    0.0822255231
 H   -0.4401623311    1.9357525155   -0.8726333431
 H   -0.5241021907    1.8196871015    0.8971659229
 H    0.5258110482   -0.0466974699   -2.2015992717
 H    1.7664731200   -0.8054939259   -1.1835062625
 H   -1.3370130186   -3.0056792694   -0.3825838631
 H    0.0361587638   -2.8701277960    1.7521484804
 H    1.3344655459   -2.5939333848    0.5563060970
 H    0.9188974671   -0.3597960042    2.0868345446
 H   -2.2627787663   -0.4842527534   -0.2546212830