20

 C   -0.2515623931    1.3702034372    0.1316045998
 C    0.4619986963    0.0164192861    0.1541102329
 C    0.4612339728   -0.6707433196   -1.2105393672
 C    1.1451694683   -2.0236434580   -1.2337209897
 O    1.5920501367   -2.5355701931   -0.2262359034
 C    1.2572525581   -2.6977679560   -2.5984098308
 C    0.9487408292   -4.2054863749   -2.6480001018
 N    1.5336293881   -4.9366002075   -1.6622916727
 O    0.2803739133   -4.6751500795   -3.5465401035
 H    0.2231729711    2.0613168920   -0.5739924237
 H   -1.3006379429    1.2641532102   -0.1666072438
 H   -0.2334300751    1.8403780027    1.1192449234
 H    1.4972128183    0.1408787076    0.4904496908
 H   -0.0087979403   -0.6477243855    0.8864163047
 H   -0.5651003782   -0.8231672694   -1.5781992760
 H    0.9366193821   -0.0406052321   -1.9768425114
 H    0.6212049700   -2.2134653801   -3.3399275391
 H    2.2989719088   -2.5658002863   -2.9218235028
 H    1.8660732857   -4.4530883456   -0.8382135557
 H    1.2713393109   -5.9074737584   -1.5977721000