18

 C    0.0685144666    1.5333318567   -0.1852276477
 C    0.0084666298    0.0241226964    0.0041117730
 C    1.2932917522   -0.7995841422   -0.0126550395
 C    0.5286541185   -0.6624993850    1.2681510671
 C    1.0678030441    0.1343425713    2.4490088171
 C    1.9215248831   -0.6814505536    3.3072012595
 C    2.6167363774   -1.3724369639    4.0019320018
 C   -1.1532256711   -0.5895836980   -0.5938555389
 N   -2.0909132975   -1.0705470457   -1.0719007483
 H    0.9932310083    1.9461973614    0.2232124409
 H    0.0346478129    1.7829870583   -1.2495789813
 H   -0.7758347241    2.0281599239    0.3040689349
 H    1.2875335321   -1.7530166129   -0.5266320935
 H    2.2117964094   -0.2316569099   -0.1206452327
 H   -0.0391658701   -1.5373115982    1.5680858117
 H    1.6350424569    1.0041829369    2.0998759734
 H    0.2304772495    0.5313947001    3.0374161409
 H    3.2340044421   -1.9746305253    4.6215669016