18

 C    0.0373245047    1.5224843400   -0.0021919729
 C   -0.0072065274    0.0302189071   -0.0307765391
 C   -1.0483403187   -0.7798621390    0.1348388463
 C   -0.6095092373   -2.2268510540    0.0373185261
 C   -1.3648900493   -3.0542841216   -1.0097966144
 O    0.7700926485   -2.1550265591   -0.3271917797
 C    1.2282427944   -0.8065843012   -0.2456785989
 C   -0.7288608049   -2.8851227656    1.3684267830
 N   -0.8345721393   -3.3873207672    2.4040471400
 H    0.7125117300    1.8780271104    0.7857779940
 H    0.4193705863    1.9243633935   -0.9484504041
 H   -0.9513493064    1.9503297447    0.1781924019
 H   -2.0739328662   -0.5002794992    0.3364425325
 H   -1.2904265444   -2.5528699923   -1.9775189235
 H   -0.9246107015   -4.0512016799   -1.0875671785
 H   -2.4185244379   -3.1567994631   -0.7357196061
 H    1.7569987594   -0.5561559007   -1.1758244909
 H    1.9456521499   -0.6903299328    0.5823542545