18

 C    0.3721565296    1.7600189980    0.1996258689
 C    0.9143264760    0.4976907075   -0.3774271521
 N   -0.4171271731    0.5321491818    0.2214014921
 C   -0.5736337661   -0.1138496128    1.4865378854
 C   -1.9297335541   -0.1373619418    2.1807553237
 O   -3.0736270619    0.1766651213    1.4364634281
 C   -3.0991114496   -0.6756627641    0.3001287238
 O   -2.2237161356   -1.7669323204    0.5485899567
 C   -1.3765377105   -1.4030496546    1.6021165704
 H    0.8021781154    2.1038167235    1.1386383403
 H   -0.0014356291    2.5489838321   -0.4464321651
 H    0.9436480480    0.3477333785   -1.4526347404
 H    1.7067874936   -0.0032523768    0.1756173945
 H    0.2724799297   -0.0634864448    2.1826930904
 H   -2.0381295610    0.0932452062    3.2334222820
 H   -4.1181850437   -1.0567299801    0.1589056025
 H   -2.7561636999   -0.1227046205   -0.5815389756
 H   -1.0104362978   -2.2564299633    2.1596343145