18

 O   -0.0466694836    1.2121601312    0.6148908013
 C    0.0127384740    0.0130022559   -0.1472294517
 C   -1.3623604974   -0.6094295459   -0.0995211426
 C   -1.6174681312   -2.0871027269   -0.1346276672
 N   -1.9309502133   -1.2825005338    1.0627176032
 C   -0.9486820222   -1.6360176267    2.1298665652
 C    0.0090967940   -2.7178068507    1.5911777601
 C   -0.4696401797   -3.0113078398    0.1607769149
 O   -0.0515651899   -3.8758466804   -0.5663841309
 H    0.7792542777    1.6895717268    0.4903421898
 H    0.2551611141    0.2182076175   -1.2012345274
 H    0.7905184389   -0.6602031909    0.2344501522
 H   -2.1020394802    0.0031270654   -0.6127269284
 H   -2.4311384870   -2.4815207083   -0.7353684731
 H   -0.4363626735   -0.7270522385    2.4530284958
 H   -1.5271077794   -2.0121294300    2.9768740560
 H    1.0652257656   -2.4307402451    1.5798795974
 H   -0.0526984470   -3.6494301497    2.1616296654