19

 C   -0.0341004638    1.5231071008   -0.0369897229
 C    0.0669036683    0.0102359831    0.0231248837
 O    0.7606063427   -0.4431330995   -1.1373415171
 C    0.8895210492   -1.8555084642   -1.2079277902
 C    1.7500149015   -2.3891753401   -0.0646370032
 C    1.1299418578   -1.9844864172    1.2841503361
 O    1.9542676486   -2.3067635137    2.3662355925
 C    0.8071623242   -0.4939058075    1.2663793807
 O    1.1471065746    0.2158412179    2.1876024814
 H    0.9630298665    1.9692572597   -0.0496772589
 H   -0.5676877556    1.8217618924   -0.9420737130
 H   -0.5669435389    1.9024271545    0.8375036162
 H   -0.9448081720   -0.4379451978    0.0403336517
 H   -0.1077231874   -2.3281131521   -1.1960685716
 H    1.3488395316   -2.0676361462   -2.1768818682
 H    1.8448605298   -3.4787253609   -0.1180363522
 H    2.7563642657   -1.9618703690   -0.1295486026
 H    0.1542895867   -2.5005345173    1.3754173862
 H    2.0171533706   -1.4938536232    2.8928662915