19

 O    0.0409005878    1.3253558535    0.0538598350
 C   -0.0174264981   -0.0675638996    0.1552077195
 C   -0.7546437132   -0.7090735355    1.3049018346
 C   -1.3615970689   -0.6742251200   -0.0767090772
 C   -2.6554833672    0.0383918920   -0.4994959614
 C   -3.1300650085   -1.2885412734   -1.1800348945
 C   -1.7419149557   -1.8818076192   -0.9067110008
 C   -0.9126146251   -2.7557896221   -1.7381024858
 O   -1.5051637235   -3.2229401789   -0.5149346156
 H    0.6507366841    1.6479475266    0.7256556356
 H    0.8514500838   -0.5951702640   -0.2421294501
 H   -0.4035658415   -1.6678192316    1.6732917820
 H   -1.1875616853   -0.0483150936    2.0496471513
 H   -3.2873042054    0.4027507515    0.3128981312
 H   -2.4809523848    0.8560761429   -1.2019958027
 H   -3.9102205820   -1.8075915299   -0.6176035562
 H   -3.4331804006   -1.2204034542   -2.2271916211
 H   -1.3250118912   -3.1854821813   -2.6506275015
 H    0.1724343653   -2.6580404432   -1.7230648522