21

 C    0.5932588238    0.4178065964   -0.7077854452
 C    0.0027758923   -0.1907783522    0.5627788748
 O   -0.1516255212    0.8081103965    1.5752862645
 C   -1.3175558407   -0.9540602597    0.3883331398
 C   -2.4805074436   -0.4109845433   -0.4962275214
 C   -2.8239651545   -1.8836799536   -0.8600338846
 O   -3.1487967041   -2.2066846263   -2.1836416081
 C   -1.3986562582   -2.3041994487   -0.3711297995
 O   -0.4926910551   -2.3538450234   -1.4697767542
 H    1.5347183294    0.9189927305   -0.4669347106
 H    0.7723822647   -0.3489538527   -1.4630862979
 H   -0.0841083891    1.1669132085   -1.1362133614
 H    0.7319973105   -0.8920744835    0.9874112148
 H   -0.7135809519    1.5011727773    1.2115035121
 H   -1.6926586322   -1.1340037144    1.4011645498
 H   -3.2583746341    0.1877276516   -0.0171154554
 H   -2.1188412708    0.1213745109   -1.3806361161
 H   -3.6147785102   -2.2929019491   -0.2257402956
 H   -2.3676142764   -1.9798250690   -2.7048204213
 H   -1.3108881855   -3.2138330573    0.2347485325
 H   -0.5725392033   -3.2268421784   -1.8677155073