19

 C    0.1034061386    1.5571255791    0.0687644114
 C    0.0018224207    0.0430078538   -0.0235659537
 C    0.6742799191   -0.5266016045   -1.2988987100
 C    0.9875890049   -2.0226120914   -1.0933897156
 O    1.8341362526   -2.0728898624    0.0638661839
 C    0.9161994339   -1.8582636046    1.1150678768
 O    0.5800742104   -0.4826245847    1.1860123538
 C   -0.2841190409   -2.7052120669    0.6950087528
 C   -0.2513657332   -2.7816400840   -0.6317417027
 H    1.1508995550    1.8709692075    0.1025903760
 H   -0.3744368928    2.0250362449   -0.7982094319
 H   -0.3921988054    1.9169147954    0.9746612263
 H   -1.0590663549   -0.2429263031   -0.0482450771
 H    0.0157563177   -0.3550401200   -2.1582047494
 H    1.6219400914   -0.0121775246   -1.4898947404
 H    1.5171228021   -2.4657165119   -1.9399741648
 H    1.3881622818   -2.1038888350    2.0672665984
 H   -1.0529862933   -3.0505213746    1.3724837742
 H   -0.9888646078   -3.2112326830   -1.2969659383