20

 C   -0.2033459720    1.4873552655    0.0317045430
 C    0.1653771450   -0.0003259722   -0.0461194040
 C    0.7696988050   -0.5024250799    1.2272481135
 C    0.0673151223   -0.9453175345    2.4859596217
 C    0.7085022424   -0.2808152039    3.6867968010
 C    2.1174944318   -0.1852394219    3.1459776091
 C    2.4207079142   -1.3212984877    2.2385804941
 C    1.0626445249   -1.8706950322    1.7852569175
 N    2.1281916873    0.0336888256    1.6650754023
 H    0.6767561509    2.0842278625    0.2885139085
 H   -0.5924518415    1.8472692801   -0.9254021404
 H   -0.9665114450    1.6656300082    0.7965761641
 H   -0.7219158170   -0.6023016116   -0.2782671494
 H    0.8759432047   -0.1601679665   -0.8665836229
 H   -0.9873038418   -1.1888729415    2.4466151190
 H    0.2773338347    0.7034580034    3.8994569322
 H    0.6595983293   -0.8888302020    4.5969448303
 H    2.9062885907    0.3279202805    3.6849614995
 H    3.3881778648   -1.7942091490    2.1168323688
 H    0.8338084094   -2.8571726930    1.4070307223