25

 C    0.1291224978    1.5422422329   -0.2241574528
 C    0.2989642552    0.0238401930   -0.1316154782
 C    0.4222921744   -0.4808417775    1.3130296531
 C    0.5807247725   -1.9855827143    1.3969022007
 C    1.9400540578   -2.6385328456    1.2969439530
 C    1.1666385401   -2.6966649096    2.5963847680
 C    1.6529891992   -1.9714412236    3.8333926279
 C    2.6554645992   -2.7996092740    4.6306856320
 O    3.0411220498   -2.0421151411    5.7686321463
 H    0.9846079137    2.0644103124    0.2190973454
 H    0.0408853065    1.8727225587   -1.2639251708
 H   -0.7695666627    1.8741115243    0.3079286438
 H   -0.5539735420   -0.4712590297   -0.6146745664
 H    1.1874866707   -0.2855929827   -0.6965279010
 H    1.2738284917    0.0168808410    1.7923625486
 H   -0.4675403181   -0.1709238506    1.8793871728
 H   -0.2265554517   -2.5265101593    0.9065262856
 H    2.0548317196   -3.5414227613    0.7069148216
 H    2.8026715113   -1.9782091736    1.2660461409
 H    0.7066479658   -3.6585393952    2.8156088431
 H    2.1306899732   -1.0222182831    3.5701387362
 H    0.8099588079   -1.7246436005    4.4911344018
 H    2.1941069372   -3.7564272299    4.9268146905
 H    3.5230946206   -3.0405197421    3.9958721694
 H    3.6786818602   -2.5577143587    6.2706478585