22

 C    0.0544866384    1.5588140575    0.0012208487
 C    0.0147514408    0.0273076841    0.0288091553
 C   -1.4017887965   -0.5600561227   -0.0067046398
 C   -2.2034294493   -0.2440211449   -1.2961636069
 C   -3.2431579503   -1.3803918299   -1.4293325009
 C   -2.5881237118   -2.5863925745   -0.7697637329
 C   -1.1577071221   -2.8910890578   -1.1425521403
 C   -1.4584020152   -2.0825395896    0.0989743284
 H    1.0823179931    1.9298825734    0.0643557411
 H   -0.3843045638    1.9561221669   -0.9198258391
 H   -0.5038879255    1.9840086272    0.8431998869
 H    0.5880896766   -0.3728999405   -0.8178895590
 H    0.5233592270   -0.3298382495    0.9337550439
 H   -1.9578663227   -0.1555914981    0.8526764698
 H   -2.6713271059    0.7432730632   -1.2676263681
 H   -1.5282198451   -0.2418282331   -2.1597345534
 H   -4.1577305212   -1.1245537881   -0.8803771276
 H   -3.5340036745   -1.5571504411   -2.4710054527
 H   -3.2198553045   -3.4075822247   -0.4485588805
 H   -0.8150774193   -3.9095340717   -0.9947500491
 H   -0.7169836889   -2.4051703902   -2.0074900703
 H   -1.2464577895   -2.5340692359    1.0627334766