18

 C   -0.0125645996    1.5371415192   -0.0109952539
 C   -0.0263618761   -0.0083742730    0.0122424404
 C    0.7598642694   -0.5273940141    1.2376781472
 C   -1.4704079696   -0.5348846502    0.0349956531
 O   -2.0841611880   -0.0488560489    1.2183519033
 C    0.6411850514   -0.5233895875   -1.2525559557
 O    0.1218263676   -1.2218998725   -2.0871387585
 C    2.0554438890   -0.1085282241   -1.4406272793
 N    3.1564989554    0.2083073653   -1.5972029788
 H    1.0085855279    1.9276459267   -0.0134447085
 H   -0.5330972551    1.9254403637   -0.8923599926
 H   -0.5273437020    1.9057054848    0.8782580885
 H    0.2566933298   -0.1898033616    2.1456755098
 H    0.7939628218   -1.6215352330    1.2529526933
 H    1.7859614746   -0.1501144479    1.2432177070
 H   -1.9993869770   -0.1906539784   -0.8647765088
 H   -1.4595311369   -1.6335524231    0.0078651390
 H   -2.9889061725   -0.3723571955    1.2424422147