21

 C   -0.0520307873    1.4780543803   -0.0214757300
 C    0.0410411844   -0.0383251582    0.0434145412
 O    1.1105098790   -0.6073293773    0.0814064863
 C   -1.2553836147   -0.8026359243    0.0446301888
 C   -2.1193045435   -0.9165108210   -1.2620436444
 C   -2.7086147018   -2.1454571100   -0.5133422308
 C   -1.2806353256   -2.3548080330    0.0665925233
 C   -3.4404270797   -1.4789084463    0.6673049499
 C   -2.3452005750   -0.4420606152    1.0872563520
 H    0.9345974914    1.8975689528   -0.2222229957
 H   -0.7627712686    1.8008391638   -0.7894819873
 H   -0.4173863528    1.8682087900    0.9356680506
 H   -2.7888183703   -0.0865863298   -1.5089498397
 H   -1.5188083095   -1.1955522616   -2.1305604072
 H   -3.2338704472   -2.9367710462   -1.0483377757
 H   -0.5781923916   -2.7828287108   -0.6498077400
 H   -1.1825091838   -2.8531862740    1.0351105959
 H   -4.3760692117   -1.0003991229    0.3641061306
 H   -3.6695677559   -2.1888656657    1.4668921461
 H   -1.9926078530   -0.5895316209    2.1120217606
 H   -2.6884034525    0.5919295003    0.9935140654