19

 C   -0.1658923233    1.5101286142   -0.0147095774
 C    0.0028073328   -0.0056566736   -0.0032348592
 O   -1.2702381383   -0.6061603192   -0.0974479832
 C    1.2007814903   -0.6112294543   -0.8622731512
 C    2.1308996834   -0.1811612033    0.3282146841
 C    0.8864044413   -0.6187736323    1.1537120525
 O    0.7626528599   -0.2248467083    2.4823857854
 C    0.8374629104   -2.1131723684    0.7753577426
 C    1.0445081087   -2.1010956354   -0.5423291120
 H    0.7719036670    2.0632430041    0.0288510332
 H   -0.6833340914    1.8204095175   -0.9322449879
 H   -0.7804927560    1.8135178254    0.8386224688
 H   -1.7965676652   -0.1013074293   -0.7251921999
 H    1.3947684970   -0.3000734228   -1.8876650948
 H    3.0289221935   -0.7824091834    0.4700583202
 H    2.3642794052    0.8830684529    0.3816891687
 H   -0.0678466926   -0.5785587528    2.8195216813
 H    0.6479709139   -2.9298666829    1.4577693686
 H    1.0624754436   -2.9166722080   -1.2510584799