18

 C    0.8149095227    2.0437765899    0.3766214923
 C    0.6276980318    0.5461665840    0.3019463720
 C    0.7634417340   -0.3122015252   -0.9024654709
 C    1.4812679832    0.1587745134   -2.1604056623
 C    0.8078860842    1.2264940874   -3.0091777173
 O    2.7564471883    0.6168559423   -1.6738813371
 C    2.9391095182    0.2625148006   -0.3641563124
 O    3.9462103219    0.4894132740    0.2309962121
 N    1.7831945369   -0.3993987586    0.1611003137
 H    1.5361019335    2.4255154883   -0.3472436961
 H   -0.1440783341    2.5425308978    0.2024080112
 H    1.1602437533    2.3239682236    1.3766368003
 H   -0.0698870693    0.1682350396    1.0467099088
 H    0.1116812683   -1.1743741846   -1.0091909046
 H    1.6741174297   -0.7227387968   -2.7863062600
 H    0.5841508647    2.1250157300   -2.4315496885
 H    1.4514586781    1.5022623118   -3.8485966096
 H   -0.1299745253    0.8331523226   -3.4140723414