18

 C    0.1059076334    1.5043763188   -0.2960512292
 C   -0.0034279964    0.0243192126    0.1140298526
 C   -1.4085565986   -0.4866602375    0.1721494118
 C   -2.2034295014   -0.8294998971    1.2385729696
 C   -3.4817225078   -1.2377626997    0.7317899238
 C   -3.4145582728   -1.1256418603   -0.6458798559
 N   -2.1656446214   -0.6729919193   -0.9669075160
 C   -4.5968265064   -1.6744649324    1.4837461765
 C   -5.5386199330   -2.0446879592    2.1382764845
 H    1.1516286292    1.8266339604   -0.3178383031
 H   -0.3164639933    1.6768201853   -1.2917687266
 H   -0.4369653746    2.1424398066    0.4072643278
 H    0.5916073855   -0.5877349872   -0.5779529858
 H    0.4451608862   -0.1144045004    1.1024980726
 H   -1.9177747686   -0.7998008414    2.2785084864
 H   -4.1543932898   -1.3373821161   -1.3999457272
 H   -1.8399590060   -0.5100651154   -1.9041037370
 H   -6.3699538142   -2.3711258376    2.7112845754