19

 C   -0.1124184654    1.5110540281   -0.0469540798
 C    0.0382775212    0.0078684413    0.0185061028
 C    1.3529515870   -0.6749123044   -0.2204743210
 C    0.7444837544   -0.7018345187    1.1820469185
 C    1.4165035901    0.0939259735    2.2943389064
 C    0.1592964740   -1.9383349143    1.6135442078
 C   -0.3338377784   -2.9742022720    2.0061694130
 C   -0.8888575710   -4.1390786873    2.4347207989
 C   -1.3825032730   -5.1735006033    2.8173165170
 H    0.7928154538    2.0346752869    0.2711769781
 H   -0.3230851932    1.8223427251   -1.0760402730
 H   -0.9402670876    1.8577164004    0.5808040628
 H   -0.8290902389   -0.5345535211   -0.3464338135
 H    1.3729773246   -1.5995365720   -0.7849757778
 H    2.2334214686   -0.0511025569   -0.3408073895
 H    1.8888166920    0.9998407660    1.9079266707
 H    0.6923600191    0.3852237348    3.0613223121
 H    2.1919624331   -0.5092131198    2.7758834644
 H   -1.8155714004   -6.0830295863    3.1517141222