17

 C   -0.0184953552    1.4826115634   -0.0161437015
 C    0.0046089372   -0.0252125017   -0.0126450237
 C   -0.6542139697   -0.7812721273   -1.1777579755
 N   -1.4086807719   -1.8827016275   -0.5647081555
 C   -1.1847760039   -1.8381856204    0.6826562961
 N   -0.4247257173   -0.7376165037    1.2125993953
 C    1.0075372745   -0.7529903294    0.8460145716
 C    1.7623574190   -1.9648973300    0.4122544720
 O    1.3479568773   -3.0951463932    0.3715801469
 H    0.6209391119    1.8784428041   -0.8125870031
 H   -1.0366280752    1.8466752941   -0.1896086038
 H    0.3300770168    1.8853666966    0.9381334550
 H   -1.3338711770   -0.1177730478   -1.7253802822
 H    0.0525095077   -1.1877766084   -1.9100412963
 H   -1.5913260172   -2.5516549782    1.3909760777
 H    1.6186971059   -0.1130060107    1.4838831562
 H    2.8157166171   -1.7265340900    0.1371844708