20

 C   -0.1533852310    1.5823706369   -0.0070577782
 C    0.0238615496    0.0716935644    0.0146347178
 C    1.1910643811   -0.6422038718   -0.7432435859
 C    2.1655594864   -0.1575384670    0.3694566051
 C    0.8851384961   -0.6512378238    1.1078449087
 C    0.6187905656   -0.6464742642    2.6048854394
 C    1.6165141093   -1.4115979844    3.3516699261
 N    2.4174947622   -2.0206582114    3.9199324907
 C    0.9118963589   -1.8817121140    0.1548078121
 H    0.7775915299    2.1347992597    0.1413951474
 H   -0.5742224921    1.8989975457   -0.9676086903
 H   -0.8558743467    1.9004315837    0.7718719406
 H   -0.9469062126   -0.4138121708   -0.1450791904
 H    1.3703761743   -0.6413544267   -1.8184457081
 H    3.0647334851   -0.7595457673    0.5209346387
 H    2.3999239426    0.9066890095    0.4162248424
 H    0.6129568585    0.3824323199    2.9848281274
 H   -0.3726911729   -1.0667551631    2.8129372438
 H   -0.0389356985   -2.3996815691   -0.0013045709
 H    1.7379238941   -2.5831220161    0.2929107336