21

 C   -0.1773609125    1.5991411240    0.1821720465
 C   -0.0791465928    0.0805974585    0.1125590330
 O    0.4478921130   -0.2356109900   -1.1839443425
 C    0.2128314549   -1.5414541101   -1.6395458998
 O    0.8920459399   -2.5326872730   -0.9231033047
 C    0.2789468731   -2.8866404589    0.3132903201
 C    0.6974041824   -1.9987162275    1.4944612426
 C    0.8633293701   -0.4863260113    1.2030463307
 O    2.2038615803   -0.1650394638    0.8734519171
 H    0.8238273014    2.0359216511    0.1468253459
 H   -0.7610209739    1.9823814047   -0.6583403644
 H   -0.6592830098    1.9090773803    1.1142016634
 H   -1.0816059667   -0.3649366065    0.2140646477
 H   -0.8721603619   -1.7504298078   -1.6318334614
 H    0.5974645362   -1.5719689084   -2.6616428241
 H   -0.8142690648   -2.8666092899    0.1878249995
 H    0.5612655065   -3.9255039094    0.5105897895
 H   -0.0443986105   -2.1419664805    2.2908458060
 H    1.6595673414   -2.3332403998    1.8936245422
 H    0.6568763071    0.0514795553    2.1358655237
 H    2.3028326867   -0.3810468768   -0.0630727611