20

 C    0.4922566821    1.2878965868    0.2843769604
 C   -0.1424279523   -0.0530329995   -0.0762797315
 N    0.5203921439   -0.6072965622   -1.2604980900
 C    1.6767097415   -1.4623445736   -1.0682267739
 C    0.3811596151   -2.0431277769   -1.5640403563
 C   -0.4296429148   -2.9934716618   -0.6633676709
 O    0.0323648238   -3.1101843005    0.6699059375
 C    0.2174494365   -2.3455283957   -2.9675054156
 C    0.0581604204   -2.6435933487   -4.1215838490
 H    1.5453324128    1.1616864017    0.5573016673
 H    0.4433445030    1.9788229953   -0.5617999066
 H   -0.0243087566    1.7394240542    1.1369054411
 H   -0.1090903482   -0.7344173970    0.7841386535
 H   -1.1969712826    0.0964762803   -0.3369806599
 H    2.5027133917   -1.3219475417   -1.7601197100
 H    1.9569023446   -1.7147147301   -0.0466961836
 H   -1.4597886929   -2.6285607059   -0.5933598373
 H   -0.4670868777   -3.9711391343   -1.1609198742
 H    0.8531005287   -3.6129422741    0.6554152911
 H   -0.0775672590   -2.8838992962   -5.1469381120