17

 C   -0.0458090860    1.5705283608    0.0119128799
 C    1.4753542852    1.7743196081    0.0010680259
 C    2.0185121737    0.5870707573    0.8959834732
 O    0.8749739299   -0.2095672585    1.1644127747
 C    0.0637804441    0.0348417263    0.0085383940
 C    0.9769855500   -0.2617314877   -1.2284518592
 O    2.0343094325   -1.1729256735   -0.8395012364
 C    2.7668384332   -0.0341594653   -0.3604589088
 C    1.9661206760    0.9611617173   -1.2203403120
 H   -0.5570810875    1.9441704964    0.9022123559
 H   -0.5224426127    1.9759281865   -0.8869538892
 H    1.8768439582    2.7714614062    0.1693866332
 H    2.5704300300    0.7730469323    1.8165491445
 H   -0.8478668922   -0.5560720806    0.0860763385
 H    0.4557648452   -0.5734888057   -2.1350294816
 H    3.8473335456   -0.1804406988   -0.3330442983
 H    2.2890706147    1.4036323989   -2.1611140743