16

 O   -0.0131449408   -0.0153482315   -0.2628651777
 C    0.0129236080    1.1798222525   -0.0336235701
 N   -1.1462670723    1.9138802789    0.1466385273
 C   -1.1704726480    3.3721805219    0.0100001694
 C    0.0169949645    3.9726673344    0.7914877607
 C    1.2882936140    3.2163955063    0.5256993136
 C    1.2750077833    1.9403727831    0.1368945718
 C   -1.1779823094    3.8058228982   -1.3958486791
 C   -1.2065189206    4.1542395632   -2.5456857778
 H   -1.9754284526    1.4166583438   -0.1492406600
 H   -2.0977016475    3.7256646188    0.4750838314
 H    0.1247275464    5.0277350042    0.5256000472
 H   -0.2092100002    3.9365111009    1.8661042325
 H    2.2288583448    3.7348777182    0.6917229195
 H    2.1786425145    1.3694835507   -0.0404707682
 H   -1.2273652342    4.4540348762   -3.5645399606