19

 C    0.0322949258    1.5129176188   -0.0562425295
 C   -0.0284742902   -0.0214613623   -0.0330057870
 C   -1.4297348521   -0.5449495906    0.0174803756
 N   -2.3542196767   -0.1955230065    0.8985629188
 C   -3.4648097740   -0.9213401026    0.5758328153
 O   -4.6277021014   -0.8363083133    1.2535641901
 C   -4.6382813576    0.0635331872    2.3542083548
 C   -3.2377128445   -1.7297935378   -0.5108512387
 N   -1.9195424396   -1.4660852208   -0.8510896525
 H    1.0693086620    1.8608075243   -0.0305692664
 H   -0.4420483878    1.9119311782   -0.9580765398
 H   -0.4953299569    1.9222432261    0.8083532131
 H    0.4775029989   -0.4351898401   -0.9137584824
 H    0.5244751195   -0.3896788594    0.8407753992
 H   -4.4279918598    1.0893273646    2.0334662578
 H   -5.6425219503    0.0035032189    2.7777861656
 H   -3.8964677860   -0.2193268664    3.1086626700
 H   -3.8552705414   -2.4272413657   -1.0471787876
 H   -1.4133765280   -1.8879905324   -1.6111688366