17

 O    0.2796098562    1.0120389776   -0.7635276840
 C   -0.0120798042    0.0925030185    0.2807938912
 C   -1.3620066822   -0.4634443545    0.2149745046
 C   -2.4957965926   -0.8679423467    0.1499602188
 C   -3.8434626926   -1.3698722296    0.0664823187
 C   -4.3206241633   -1.9003031766   -1.2961284333
 C   -4.0276271239   -2.8723580995   -0.2052974559
 C   -4.8212861123   -0.7226939162    0.9056637927
 C   -5.6447839038   -0.1894474259    1.6004264275
 H   -0.4318930581    1.6607267553   -0.7797002754
 H    0.7313212677   -0.7071735691    0.1875449652
 H    0.1394817352    0.5500183122    1.2717538927
 H   -5.3548148687   -1.6989433914   -1.5475206611
 H   -3.6156598855   -1.8088065332   -2.1132687393
 H   -3.1189342374   -3.4589298339   -0.2624501868
 H   -4.8578657141   -3.3474303410    0.3029048079
 H   -6.3651521503    0.2864693441    2.2182778567