18

 C    0.0606479432    1.5735426714   -0.0330955140
 C    0.0079331350    0.0526198684    0.0013084267
 N    0.7581704781   -0.5542983635   -1.1053463921
 C    2.1643855277   -0.7527056531   -0.6848887183
 C    1.2199862110   -1.9035957047   -0.7130912579
 C    1.2021921541   -1.9503220287    0.8365159396
 C    2.1649221770   -0.7702463709    0.8657823734
 C    0.7109075558   -0.5633893969    1.2089170887
 O    0.3812319693   -0.2235806326    2.5127469037
 H    1.0980633147    1.9227400874   -0.0238593910
 H   -0.4246112959    1.9601774682   -0.9330437913
 H   -0.4426343728    1.9885371618    0.8452822663
 H   -1.0325414911   -0.2928906792   -0.0614525661
 H    2.9692872587   -0.4609666330   -1.3471431424
 H    1.1045982575   -2.7286447766   -1.4046628672
 H    1.1592479989   -2.8138471650    1.4846135035
 H    2.9820457563   -0.5680604728    1.5423241276
 H   -0.4562881374   -0.6474452701    2.7307323707