20

 C   -0.0469403482    1.5068270502    0.0320440932
 C   -0.0370374101    0.0522274191    0.0029929714
 C   -0.0349288921   -1.1529634496   -0.0066931530
 C   -0.0026166634   -2.5772168604   -0.0673157251
 C    0.7904088160   -3.4149424768   -1.0938691847
 C   -0.3808931916   -4.4576721104   -1.1209636697
 C   -0.0868794379   -5.9212398688   -0.8151130545
 C   -1.1087998814   -3.6160924905   -0.0565739311
 N   -0.2973303867   -3.3795905281    1.1257372982
 H    0.8402856038    1.9200873987   -0.4607553260
 H   -0.9279548605    1.9127391627   -0.4780189386
 H   -0.0578588110    1.8818293932    1.0615248681
 H    0.9306364124   -2.9098801449   -2.0512057389
 H    1.7631184231   -3.7711392025   -0.7365750959
 H   -0.9101322556   -4.3807697260   -2.0760754164
 H    0.4169934281   -6.0430827758    0.1506071695
 H   -1.0089446163   -6.5117348407   -0.7846753722
 H    0.5653129765   -6.3573766577   -1.5793271282
 H   -2.1804312102   -3.4742939988    0.0324868100
 H    0.4028142650   -4.1024508028    1.2866433437