14

 C   -0.0157164106    1.4845918463    0.0590758084
 C    1.3074877870    0.7671465294    0.0100320579
 C    2.0037567000    0.4357070915    1.3314516700
 C    1.0114643682   -0.4668432283    2.0377331731
 C   -0.0486844131   -0.7425601691    1.2739891192
 C    0.0112082051   -0.0297905194   -0.0351921851
 H   -0.3433374469    1.9243839051    0.9959949839
 H   -0.3055711405    2.0379428900   -0.8284815791
 H    1.9131550297    0.8881727238   -0.8802001080
 H    2.9601965946   -0.0783326197    1.1638513275
 H    2.2378132276    1.3336501540    1.9184157331
 H    1.1613472445   -0.8155715950    3.0533986830
 H   -0.8831242115   -1.3722109753    1.5619037561
 H   -0.3513441642   -0.5062309832   -0.9394736100