16

 C   -0.0049677043    1.5295185246    0.2035903238
 C    1.5283746570    1.4113563030   -0.0316599471
 O    2.2194759175    1.1527305610    1.1754563426
 C    1.5888015930    0.1121871229    1.9248044960
 C    0.8643719327   -0.8065948283    0.9515951247
 O    1.8115043633   -1.0801966038   -0.1237155749
 C    1.2554369735    0.0436287366   -0.8087836541
 C   -0.0681174816    0.0080358378   -0.0199101154
 H   -0.3281233698    1.9566565408    1.1564485701
 H   -0.5018936395    2.0608142956   -0.6135561327
 H    2.0586542034    2.2176311364   -0.5389332345
 H    2.3815688633   -0.4286608901    2.4507276303
 H    0.8938630182    0.5247872387    2.6727147350
 H    0.4730050059   -1.7173667665    1.4112264972
 H    1.3770226995    0.0226469994   -1.8930005898
 H   -0.9741089521   -0.4980443881   -0.3525698712