18

 C    0.2032285553    1.4959761281    0.0131050854
 C    0.0472979864   -0.0372598292    0.0133086413
 N    0.5753463047   -0.6109409520   -1.2223496479
 C    1.7962580872   -0.9691827087   -1.2096842797
 N    2.4432773040   -1.3591116587   -2.3650271518
 C    2.6689477461   -0.8983350688    0.0237019652
 O    1.9247679418   -1.0901318066    1.2201139503
 C    0.6336512917   -0.6431635106    1.2749533104
 N   -0.0511102918   -0.7438063127    2.3339342666
 H    1.2572658435    1.7927336322    0.0391242806
 H   -0.2398142196    1.9051170680   -0.8986191925
 H   -0.2990729151    1.9253810952    0.8834219511
 H   -1.0217485937   -0.2593970248    0.0527973734
 H    1.8194037803   -1.4895017778   -3.1500193639
 H    3.1437993229   -2.0799728753   -2.2764521427
 H    3.4398758304   -1.6756872942    0.0189572651
 H    3.1842499170    0.0723743673    0.0479991665
 H    0.5079076789   -1.1601160413    3.0817777726