17

 O   -0.4174326815    0.1603644906    0.6613174809
 C   -0.2343653375    1.2780779073    0.2758023209
 O   -1.2413004910    2.0785169083   -0.1611729537
 C   -0.7349262149    3.3564648541   -0.5888763371
 C    0.6407759982    3.4990012218    0.0761610756
 C    1.0959331871    2.0378739177    0.1832034953
 C    2.0221632845    1.7086374747    1.3257690709
 C    2.9585145496    0.5852267495    1.2613357733
 O    3.4142133203    1.9334314842    1.1006184272
 H   -0.6651831804    3.3547446892   -1.6830267135
 H   -1.4563689776    4.1172103444   -0.2850720007
 H    1.3232003853    4.1301498540   -0.4949930889
 H    0.5340677933    3.9322212208    1.0766042741
 H    1.5779423593    1.7205464574   -0.7507190971
 H    1.6698692642    2.0264258413    2.3086937519
 H    3.2694786446    0.0911368465    2.1795771427
 H    2.9936707466   -0.0319263515    0.3655150782