19

 O   -0.1124166254    1.4205792601    0.7773981622
 C   -0.0181373443    0.1455461930    0.1407424944
 C    0.8392520566   -0.7983147120    0.9517514021
 C    0.1331502226   -1.7930564191    1.4858913524
 C   -1.3191776690   -1.7594874053    1.0646818243
 C   -2.2955028838   -1.2826229733    2.1220800836
 C   -2.9903687966   -0.2193143814    1.7175009452
 C   -2.6359183131    0.2105504840    0.3124901992
 C   -1.3759125270   -0.6265461813   -0.0103415945
 H   -0.3575103658    1.2581664324    1.6960366172
 H    0.4098877283    0.3748107895   -0.8403572175
 H    1.8915569796   -0.6005832893    1.1241562137
 H    0.5256311856   -2.5511340974    2.1562354709
 H   -1.6306684874   -2.7374461001    0.6704500747
 H   -2.4032185762   -1.7763396766    3.0821973278
 H   -3.7530720126    0.2831621597    2.3039339104
 H   -3.4582791283   -0.0110355325   -0.3801508194
 H   -2.4356860681    1.2842353550    0.2385273903
 H   -1.4168665751   -1.0480784157   -1.0170912569