14

 O   -0.0853337142    1.3960459335    0.0684648719
 C   -0.0888101021    0.0118485963   -0.0036532704
 C   -1.4109182100   -0.7401846622   -0.0202120439
 C   -2.6952719835    0.0027165172    0.0368438707
 O   -3.6796350779   -0.4281235067    0.5863209485
 C   -0.5151527343   -0.6666699968   -1.2813922622
 C   -0.8614352216    0.1681919986   -2.3929338085
 C   -1.0878462692    0.9195796871   -3.3060726135
 H   -0.0536088108    1.7495182422   -0.8306978930
 H    0.7175799154   -0.4512786368    0.5597552847
 H   -1.4398534602   -1.7058181619    0.4723231546
 H   -2.6930581011    0.9946180574   -0.4555690459
 H   -0.0199314777   -1.5982152799   -1.5366870127
 H   -1.3200921827    1.5512838919   -4.1281295604