15

 C   -0.1088135875    1.4641081697    0.0879948568
 C    1.2963670256    0.9127887828   -0.0658409763
 C    0.1128173295   -0.0201587191   -0.0507562931
 O   -0.0767074137   -0.8238197966    1.0981296829
 C   -0.6152391262   -2.0880145015    0.7103355407
 C   -0.7503901734   -2.0147758955   -0.7867218585
 C   -0.3300489371   -0.8258937700   -1.2083287431
 H   -0.4010398007    1.8117608384    1.0725453204
 H   -0.5540190904    2.0059447197   -0.7399156510
 H    1.8240518607    1.0729144477   -1.0002601270
 H    1.9242932464    0.8994217892    0.8179736427
 H    0.0602817357   -2.8952701869    1.0350921194
 H   -1.5808343990   -2.2512901195    1.2147423247
 H   -1.1348873585   -2.8262745950   -1.3903265544
 H   -0.2983641915   -0.4610563934   -2.2265551942