16

 O   -0.1387008488    1.4260287446    0.2851810819
 C   -0.0315154215    0.0454079278    0.0874225391
 C    0.9356297991   -0.6175503665    1.0719891802
 C    2.3261597403   -0.0153644982    1.0496007497
 O    2.5854252120    1.0981367597    0.6582317486
 C   -1.4340163265   -0.6196682018   -0.0515178530
 N   -1.0458013514   -1.0183138463   -1.4074551026
 C    0.1826463940   -0.4085930375   -1.4052481227
 O    1.0507237490   -0.2923813853   -2.2273723084
 H    0.7675674653    1.7718023476    0.2448974826
 H    0.5623881803   -0.4957473464    2.1005360377
 H    1.0125825143   -1.6968011871    0.8949493349
 H    3.1287263234   -0.6647058322    1.4588308743
 H   -1.6407361817   -1.4568578379    0.6229261448
 H   -2.2412451163    0.1159837060   -0.0053444065
 H   -1.5683548316   -1.4593417866   -2.1497846105