17

 C   -0.4438291740    1.3990812107    0.0111970317
 C    0.1945266500    0.0345332630   -0.0753173345
 O    1.4885931410    0.0528109910   -0.7095552106
 C    2.0767975811   -0.7557586827    0.3148526447
 C    0.8045011300   -0.6385273156    1.2256702490
 C    0.9814260337    0.2577982155    2.3599677643
 C    1.1468772208    1.0048326243    3.2864694156
 C    0.1840611800   -1.8930214492    1.6240318285
 C   -0.3322427411   -2.9378540433    1.9164576588
 H    0.1958611211    2.0978121784    0.5542835412
 H   -0.6107454947    1.7847657706   -0.9994577858
 H   -1.4109107865    1.3352819671    0.5201325505
 H   -0.4717095067   -0.6806273643   -0.5752969906
 H    2.2690191298   -1.7836041854   -0.0145709239
 H    2.9872179050   -0.3127817032    0.7280614012
 H    1.2866583340    1.6570607809    4.1130004290
 H   -0.7873796435   -3.8577486777    2.1895486808