21

 C    0.0333880045    1.4989737872    0.2854994643
 C   -0.0645578145    0.0463288786   -0.1936895508
 C   -1.4493755537   -0.5373618992   -0.0318594494
 C   -1.8782625677   -1.1176594420    1.2904203273
 C   -1.6510133191   -2.0274514200    0.0879443173
 C   -2.8471988863   -2.6238521980   -0.6460141912
 O   -3.3670830474   -1.7414048140   -1.6382603250
 C   -3.5691632413   -0.4635498326   -1.1193658734
 O   -2.3635952068    0.1983079710   -0.8130302433
 H    1.0426455922    1.8928410027    0.1326222700
 H   -0.6682448076    2.1326411754   -0.2626258906
 H   -0.2028393461    1.5797756906    1.3518422663
 H    0.2122447651   -0.0159013113   -1.2530773297
 H    0.6434325127   -0.5823271323    0.3585197559
 H   -1.1535858699   -1.1376173932    2.0973751482
 H   -2.9034262829   -0.9761614588    1.6181449958
 H   -0.7581262837   -2.6442788898    0.0989244768
 H   -2.5532341881   -3.5288579036   -1.1825920495
 H   -3.6499517947   -2.8956495906    0.0580394346
 H   -4.0524800851    0.1344898347   -1.8945679231
 H   -4.2204735294   -0.5105578348   -0.2262579404