18

 C    0.2541602022    0.6898319984    0.9487914725
 O    0.1000247019   -0.0864347548    2.1233428269
 C   -0.6109572235   -1.3168770703    1.9028227248
 C    0.1682309915   -2.3528389119    1.1431121047
 N   -0.4223630284   -2.8525980319    0.0401914521
 O    0.1353818556   -3.7985777686   -0.5998337162
 C    1.4583849653   -2.7540927464    1.6025138418
 N    2.0279544219   -2.1077288883    2.6490632335
 N    2.0725319512   -3.7667838764    0.9977978672
 H    3.0337178099   -3.9957344919    1.1934250022
 H    1.5106041649   -4.1137389548    0.1808892129
 H   -0.7229645495    1.0019130573    0.5534460013
 H    0.8282803879    1.5783304118    1.2225551137
 H    0.7851022473    0.1416678111    0.1592383233
 H   -0.8603301938   -1.6569226770    2.9149857325
 H   -1.5449858328   -1.1356148881    1.3561548273
 H    1.6616172356   -1.1831123277    2.8468550580
 H    2.9925316728   -2.2877454904    2.8777670716