18

 C    0.1005585913    1.5346195457   -0.3016674072
 C    0.0318590816    0.0836376799    0.0954097215
 O    1.2469462770   -0.6886782183    0.0900544066
 C    0.5599751458   -0.5246418479    1.3284660589
 C    1.3097454365    0.1341909974    2.4737203252
 C    2.4282594282   -0.8078848578    3.0231478966
 O    3.6388877544   -0.0239284573    2.9060045757
 C    3.2507892983    1.1563158505    2.3794077007
 N    2.0300351923    1.3689466144    2.1180629181
 H    0.9303161292    2.0417083649    0.1869017744
 H    0.2079413878    1.6127581451   -1.3891236687
 H   -0.8335562414    2.0365079778   -0.0248688954
 H   -0.8033176867   -0.4585779052   -0.3568794483
 H    0.0501865061   -1.4322777011    1.6702280454
 H    0.5737865521    0.3660712729    3.2538171901
 H    2.2990846179   -1.0789589598    4.0736042277
 H    2.5513259723   -1.7137904020    2.4238870601
 H    4.0572792272    1.8648435209    2.2261309885