15

 O    0.0625990305    1.4199629401    0.0433603756
 C    0.0086383279    0.0500341005    0.0350591770
 C    0.0923222997   -0.8357456863    1.3410640682
 C   -1.4061061496   -0.5476558826    1.6106179453
 C   -1.3401356260   -0.7717952912    0.0789176180
 C   -0.3297667927   -1.9217230295    0.3196142363
 O    0.6274588726   -1.9763052242   -0.7695924561
 C    0.8727390657   -0.6584166730   -0.9813010540
 O    1.6124281480   -0.1852726645   -1.7969647048
 H    0.6859734750    1.6738146744   -0.6528736076
 H    0.9215240455   -0.8802394635    2.0472062891
 H   -1.9539740442   -1.2925584533    2.1947216657
 H   -1.6459833076    0.4650656324    1.9342017651
 H   -2.1455484854   -0.7436540656   -0.6550646948
 H   -0.6334935495   -2.9214229337    0.6134112971