20

 C   -0.0668487190    1.5881689150   -0.0968935470
 C   -0.1014729243    0.0671364245   -0.0719479535
 O   -1.3909301056   -0.4406973429   -0.3289287725
 C    1.0800897489   -0.6051578512   -0.8398891601
 N    1.7874213521   -0.7391454948    0.4495199921
 C    2.5873342194   -1.9152757484    0.6941786449
 C    3.4095772777   -1.7681229089    1.9651260778
 O    3.7141887926   -2.6778354284    2.6905021460
 C    0.5203808329   -0.5668189016    1.1941649637
 H    0.9330000750    1.9541231188    0.1522632449
 H   -0.3234851723    1.9668003169   -1.0945733526
 H   -0.7823735623    1.9990317365    0.6223265641
 H   -1.7771585266    0.0627768423   -1.0534026641
 H    0.7536376560   -1.5650870180   -1.2673185015
 H    1.6155628377   -0.0237445468   -1.5994428068
 H    2.0140622278   -2.8579577262    0.7454594461
 H    3.3105674523   -2.0183767705   -0.1290962843
 H    3.7277973186   -0.7194243041    2.1640386894
 H    0.5890277888    0.0452431262    2.0997027022
 H    0.0176189502   -1.5170164485    1.4292890212