15

 C   -0.2264667529    1.2853893056   -0.0753418334
 O   -0.0837066549   -0.1304234437   -0.1333147334
 C    0.7551626965   -0.5790762158   -1.1337537070
 C    0.8537051623   -2.1027066817   -1.0381526722
 C   -0.1484533666   -2.5815670538   -2.0686606943
 O   -0.6177099970   -3.6713492263   -2.2234696734
 C   -0.4644256358   -1.3577698924   -2.9623155262
 O   -1.1242647791   -1.3263037498   -3.9545785699
 O    0.1899272447   -0.2870141754   -2.4439665385
 H    0.7505794535    1.7719687189    0.0520639429
 H   -0.7057450285    1.6740133862   -0.9794994683
 H   -0.8515530137    1.4995155771    0.7925161342
 H    1.7168796589   -0.0520801240   -1.1219748749
 H    1.8512312892   -2.4524043918   -1.3246639393
 H    0.6292964235   -2.4639878631   -0.0346855265