21

 O   -0.0294193183    1.3984286395    0.0716004685
 C    0.0251152274   -0.0124287200    0.0191522957
 C    0.3102287930   -0.6212292831   -1.3940456342
 C   -0.9735504951   -1.4747148021   -1.2854579643
 C   -0.8418586620   -2.7518578712   -0.4082035529
 C   -1.2405328738   -1.9431526876    0.8717932601
 C   -0.1297547041   -1.6517655654    1.8872631539
 C    0.8259326931   -0.6512357979    1.1886565759
 C   -1.3884966672   -0.6722602941   -0.0043740711
 H    0.8676482473    1.7349457370   -0.0311636646
 H    0.1995002245    0.1590710036   -2.1522648473
 H    1.2612294097   -1.1434860353   -1.5465511187
 H   -1.5936183276   -1.5574423529   -2.1780139527
 H   -1.5766180566   -3.5191429326   -0.6639785935
 H    0.1468757449   -3.2233242598   -0.3945317417
 H   -2.1521791718   -2.3151814026    1.3440970865
 H   -0.5693488474   -1.1851396846    2.7762551489
 H    0.3807705573   -2.5603851897    2.2235706406
 H    1.7277208434   -1.1499963719    0.8188189221
 H    1.1497406992    0.1347033364    1.8769807662
 H   -2.2491439358   -0.0100068655    0.0747530125