15

 O    0.0542369813    1.4897224629    0.2766947813
 C    0.0224213912    0.0893660339    0.0500442700
 C    0.7105915759   -0.6682444918    1.1708018625
 C   -0.1300251068   -1.3633041408    1.9396986837
 C   -1.5212424473   -1.2298857527    1.4471432324
 O   -2.5205789784   -1.6793994966    1.9425783711
 C   -1.4434643493   -0.4246091202    0.1113309694
 C   -2.4832304378    0.5735583315   -0.0361913694
 C   -3.3730718860    1.3704515408   -0.1567979281
 H    0.9666945390    1.7867539692    0.1973434511
 H    0.4728906245   -0.1487325305   -0.9242414437
 H    1.7830621546   -0.5899307540    1.3212222975
 H    0.1108023250   -1.9448113209    2.8205621627
 H   -1.5676325454   -1.1828972494   -0.6744175999
 H   -4.1523792904    2.0845685387   -0.2558800404