16

 C   -0.1559416809    1.6270559153   -0.0555874596
 C    0.0166691138    0.1206175339    0.0101076753
 C    1.1832635416   -0.6525586209   -0.6661044844
 C    2.1830865372   -0.1309517781    0.3898302672
 C    0.8813668458   -0.5927050915    1.1080795230
 O    0.8905175051   -1.7978255991    0.2279983584
 C    0.6179374299   -0.7367704848    2.5073151242
 C    0.3906753335   -0.8189096059    3.6851139133
 H    0.7819518286    2.1769947032    0.0537610574
 H   -0.6008103946    1.9145108684   -1.0142393550
 H   -0.8346186444    1.9638448562    0.7350435765
 H   -0.9317251101   -0.4059898528   -0.1236125015
 H    1.3465967813   -0.8754322348   -1.7196089922
 H    3.0416347008   -0.7787987616    0.5661563504
 H    2.4407009922    0.9287315830    0.4097663391
 H    0.1910360102   -0.9004371006    4.7251627080