23

 C   -0.0142103875    1.3717773847    0.0192080553
 O   -0.0221074098   -0.0351523295    0.0127138910
 C    0.6790566902   -0.5956112143    1.0999800470
 C    0.6580885795   -2.1189005585    0.9656416823
 C    1.4246930584   -2.5725565440   -0.2896227981
 O    1.1861135478   -3.9193909456   -0.6387285822
 C    1.2184828262   -2.7478296085    2.2416592422
 O    1.1639193254   -4.1621443523    2.1378200157
 C    1.7041563129   -4.8217759826    3.2613942062
 H    1.0090201590    1.7757613183   -0.0405259732
 H   -0.5774181899    1.7056926814   -0.8554067351
 H   -0.4901156479    1.7794417359    0.9254564383
 H    1.7203580058   -0.2250671446    1.1152760688
 H    0.2157993175   -0.2862440285    2.0533810933
 H   -0.3861053493   -2.4341880712    0.8515653924
 H    1.1034938292   -1.9621910804   -1.1377396582
 H    2.5026072249   -2.3762413656   -0.1341598602
 H    1.2859472381   -4.4304333434    0.1746938687
 H    2.2641486803   -2.4274678704    2.3959790127
 H    0.6435680290   -2.4197665901    3.1236638650
 H    1.6019645170   -5.8957989178    3.0915682868
 H    2.7686093049   -4.5796432105    3.4019133190
 H    1.1635045685   -4.5521437126    4.1810734525