21

 C   -0.0191603929    1.5626562603   -0.0423193723
 C    0.0491540761    0.0299806331   -0.0011832900
 C   -1.3797994297   -0.5411723476   -0.0027877887
 C    0.8452928704   -0.5715798738   -1.2012459664
 C    1.5417117726   -1.7693229094   -0.6091022021
 C    1.4890784907   -1.7740188025    0.7222293796
 C    0.7920220285   -0.5449480847    1.2675046680
 C    1.8346422187    0.3982307829    1.8480995355
 O    1.8279510606    0.8188952123    2.9762513983
 H    0.9730152046    2.0225961272   -0.0880579783
 H   -0.5738864705    1.8947600930   -0.9265199912
 H   -0.5321197393    1.9610685508    0.8394987478
 H   -1.9156982905   -0.2329282147   -0.9072548164
 H   -1.3681319095   -1.6351735583    0.0285276421
 H   -1.9468674960   -0.1822701123    0.8624225505
 H    0.1832308991   -0.8341143375   -2.0356609018
 H    1.5738237039    0.1451001601   -1.6051497141
 H    2.0270383628   -2.5264470749   -1.2155858580
 H    1.9314130337   -2.5213059815    1.3712500472
 H    0.0875356387   -0.7631429060    2.0769965690
 H    2.6537702277    0.6644737437    1.1404023712