15

 O    0.0794742009    1.3486303196   -0.0095642648
 C    0.0639968414    0.0045932951   -0.0051400463
 N    0.0923595397   -0.7790556286   -1.0521833010
 C    0.0589236904   -2.0573898284   -0.5191813295
 N    0.0780963852   -3.1278046666   -1.4058511346
 C    0.0549376574   -4.4537254855   -1.0830660701
 N    0.0082515011   -4.8768894044    0.1229305223
 C    0.0104136889   -2.0344714725    0.8462364370
 N    0.0147649836   -0.6698000010    1.1625771976
 H    0.1153844571    1.6160064407   -0.9361568749
 H    0.1176932935   -2.8665635712   -2.3767705844
 H    0.0808091315   -5.0868720544   -1.9776279067
 H   -0.0014342579   -5.8938416076    0.1320646129
 H   -0.0242677325   -2.8172099305    1.5776907189
 H   -0.0129954702   -0.2608549347    2.0800566738