18

 C   -0.0570959140    1.4904247670   -0.3396501565
 C    0.0305004246    0.0023543787   -0.1102785094
 C    1.3142118360   -0.7300539806   -0.2802523041
 N    0.7631003088   -0.5425382807    1.0601309811
 C    1.3936817981    0.3092831761    1.9588487845
 C    0.9960749094    0.7690398781    3.1788928661
 C    2.0668295046    1.5875095902    3.6675115962
 C    3.0366403039    1.5574729208    2.7202025631
 O    2.6405799382    0.7851611579    1.6627708105
 H    0.9098595399    1.9770446664   -0.1880414996
 H   -0.3873611574    1.6943516073   -1.3634731487
 H   -0.7782776017    1.9499016288    0.3446506585
 H   -0.8901270804   -0.5458823449   -0.2997586728
 H    1.3239601202   -1.7589571086   -0.6298826415
 H    2.1889360504   -0.1456446583   -0.5503530826
 H    0.0636026933    0.5363664872    3.6665048167
 H    2.1083267425    2.1139351520    4.6084239536
 H    4.0225311638    1.9835571926    2.6413602449