23

 C    0.2974787265    1.5015744855   -0.0624346678
 C    0.0719792847   -0.0076213921   -0.0084192317
 C   -1.4056330166   -0.3299598950   -0.2487576355
 C    1.0160361882   -0.8646500369   -0.9160159757
 C    1.4175093351   -1.7338092962    0.3088308449
 O    2.7795727137   -1.7003849138    0.6917439579
 C    3.0138772273   -0.4619989530    1.3513705085
 C    1.7169161319   -0.1452009265    2.1182878794
 C    0.6178055511   -0.7804222146    1.2503786849
 H    1.3512831648    1.7691734178    0.0629141614
 H   -0.0263204833    1.9000636117   -1.0310319276
 H   -0.2749466184    2.0208435675    0.7152669559
 H   -1.7327049340    0.0357565788   -1.2290118872
 H   -1.5916164546   -1.4091960059   -0.2188127403
 H   -2.0405252675    0.1374815076    0.5132242602
 H    0.5249918568   -1.3976546715   -1.7347573383
 H    1.8654117611   -0.3110675613   -1.3258455792
 H    1.1177276811   -2.7823292848    0.2576081611
 H    3.8880672179   -0.5875885075    1.9959858714
 H    3.2433531520    0.3319542514    0.6229112027
 H    1.7352826810   -0.6372133576    3.0954000090
 H    1.5827423765    0.9260303075    2.2889420604
 H   -0.1680114952   -1.2296214614    1.8612754458