15

 C    0.0766990543    1.4652925682    0.0077507190
 C    0.0638101650   -0.0273451355   -0.0181503375
 N    0.0570525097   -0.6608100858   -1.1364749169
 C    0.0292575482   -2.0544710911   -1.0683660423
 N    0.1209273239   -2.6636310790   -2.2956682966
 N   -0.0482920125   -2.7995646178   -0.0127586526
 O   -0.0156253557   -2.0998290226    1.2173826001
 C    0.0572916126   -0.7443159718    1.2740822778
 N    0.1059733199   -0.1101844615    2.3759101381
 H    0.9528953919    1.8210543014    0.5582913193
 H    0.0814590051    1.8556112470   -1.0100187376
 H   -0.7935219331    1.8382497976    0.5567153508
 H   -0.2262581124   -2.1101208847   -3.0632817245
 H   -0.1187000816   -3.6431134749   -2.3170676389
 H    0.0896292548   -0.7579575896    3.1661160620