19

 C    0.3055780108    1.3994697417    0.0425919817
 C   -0.0466861939   -0.0998144543   -0.0422851956
 C   -1.5569590948   -0.3378559316   -0.0777101892
 C    0.6371413306   -0.7243729434   -1.2570914146
 O    0.0301892309   -1.1569025301   -2.2145371471
 C    2.0887109321   -0.7741064211   -1.2076837392
 C    3.2952011253   -0.8270330930   -1.1655394991
 C    4.7510481500   -0.9542847576   -1.1672852433
 O    5.3010554476   -1.2127255363   -2.4463288719
 H    1.3869420428    1.5580993198    0.0692926380
 H   -0.0985539933    1.9408525193   -0.8192163037
 H   -0.1260915476    1.8351407947    0.9483165581
 H    0.3865584478   -0.5907135138    0.8407173680
 H   -2.0020222877    0.1287593632   -0.9605973709
 H   -1.7910872722   -1.4046590014   -0.1186657379
 H   -2.0274802508    0.0873311877    0.8138670261
 H    5.2070548552   -0.0185635605   -0.8247444509
 H    5.0337611884   -1.7280258060   -0.4343573915
 H    4.8303541387   -1.9637001372   -2.8235262870