23

 C    2.2911890939    1.4704253735   -0.3358682631
 C    2.1730707424   -0.0475446713   -0.4987638177
 C    0.8892474549   -0.4636268517   -1.2311564124
 C    0.7741017860   -1.9567526085   -1.5155063509
 C    0.7537372964   -2.8661485094   -0.2900649623
 C   -0.4304339120   -2.5794956505    0.6094027150
 O   -0.3577570162   -2.3097648537    1.7811401821
 C   -0.0588437302   -2.3793574536   -2.7064392374
 C    1.4457395491   -2.4865151836   -2.7607758372
 H    2.3049298081    1.9745625075   -1.3088640221
 H    1.4466650231    1.8743306434    0.2333280867
 H    3.2090295285    1.7436160396    0.1936653190
 H    3.0423193893   -0.4299337297   -1.0491905653
 H    2.2021519472   -0.5185620770    0.4908500537
 H    0.0198835608   -0.1313079349   -0.6458722458
 H    0.8319399760    0.0762055277   -2.1852163489
 H    0.6669717613   -3.9102507831   -0.6216937935
 H    1.6681374255   -2.7796553069    0.3039881762
 H   -1.4179546211   -2.6294616452    0.0939182782
 H   -0.6316424856   -3.2984184810   -2.6384510830
 H   -0.5393477265   -1.6035988974   -3.2929267287
 H    1.9841571587   -1.7788880880   -3.3823599745
 H    1.8912467003   -3.4751355163   -2.7281117081