22

 C   -0.0604266251    1.5865674092   -0.1871618996
 C    0.0236006240    0.0771403082    0.0344351031
 N   -1.2823907325   -0.5491122919    0.1586273397
 C   -1.2493775026   -2.0141174857    0.1293747486
 C   -2.6752764555   -2.4201514528    0.5181580455
 C   -2.8804818949   -3.8288205514    1.0656333514
 C   -3.0558421038   -1.3165728270    1.5108689774
 O   -3.9584246356   -1.3508710007    2.3055676369
 C   -2.0509926064   -0.1765618465    1.3389757779
 H    0.9392002872    2.0027348264   -0.3438806582
 H   -0.6730439916    1.8123208185   -1.0649505753
 H   -0.4989605167    2.0984746928    0.6749358195
 H    0.5282719181   -0.3872154030   -0.8214181976
 H    0.6541782304   -0.1331666254    0.9225890837
 H   -0.9489611284   -2.3653507783   -0.8626792226
 H   -0.5299419574   -2.4322898382    0.8625443591
 H   -3.3256992783   -2.2625506748   -0.3545910490
 H   -2.2017529142   -4.0286070834    1.9013988461
 H   -3.9036667285   -3.9407530234    1.4333865783
 H   -2.7017867462   -4.5849210486    0.2955782342
 H   -1.4395065589   -0.1304884679    2.2640777614
 H   -2.5573836030    0.7876988941    1.2365606093