16

 C   -0.0166092395    1.5348006983    0.0735412709
 C    1.3436879761    2.1792080516   -0.0390268829
 C    2.4222229274    1.5169445920   -0.4618407621
 C    2.3622526933    0.1015823422   -0.8967358637
 C    1.8316117581   -1.0236504135   -0.0056406513
 O    0.9415221660   -0.5318231989    0.9834838642
 C    0.0782355903    0.0229385542   -0.0639588531
 C    1.0102623180   -0.5308277646   -1.1561683349
 H   -0.4581160682    1.7630432404    1.0524865610
 H   -0.7154879208    1.9412053799   -0.6735701718
 H    1.4238290228    3.2224115634    0.2532871570
 H    3.3882748988    2.0118377513   -0.5012515397
 H    3.1459054373   -0.2365170502   -1.5689441742
 H    2.3565399141   -1.9521234994    0.1877049653
 H   -0.9015306376   -0.4638010626   -0.0331339168
 H    0.7104844838   -0.9921637042   -2.0869952681