19

 C   -0.0199621872    1.5319684499    0.0814447304
 C   -0.0278564521    0.0403310721   -0.0528296073
 C    0.7002738948   -0.8487298416   -1.1093113984
 C    1.6751188035   -1.2092003964    0.0156595557
 N    0.6423340048   -0.8201498998    1.0367799225
 C   -0.5342315318   -1.8029134145    0.9799834581
 C   -0.3859556332   -2.8567143423   -0.1248045344
 N   -0.5185748034   -1.7790101080   -1.1665491070
 C   -1.2139298810   -0.9236548410   -0.1034803330
 H    1.0038160740    1.9168842694    0.1390990734
 H   -0.5136643438    2.0024242246   -0.7758807369
 H   -0.5442972312    1.8386301504    0.9927076906
 H    1.0477957617   -0.5445426125   -2.1000440802
 H    2.0867324998   -2.2185244898    0.0968176907
 H    2.5038963156   -0.4951507367    0.0681794855
 H   -0.9239570364   -2.0561005014    1.9686922226
 H    0.5029626068   -3.4905434272   -0.1835964991
 H   -1.2729145644   -3.4975149235   -0.1777429805
 H   -2.2769934265   -0.7058882620   -0.2164808828