14

 O   -0.9091031449    1.6600445992    0.2112732798
 C    0.1012907854    1.1826776362   -0.2209932822
 C    1.4420711889    1.9183137080   -0.3243666494
 O    2.4127797366    1.3780595963   -0.7932315482
 O    1.3711008106    3.1579105107    0.1608035193
 C    2.5566032028    3.9405497046    0.1033592504
 C    2.4833237738    5.2172191810   -0.6785709326
 C    2.4922035752    5.2383614091    0.8372914390
 H    0.1834280303    0.1462587435   -0.6051946347
 H    3.4578408686    3.3422271973    0.0914577113
 H    3.3677812411    5.5327556065   -1.2200261132
 H    1.5418988180    5.4373229584   -1.1682529355
 H    1.5570477247    5.4718098671    1.3328540819
 H    3.3820805388    5.5733061021    1.3576130440