14

 O   -0.1032626212   -0.0360723817    0.1510957981
 C   -0.1336415099    1.1449231971    0.0349626747
 C   -1.2093964881    2.2411176122   -0.1213243538
 C   -0.0375526344    3.2540297565   -0.0247675212
 C    0.2711252717    3.9951252658    1.2864976009
 O    1.5778302179    3.5211232657    1.6647857350
 C    1.8693969307    2.3262514536    1.0632023345
 O    2.7664610578    1.6153625061    1.3842385692
 N    0.9157214106    2.1291330980    0.0339468096
 H   -1.7527681048    2.2190166214   -1.0675171144
 H   -1.9221771736    2.2626216421    0.7063521504
 H    0.1035846615    3.8856357351   -0.9043475593
 H    0.3260743901    5.0784067466    1.1720780750
 H   -0.4372276284    3.7531650615    2.0877730710