14

 O   -0.4243793272    0.6864264593    0.9073280666
 C    0.0927791430    1.0084921385   -0.1263681715
 C    1.4055094385    1.7916205976   -0.2096912325
 C    1.3423049186    2.8757131254   -1.2476638042
 C    1.3997893117    4.2383728710   -0.9255203756
 N    1.3349874284    5.1877751450   -1.8514813249
 N    1.1955672310    4.8253083940   -3.1258091276
 C    1.1292088630    3.5227918404   -3.3943091646
 N    1.1998472783    2.5139107544   -2.5205481702
 H   -0.3400918472    0.7479676160   -1.1150203884
 H    1.6530318461    2.1759330613    0.7814889156
 H    2.1742036940    1.0678743985   -0.5118413563
 H    1.5082787870    4.5780196510    0.1003006633
 H    1.0096368950    3.2642267476   -4.4426017497