20

 C    1.5821201562    1.3330464051    0.1054286473
 C    0.4356823379    0.4039074835   -0.2895529739
 O    0.9541850515   -0.5837999182   -1.1575889227
 C   -0.0169373249   -1.4025596727   -1.7529369303
 C   -0.7781996059   -0.8812558167   -2.9482061641
 C    0.2968931514   -1.9401723757   -3.1156169748
 C    1.6004294299   -1.6081166702   -3.8074885655
 C   -0.1854529596   -0.2118308668    0.9075847348
 N   -0.6737699487   -0.6988525367    1.8347808804
 H    2.3704651845    0.7657754405    0.6049748949
 H    1.9938179495    1.7934554406   -0.7954721619
 H    1.2261568292    2.1160201320    0.7790500178
 H   -0.3542499564    0.9754099956   -0.8001102913
 H   -0.5390543726   -2.0453981528   -1.0463091108
 H   -1.8219342200   -1.1509757846   -3.0652636360
 H   -0.5266074998    0.1186865988   -3.2882824340
 H   -0.0636876877   -2.9497245442   -3.2940165822
 H    1.9420931249   -0.6049063978   -3.5429323247
 H    2.3882043312   -2.3122725834   -3.5197463386
 H    1.4859092296   -1.6574374663   -4.8953051443