22

 C   -0.1505021889    1.5215167540    0.0106665343
 C    0.0599569197    0.0089932660    0.0426136770
 C    1.0004630817   -0.5588128129   -1.0750390813
 C    2.0350273825   -1.3115240626   -0.2071211848
 C    3.1445369095   -2.0512971136   -0.9181946951
 C    1.1073571411   -1.9990833065    0.8451787781
 C    0.8272377332   -0.5314283587    1.2725425231
 C    2.3141532920   -0.2564804187    0.9083171228
 H    0.7972357986    2.0658430198    0.0799331745
 H   -0.6388221650    1.8303232878   -0.9201758164
 H   -0.7840421235    1.8498508499    0.8422992245
 H   -0.9225374288   -0.4751099677   -0.0110043461
 H    0.4802622246   -1.2261748086   -1.7700154338
 H    1.4693089930    0.2363058422   -1.6662302089
 H    3.7468222001   -1.3688493663   -1.5297191715
 H    3.8171847723   -2.5434725989   -0.2073871071
 H    2.7421685913   -2.8223828278   -1.5859002089
 H    0.2671031977   -2.5995322077    0.4799369581
 H    1.6734327889   -2.5601380693    1.5936817160
 H    0.4215427065   -0.2865744025    2.2554904420
 H    3.0051955654   -0.6312876420    1.6681613258
 H    2.6093138679    0.7526726841    0.6053236477