8

 O    0.1937585635    1.3717099521    0.3139829669
 C    0.0499263706    0.0140548073   -0.0452623853
 C   -1.4088802453   -0.3963567997   -0.2060157413
 O   -1.7772946205   -1.3723386040   -0.8036168902
 H   -0.0172318567    1.9126913219   -0.4533775754
 H    0.6044047816   -0.2651976582   -0.9520572529
 H    0.4674040566   -0.5752167892    0.7817626973
 H   -2.1183505498    0.3007596199    0.2987051509