18

 C   -0.5234148706    1.3221542681    0.1044016994
 C    0.2919450138    0.0597662579   -0.1539483287
 N    1.4109412590    0.2622844289   -1.0848936860
 C    2.4274070801   -0.7509676028   -0.8069366753
 C    2.3904986776   -0.9275434367    0.7220290355
 C    0.9740546919   -0.4827388597    1.1038120938
 O    0.4856568904   -0.5475445930    2.2000812125
 C    2.1979086605   -2.0711097214   -1.5359703947
 O    1.3113888299   -2.2517913177   -2.3309626672
 H    0.1346334041    2.1443488490    0.3984556153
 H   -1.0719062089    1.6246270008   -0.7922446348
 H   -1.2410596617    1.1374041191    0.9082618979
 H   -0.3862209537   -0.7471049122   -0.4883084072
 H    1.0983839788    0.1762939384   -2.0467644184
 H    3.4199035838   -0.4048956042   -1.1334515031
 H    2.5874661009   -1.9458590667    1.0689314600
 H    3.1066144617   -0.2684352329    1.2221227532
 H    2.9378673424   -2.8712911448   -1.3001199722