21

 C   -0.5662291312    1.6570135331    0.0549116739
 O   -0.3281908544    0.3491792875   -0.4236875726
 C   -1.3649359844   -0.5415567897   -0.1623447143
 C   -1.1417604621   -1.9800888725   -0.6935781742
 C    0.3201294513   -2.3531087778   -0.9290632136
 C   -1.7341041901   -2.5239057997    0.6394513614
 C   -1.5662765489   -1.1115305049    1.3021587991
 C   -0.4276534781   -0.9781579599    2.1874097508
 C    0.5123694646   -0.8666877773    2.9305707485
 H    0.2851538834    2.2707738905   -0.2480135475
 H   -1.4852890545    2.0815684987   -0.3790439811
 H   -0.6485908218    1.6800750742    1.1496871487
 H   -2.3252896461   -0.1282432680   -0.5102886475
 H   -1.7293479144   -2.2147630430   -1.5860382268
 H    0.9325562361   -2.1443882255   -0.0480449922
 H    0.4015629218   -3.4210506991   -1.1584756684
 H    0.7380741733   -1.7873653605   -1.7661693402
 H   -2.7856101286   -2.8095598817    0.5631767267
 H   -1.1796350987   -3.3334774286    1.1168111540
 H   -2.4638055750   -0.7376531910    1.8039465812
 H    1.3442769678   -0.7693502547    3.5829542041