22

 C    0.0873369037    1.5664186999    0.0241397951
 C   -0.0004147269    0.0367816057   -0.0248774408
 C   -1.4326952159   -0.5195011599   -0.0383688358
 O   -2.1384200087   -0.1419225601    1.1508066662
 C   -2.2615370710   -0.1610846106   -1.2980934757
 C   -3.2502275652   -1.3421802823   -1.4287217128
 N   -2.6185155020   -2.5345817297   -0.8298556212
 C   -1.2461785990   -2.7677119943   -1.3005214433
 C   -1.4849842187   -2.0420975577   -0.0275894300
 H    1.1308326425    1.8945320771    0.0319351396
 H   -0.3979843504    2.0309982109   -0.8408256645
 H   -0.3779836676    1.9676984952    0.9315973238
 H    0.5273097956   -0.3334988841   -0.9113986095
 H    0.5150149186   -0.3824221416    0.8472917676
 H   -2.2227880473    0.8168693175    1.1539299677
 H   -2.7754646946    0.7970802214   -1.1834149269
 H   -1.6143466300   -0.0740758523   -2.1764822678
 H   -4.1589915758   -1.1408239005   -0.8537626699
 H   -3.5426500775   -1.5459514034   -2.4633933719
 H   -0.9312798877   -3.8066805845   -1.2718680884
 H   -0.8781217208   -2.2152924994   -2.1619903933
 H   -1.3089654513   -2.5205187371    0.9311793618