18

 C    0.1306772058    1.5115375388    0.1946591264
 C    0.0634642217    0.0613135237    0.0932705219
 C    0.0116713909   -1.1401660416    0.0197469240
 C   -0.0362202283   -2.5705751642   -0.1032643806
 N   -0.5819618668   -3.3481705719    1.0371269879
 C   -1.3235944118   -3.3304948763   -0.2290428021
 C   -2.6720214813   -2.6415441291   -0.2075331048
 C   -3.7017114746   -3.4620418324    0.5406928147
 O   -4.7885892820   -3.7568178662    0.1130788647
 H    1.1685376860    1.8616933202    0.1757483974
 H   -0.3987903350    1.9952070503   -0.6335673347
 H   -0.3208239467    1.8627624082    1.1288688069
 H    0.8104590659   -3.0083728135   -0.6285589650
 H   -0.0609794740   -4.2153149876    1.1377367125
 H   -1.2766012362   -4.2243096044   -0.8493628853
 H   -2.5605726441   -1.6827292364    0.3147227506
 H   -3.0363596049   -2.4459135356   -1.2200482296
 H   -3.3703263646   -3.7847176219    1.5526245652