19

 C    0.0684534826    1.5055959628    0.0880283576
 C    0.0106405248   -0.0299220078   -0.0136186288
 C   -1.4377271220   -0.5729564087   -0.0066759128
 N   -2.0855656229   -0.2663114665    1.2622796272
 C   -3.5086692394   -0.5684423850    1.2997464455
 C   -4.1484877025    0.0178188296    2.5485276976
 O   -5.0908449426   -0.4642917645    3.1179566078
 C    0.7084039060   -0.5056772716   -1.2117938136
 N    1.2455628278   -0.8769068807   -2.1653954264
 H    1.1002547586    1.8541969998    0.1719214739
 H   -0.3771166980    1.9654738788   -0.7987213228
 H   -0.4943452070    1.8249846563    0.9666138541
 H    0.5359907851   -0.4614301582    0.8499284884
 H   -2.0036982279   -0.0818033348   -0.8069515193
 H   -1.4228614264   -1.6497720355   -0.2427169164
 H   -1.6138849337   -0.7676755423    2.0097093875
 H   -3.9865162505   -0.0680165701    0.4439841739
 H   -3.7710253640   -1.6361741525    1.2316394058
 H   -3.6655478779    0.9609535208    2.8910383907