18

 C    0.3879216406    0.6884434097   -0.6568385036
 C   -0.3482882864    0.3195373831    0.6412577042
 C   -1.7257232631   -0.2059656451    0.3957420714
 N   -2.8160271245    0.3087556813    0.7934393408
 C   -3.8980408241   -0.5536237627    0.3176037714
 C   -3.1796406554   -1.7010883665   -0.4713037401
 O   -1.7751388182   -1.3550598223   -0.3447479215
 C   -3.4249141066   -3.0371712351    0.0486120542
 C   -3.6648564118   -4.1308435497    0.4843116493
 H    1.3939781515    1.0527912993   -0.4320107883
 H    0.4756847923   -0.1786222584   -1.3162092379
 H   -0.1448959973    1.4762498478   -1.1979313872
 H    0.2201061184   -0.4498558936    1.1774577404
 H   -0.4426747410    1.1856403305    1.2993311896
 H   -4.4761456407   -0.9446808775    1.1596893982
 H   -4.5823222740    0.0092327520   -0.3249229492
 H   -3.4214531289   -1.6702952916   -1.5388627026
 H   -3.8693277610   -5.1006773011    0.8663364609