14

 C    0.0229937602    1.4600560725    0.0196668449
 N   -0.0045208991    0.0109298698    0.0118237988
 C   -0.1223384918   -0.8379420326   -1.0642021161
 N   -0.1170549269   -2.1105872227   -0.7595918397
 N    0.0136326721   -2.0791025819    0.6114500382
 C    0.1032499137   -2.8838564210    1.7177582651
 N    0.2183150610   -2.1223183200    2.7844209655
 N    0.2080929370   -0.7808750479    2.4127198856
 C    0.0842327755   -0.8152719286    1.1096078388
 H    0.9631809277    1.8207803171    0.4456975199
 H   -0.0679253443    1.8201267869   -1.0062234291
 H   -0.8062667993    1.8533898675    0.6139590033
 H   -0.2113532750   -0.4696921725   -2.0749841078
 H    0.0811493291   -3.9596673665    1.6946500826