20

 C   -0.7651431682    0.3672311987    0.1307945590
 C    0.5669553345   -0.3761557679   -0.0654456491
 C    1.3994498240   -0.5207789101    1.1981072283
 O    2.5552020705   -0.1630853236    1.2526500310
 C    0.7274113548   -1.1308114475    2.4402717979
 N    1.6568041625   -1.4878382629    3.4988530848
 C    2.3380574917   -2.7578168977    3.2690204317
 C    1.4487537615   -3.9229087870    3.6753464132
 O    1.4315508491   -4.9947402771    3.1286330015
 H   -0.6020154316    1.3747922486    0.5260006776
 H   -1.2850380412    0.4651290337   -0.8260119929
 H   -1.4337558590   -0.1618599024    0.8158661999
 H    0.3629685764   -1.3886041087   -0.4410427819
 H    1.1914968567    0.1287884788   -0.8070684012
 H    0.0056484447   -0.3906846396    2.8146054168
 H    0.1300417028   -2.0037470361    2.1493280820
 H    2.3527547052   -0.7508798653    3.5527717851
 H    2.6996056542   -2.9234787946    2.2429332500
 H    3.2150884749   -2.7984634273    3.9298077058
 H    0.8020171164   -3.6945886519    4.5532953603