17

 O   -0.1072177546    1.4182059155   -0.1389489601
 C    0.0173102635    0.0078461698   -0.0406920290
 C   -1.3897755055   -0.5770897420   -0.0439231728
 C   -1.4208499271   -2.0894389234    0.1132915795
 C   -2.8372592364   -2.7240831186    0.0348354946
 N   -2.8022013766   -3.6144991624   -1.1386153595
 C   -1.6284771510   -3.5206794301   -1.6031644895
 O   -0.7185810550   -2.7162593215   -1.0045065480
 H    0.7751299718    1.7936085173   -0.2089806272
 H    0.5894861304   -0.4086436974   -0.8817694125
 H    0.5369578384   -0.2838669245    0.8876380075
 H   -1.9606383217   -0.1294504343    0.7789816451
 H   -1.8967902754   -0.2967756321   -0.9746278152
 H   -0.8846634671   -2.3911161445    1.0197818257
 H   -3.0898164316   -3.3007275244    0.9302139193
 H   -3.6179936528   -1.9663313844   -0.0972753099
 H   -1.2544239793   -4.0452291830   -2.4757371679