19

 C    0.0381876308    1.3960295747    0.0827576509
 N   -0.0102498502   -0.0107274131   -0.2620465026
 C    1.1827563149   -0.7744819777    0.0603755624
 C   -1.2238392618   -0.6637250258   -0.0968704258
 N   -1.2709495362   -1.9804142368    0.0823431813
 N   -2.6151693360   -2.2630805100    0.1018385132
 C   -3.3841377611   -1.1559327075   -0.0083368254
 N   -4.7760595725   -1.2245221921    0.0938777175
 C   -2.5267146508   -0.0845366451   -0.1534140101
 H    0.9897944105    1.8134807362   -0.2590331150
 H   -0.7617419649    1.9419349456   -0.4239030814
 H   -0.0493968977    1.5861174579    1.1665230362
 H    1.3140493020   -0.9293586377    1.1441437245
 H    1.1215214049   -1.7566018204   -0.4099712583
 H    2.0591364303   -0.2443103348   -0.3243569447
 H   -2.9086966815   -3.1742862354    0.4066297929
 H   -5.1802541144   -1.9582803297   -0.4762327429
 H   -5.2117656281   -0.3436290869   -0.1439344650
 H   -2.8056442984    0.9429997583   -0.3127694178