17

 C   -0.0711676852    1.6067645627   -0.1470034255
 C    0.0270542753    0.0910530194   -0.0522787694
 C    1.1601648583   -0.6427622120   -0.8634646307
 C    1.6886381074   -1.2305649452    0.4468526945
 N    2.0394744292   -0.1233481866    1.3210415604
 C    0.6106016477   -0.5063329467    1.2395219466
 C   -0.0582754514   -1.0708796799    2.4148288818
 O    0.5329177554   -1.4640202896    3.3988742585
 H    0.8824796675    2.0674698195    0.1234162467
 H   -0.3287832070    1.9181038351   -1.1648440796
 H   -0.8426830767    1.9958089330    0.5265355235
 H   -0.9395727020   -0.3764206528   -0.2677938432
 H    0.7711927742   -1.3927856983   -1.5542778569
 H    1.8706627317    0.0042373193   -1.3841993879
 H    2.0614721231   -2.2313802623    0.6306152627
 H    2.3705980547   -0.5139601759    2.2059730950
 H   -1.1650550222   -1.1412464098    2.3389335735