19

 C   -0.0346282884    1.5235335369   -0.1575733881
 C    1.5043030132    1.5472545769    0.1377961445
 C    1.3381261666    0.1789249920    0.7980631157
 O    0.8439998660    0.3205768370    2.1398576350
 C    0.2321861543   -0.9706605938    2.2068405076
 C   -0.8525066574   -0.8114113705    1.0658369605
 C   -0.0230320119   -0.0280014661    0.0338564057
 C    1.3694608261   -1.8687081327    1.7205180902
 C    2.0952521818   -1.1245781728    0.8767975419
 H   -0.6033111746    2.0335983006    0.6215772506
 H   -0.3529340961    1.8913968056   -1.1352689354
 H    2.0942846411    1.4858743287   -0.7807202056
 H    1.9004421713    2.3441540447    0.7704562671
 H   -0.1637491322   -1.1679676794    3.2027469177
 H   -1.2293513208   -1.7666662137    0.6924699794
 H   -1.6955181685   -0.2360758586    1.4573421773
 H    0.0902620295   -0.5445756020   -0.9207915355
 H    1.4810464483   -2.9186725441    1.9552963960
 H    2.9261824418   -1.4264145787    0.2537760754