21

 C    0.0178222642    1.5215285672   -0.0248649548
 C   -0.0338447359   -0.0033216227    0.0434964419
 C   -1.4947868529   -0.4803382097    0.0285959782
 O    0.6824145313   -0.4483991587   -1.1273763436
 C    0.7182584957   -1.8502609570   -1.3132733213
 C    1.0280882303   -2.6082554471   -0.0555508732
 C    1.0060088658   -2.0191401153    1.1378569705
 C    0.7166353485   -0.5437776427    1.2862627372
 O    1.9321739289    0.1614195998    1.5398267014
 H    1.0496262839    1.8708683203   -0.0676352492
 H   -0.5125454300    1.8706113913   -0.9151852782
 H   -0.4534861160    1.9607888539    0.8592611778
 H   -1.9709760701   -0.1910650831   -0.9128184787
 H   -1.5826113198   -1.5632574563    0.1464667644
 H   -2.0498483559   -0.0119335431    0.8469417818
 H   -0.2286360239   -2.2189310358   -1.7469073769
 H    1.4921971723   -2.0327357366   -2.0691336069
 H    1.2584623408   -3.6653127883   -0.1642884783
 H    1.2582973971   -2.5669134035    2.0411397719
 H    0.1011783743   -0.3648636021    2.1753035500
 H    2.5026895914   -0.0137369505    0.7816203762