11

 C    0.0714214992   -1.1672948696   -0.0046196038
 C   -0.0117142299    0.0312133131    0.0029751373
 C   -0.0942255091    1.4392604794    0.0117068218
 N   -1.1572118535    2.1902176962    0.0303329255
 C   -0.6125344055    3.4564215750    0.0298297208
 N    0.7058233366    3.4824691658    0.0125794235
 O    1.0573966088    2.1444049918    0.0004124749
 C   -1.3890043897    4.6415420213    0.0470469900
 C   -2.0521714063    5.6427876399    0.0616961455
 H    0.1388288427   -2.2281926212   -0.0112624605
 H   -2.6387665933    6.5286899384    0.0746483050