17

 N    0.0060386267    1.2694940781   -0.1873081329
 C   -0.0542188645   -0.1038757262   -0.1658944450
 N   -1.1669121534   -0.7242458826   -0.1646739345
 C   -1.1565214448   -2.1704907654    0.0020639213
 C    0.1207614173   -2.6837929021    0.6505367157
 O    1.2524464340   -2.1814681470   -0.0556510458
 C    1.3204344632   -0.7784400765   -0.0443130269
 C    2.2666131703   -0.3906558807   -1.1781058939
 O    2.5241840700    0.7427478042   -1.4972812550
 H    0.8288399155    1.6701169465   -0.6191246076
 H   -0.8714262153    1.7124929921   -0.4198592782
 H   -2.0222774966   -2.4583521095    0.6118632533
 H   -1.2926348495   -2.6521221939   -0.9766371472
 H    0.1691205823   -2.3747933934    1.7067235950
 H    0.1948333924   -3.7734576001    0.6056132831
 H    1.7830502707   -0.4044796535    0.8888457471
 H    2.7141227016   -1.2685359099   -1.6871968584