17

 C   -0.2084889822    1.4059774271    0.1371744054
 N   -0.1631158824   -0.0340363296    0.3187174102
 C    0.9426365843   -0.6719303189    0.7682667947
 O    1.9877330142   -0.1236697620    1.0651078547
 C    0.8443876376   -2.2101846693    0.9149372233
 C    1.2695209534   -2.6273205846    2.3522544395
 O    1.3868814009   -4.0215983629    2.4882636549
 C   -0.4644066488   -2.7687668078    0.5909450057
 N   -1.5175913763   -3.1920178377    0.3655914097
 H    0.7719554764    1.8029695700    0.4007781077
 H   -0.4340104443    1.6619540620   -0.9030315440
 H   -0.9663100523    1.8600425188    0.7841520221
 H   -0.9842078422   -0.5775222199    0.1027853726
 H    1.5813649368   -2.6379691820    0.2260776034
 H    2.2542088736   -2.1927578374    2.5282145583
 H    0.5659262171   -2.1941904923    3.0769988543
 H    0.5040400741   -4.4074530335    2.4806259774