16

 O    0.1259257421    1.3817774121   -0.0777710636
 C    0.0353561574   -0.0024874698   -0.0290633724
 C    0.2092254986   -0.7933527143   -1.3506665067
 O   -1.0069994961   -1.5328322649   -1.1001693587
 C   -1.3366188799   -0.7205217186    0.0431836026
 C   -1.3064575568   -1.5188808154    1.3382820906
 O    0.0822874664   -1.5702263062    1.7477924505
 C    0.7925157509   -0.5856069762    1.1476327765
 N    1.9225017702   -0.1452718062    1.4993038499
 H    0.9344055839    1.6127038071    0.4038058468
 H    0.1225121110   -0.1377552025   -2.2250041470
 H    1.0837968575   -1.4443732568   -1.4487386169
 H   -2.2430753063   -0.1267284029   -0.1014453491
 H   -1.8832793602   -1.0346542554    2.1343623348
 H   -1.6555274899   -2.5435896934    1.1981101363
 H    2.2680960412   -0.6028152967    2.3429345265