15

 O    0.1131506511    1.4349675750   -0.0741890205
 C    0.0011632833    0.0599615171   -0.0219095978
 C    0.3374002104   -0.6770608855   -1.3585007813
 O    0.3478153607   -2.0834732966   -1.1108099027
 C   -0.9146373989   -1.4467866347   -1.3247547321
 C   -1.3405823937   -0.7759463072    0.0218056367
 N   -0.8475659200   -1.3800042940    1.2652031422
 C    0.3796693440   -0.7003055536    1.2471750795
 N    1.3929669834   -0.5995169608    1.9943402815
 H    0.4622560634    1.7286930779    0.7754368144
 H    0.9338993514   -0.2898517835   -2.1766941907
 H   -1.5428094809   -1.8296927553   -2.1207409148
 H   -2.3282360082   -0.3180021660    0.0612046539
 H   -0.9510614059   -2.3528747074    1.5213271431
 H    1.3431039899   -1.2209926954    2.8034495386