15

 O    0.7803088475    1.1419817622   -0.0079576532
 C    0.3467556325   -0.1347862570   -0.0928360284
 C    0.0879264081   -0.9983929020   -1.1402838988
 C    0.2164776681   -0.7272849980   -2.6173968027
 C    1.1401038206    0.3743449901   -2.8934198202
 N    1.8596618105    1.2692717739   -3.0355967062
 C   -0.3683003989   -2.2221042806   -0.5509259317
 C   -0.3796185727   -2.0598689943    0.8075097517
 N    0.0623171072   -0.7789009846    1.0758277516
 H    1.1955512663    1.4021989130   -0.8420383627
 H    0.5871029424   -1.6178275487   -3.1394101378
 H   -0.7474186868   -0.4790482719   -3.0841961229
 H   -0.6582258170   -3.1136868067   -1.0863807583
 H   -0.6594773332   -2.7282961487    1.6039897147
 H    0.1958337754   -0.3654432069    1.9823224249