19

 C   -0.1054682452    1.6029702437    0.0598789133
 C    0.0457343715    0.0891116605    0.0809602246
 C   -1.2168947674   -0.6210536701   -0.3898906574
 O    1.1899034733   -0.3840866311   -0.7350778406
 C    1.6639336533   -1.2058237029    0.3410337654
 C    2.1591546683   -0.3068163811    1.4258304399
 O    2.7890270328    0.9055070003    1.1512675315
 C    0.6668422290   -0.5913312008    1.3133723494
 O   -0.0715435304   -1.2015551375    2.3084872943
 H    0.7832723066    2.1016606651    0.4471368278
 H   -0.2988694758    1.9502774607   -0.9606333138
 H   -0.9608712201    1.8971694731    0.6775993540
 H   -1.4791724491   -0.2849586562   -1.3975247202
 H   -1.0726195034   -1.7038115583   -0.4071643003
 H   -2.0528116621   -0.3997951614    0.2805050368
 H    1.9830647777   -2.2166826063    0.1145507157
 H    2.6043175856   -0.8211942680    2.2749285343
 H    2.7287630427    1.0171089806    0.1923990465
 H   -0.0723176673   -0.6273882902    3.0822825288