23

 C   -1.3310883011   -0.0858697076   -0.1679211194
 C    0.1949916865   -0.0027652085    0.0208092089
 C    0.5853646166   -0.5539879974    1.4001024014
 C    0.9141431439   -0.6664856015   -1.1628204335
 C    2.1521479325   -1.5512738462   -0.9640087226
 C    0.8480714163   -2.1739637429   -1.3332177683
 C    0.9914594530    0.0919506735   -2.4694597189
 C    0.7977559812    1.6001520941   -2.4592333906
 O    1.2615964656   -0.4783087748   -3.5071335533
 H   -1.6476343566    0.3125546937   -1.1370845558
 H   -1.6704020571   -1.1260906891   -0.1177823402
 H   -1.8543093420    0.4761689714    0.6125436809
 H    0.4733983769    1.0578754001    0.0246702807
 H    0.3904544060   -1.6287652514    1.4853045273
 H    1.6407270216   -0.3803846191    1.6270592095
 H   -0.0041010638   -0.0570037284    2.1770388150
 H    2.9129007634   -1.4869807065   -1.7331352647
 H    2.5246427906   -1.6796553275    0.0444973677
 H    0.3149714114   -2.7324230195   -0.5718692476
 H    0.7303658300   -2.5313543767   -2.3487864029
 H    1.5184532137    2.0769442377   -1.7853751643
 H    0.9438247646    1.9753397575   -3.4724957552
 H   -0.2005980029    1.8779966790   -2.1079422139