17

 O    0.2737312696    1.3354661087    0.0558335132
 C    0.0399033316   -0.0318476966    0.0584236081
 C   -0.4440003179   -0.8175082945    1.2689677412
 C   -1.1338242099   -0.0026006299    2.3053879085
 C   -2.2506960772    0.5680396066    1.8481546465
 C   -2.5546345049    0.1516578743    0.4090732401
 C   -2.8465196520    1.2835810083   -0.4715872487
 C   -3.1099950721    2.2216894808   -1.1756330122
 C   -1.3177578576   -0.6767737905    0.0102716954
 H   -0.4078909467    1.7687553679    0.5833133351
 H    0.8060330707   -0.5240655004   -0.5321436809
 H    0.0550554695   -1.7403463457    1.5440534718
 H   -0.7320203625    0.1330649515    3.3032835471
 H   -2.8930091313    1.2535243871    2.3873154252
 H   -3.4369484862   -0.5057007661    0.4060294540
 H   -3.3268766117    3.0453384968   -1.8097564238
 H   -1.4720790512   -1.5046670583   -0.6714404907