21

 C    1.6921003198    0.1536648923   -1.1841666837
 C    1.8573449039   -1.1333702651   -0.3655435334
 C    1.6840564166   -0.9491458687    1.1353990012
 C    2.8096645979   -0.1769909392    1.8401070748
 C    2.7279830992    1.2785259344    1.6911249274
 N    2.6538514281    2.4287821231    1.6058989928
 N    0.3084643391   -0.7054584073    1.5957502659
 C    0.9747879385   -1.9590930303    1.9845760870
 C    0.3719972050   -3.2528861627    1.4917712597
 H    2.4651605845    0.8935843399   -0.9610319814
 H    1.7446032049   -0.0684791358   -2.2542254075
 H    0.7207902167    0.6119607799   -0.9775169603
 H    1.1214082638   -1.8634280510   -0.7109152229
 H    2.8442030584   -1.5774388213   -0.5530706465
 H    2.7946083741   -0.3913920676    2.9146626603
 H    3.7860617105   -0.5103468878    1.4697069261
 H    0.2825110763   -0.0352036278    2.3602163470
 H    1.3378093020   -2.0181571426    3.0115218900
 H   -0.0730524029   -3.1380909789    0.5020077322
 H    1.1242963768   -4.0480239015    1.4509968873
 H   -0.4218453533   -3.5766834519    2.1732846940