19

 C   -0.0255224392    1.4997917534    0.0858324903
 C   -0.0788214679    0.0164170805   -0.0332412608
 C   -0.0427723824   -0.7928758599   -1.0953023591
 C    0.0425672835   -2.2114791313   -0.5385863648
 C   -0.4306856721   -3.3706509196   -1.3762329286
 C    1.4696569211   -2.3122276246    0.1026278084
 O    1.3738375581   -1.4096164423    1.2081143235
 C   -0.0024686447   -0.9546531389    1.1498830851
 O   -0.7078907798   -2.0787957589    0.6955074135
 H    0.8778394508    1.8114433740    0.6250313315
 H   -0.0194721111    1.9829611481   -0.8947858922
 H   -0.8807970590    1.8873769762    0.6533734087
 H    0.0552115462   -0.5315411722   -2.1410225666
 H    0.1856691881   -3.4675998614   -2.2755174587
 H   -0.3663471468   -4.3050093356   -0.8113372617
 H   -1.4685234394   -3.2211850294   -1.6857389182
 H    1.6596128817   -3.3272507460    0.4703627496
 H    2.2698851499   -2.0075689885   -0.5796798420
 H   -0.3176578670   -0.6301151134    2.1405503420