18

 C    0.0112632194    1.5323831151    0.0736988195
 C    1.3946826409    2.1125673770   -0.0553825978
 C    2.4649427087    1.3904386591   -0.3862980526
 C    2.3621355431   -0.0910452765   -0.6690180836
 C    0.9537997502   -0.4671406523   -1.1237810805
 C    0.0242052651   -0.0069783709    0.0061484053
 N    0.4488379432   -0.5671385374    1.2952607965
 C    1.6557569212   -0.9304885509    1.4201589205
 O    2.6769791542   -0.8444639827    0.5359231566
 H   -0.4384227581    1.8463496244    1.0223092366
 H   -0.6348502578    1.9360158732   -0.7200539112
 H    1.5006550035    3.1781154188    0.1349377244
 H    3.4506964631    1.8422800592   -0.4380626227
 H    3.1251055430   -0.4047768371   -1.3845237536
 H    0.7172209392    0.0253602343   -2.0721170354
 H    0.8830768836   -1.5491936550   -1.2708816151
 H   -0.9983892082   -0.3567048587   -0.1674897946
 H    2.0018333156   -1.3955572896    2.3420890179