13

 O    0.0018200666   -0.1005046765    0.4238985089
 C    0.2008290404    0.8012376385   -0.3450995949
 C    0.9209538845    2.0876715328    0.0365759386
 N    0.8095986881    3.0559509399   -1.0383915897
 C    1.1115394049    4.2449903390   -0.8171673848
 O    1.0268354115    5.2399912402   -1.7706577711
 C    1.4238085048    6.3590618818   -1.1345884306
 N    1.7547499540    6.2202108901    0.0900900897
 O    1.5652075973    4.8295602911    0.3321577329
 H   -0.1188535036    0.7645238854   -1.4098343817
 H    0.5168770867    2.4458444389    0.9930742836
 H    1.9731176815    1.8260132270    0.2268867132
 H    1.4389927633    7.2872550218   -1.6839915241