20

 C    0.9848025071    1.0701786018    0.6249137736
 C    0.3152684032    0.3634702147   -0.5418856377
 O    0.6117355258   -1.0188935006   -0.4514228499
 C   -0.0343743329   -1.8275404671   -1.4141582979
 C    0.6416543690   -1.7952784264   -2.7818778955
 C    2.0327004769   -2.4866114021   -2.8882708028
 N    1.4102501954   -3.4442738679   -3.8083244181
 C    0.1557437141   -2.8879459132   -3.7751138827
 O   -0.8853419695   -3.1723381964   -4.3040255234
 H    0.6169885212    0.6727111582    1.5749053860
 H    2.0684032786    0.9255859308    0.5900794577
 H    0.7765413100    2.1436887438    0.5906848250
 H   -0.7764582514    0.5148037545   -0.5129360515
 H    0.6734055397    0.7838342960   -1.4952300309
 H   -0.0057914402   -2.8489381088   -1.0176556526
 H   -1.0922858745   -1.5437493114   -1.5230495350
 H    0.6135236292   -0.7946776143   -3.2202802845
 H    2.8246651672   -1.8810513910   -3.3392957465
 H    2.3944204940   -2.9272979729   -1.9540916769
 H    1.7736694972   -4.2431453974   -4.3064912761