17

 O   -0.0681143972    0.0306944683    0.2362842540
 C    0.0449300747    1.1907898176   -0.0784093293
 C    1.3043702064    1.9651108916    0.0051642480
 C    1.1787896222    3.4709474033    0.2306643971
 C    1.5524938857    2.9791071764   -1.1236967721
 O    2.8583885998    3.1672664868   -1.5754980409
 C    3.7404292108    2.1176056582   -1.2316358729
 O    3.7325341643    1.8519617083    0.1386636636
 C    2.5186529093    1.2155515661    0.5260184335
 H   -0.8256050027    1.7703696202   -0.4661944790
 H    0.1850696725    3.8778680294    0.3866952455
 H    1.9719120633    3.9261766610    0.8123727239
 H    0.8179411848    3.0385916965   -1.9235876102
 H    3.4806731241    1.2055818606   -1.7976320215
 H    4.7395777928    2.4638019705   -1.4999966027
 H    2.5256921358    1.1734943132    1.6179903094
 H    2.4870077638    0.1854456021    0.1449674836