25

 C   -0.1509622076    1.7036170428   -0.1582073813
 C    0.0864064505    0.2090286074   -0.0577760680
 C    1.3804454076   -0.5111005913   -0.3767532907
 C    2.6994581349    0.2522355742   -0.3415717197
 C    2.7699778545    0.9248920851    1.0518276042
 C    1.7969691318    0.1376302026    1.9657015941
 C    1.1659458297    0.9818613104    3.0782074975
 C    0.8086152669   -0.5700151036    1.0292494622
 C    0.1441688469   -1.8155026728    1.5755398386
 H    0.7199145285    2.3066418433    0.0991498099
 H   -0.4351482113    1.9685273489   -1.1834559300
 H   -0.9732103363    2.0145074194    0.4964054262
 H   -0.7814411295   -0.3431383081   -0.4167983591
 H    1.3239003678   -1.3745901816   -1.0336246620
 H    3.5211324006   -0.4630019725   -0.4627391714
 H    2.7989659279    0.9811100597   -1.1543287062
 H    3.7872622269    0.9216034297    1.4552356476
 H    2.4730784399    1.9761734201    0.9968535327
 H    2.3689291761   -0.6678792167    2.4495136415
 H    0.5794020609    1.8096604019    2.6672456716
 H    0.5001045997    0.3816357441    3.7073460714
 H    1.9356280311    1.4095571587    3.7301666931
 H   -0.5261471950   -1.5825148709    2.4119929464
 H   -0.4545294131   -2.3179752835    0.8092174804
 H    0.8879350008   -2.5342282374    1.9416044308