20

 C   -0.0216085147    1.5431795661    0.0572542207
 C    0.0416747338    0.0442813679   -0.0021845526
 C   -0.8606092117   -0.8588567841    0.7903484168
 C    0.6264089889   -0.9576535708    1.0039089835
 C    1.2753631448   -1.7532447741   -0.1269832920
 C    2.7993320011   -1.7116588554   -0.1012466746
 O    0.8071678113   -3.0932470809   -0.1671458856
 C    0.6382613607   -0.7585413963   -1.1681758823
 H    0.9427841997    1.9969616090   -0.2003503348
 H   -0.7682269239    1.9375341369   -0.6431894405
 H   -0.2969179162    1.8888107081    1.0593268525
 H   -1.4039223113   -0.3777485451    1.5982188363
 H   -1.3922096991   -1.6784759747    0.3154323755
 H    1.0836117979   -0.7786093810    1.9711819324
 H    3.1780278378   -2.2950403707    0.7441593194
 H    3.2160620677   -2.1335082611   -1.0246488684
 H    3.1674582467   -0.6854866603   -0.0085071404
 H    1.2207375467   -3.5298207485   -0.9198037108
 H   -0.0835220603   -1.2040857365   -1.8605502221
 H    1.3920409400   -0.2087772985   -1.7395961428