19

 C   -0.3594210444    1.3975852679    0.2758556181
 C   -0.0888044706   -0.0963351990    0.0618505050
 C    0.8691377480   -0.6524953965    1.0968722899
 O    0.3408226349   -0.5967698574    2.4575369236
 C    0.7526176253   -1.9554071962    2.7242517151
 C    1.1492067422   -2.1651118851    1.2269128574
 C   -0.0616041903   -3.1174181517    1.0221493727
 C   -0.4467356701   -2.9101808390    2.5056040234
 O   -1.3159235288   -3.3328902760    3.2065491595
 H    0.5625645293    1.9830321083    0.1914514280
 H   -1.0685219514    1.7788653405   -0.4643267684
 H   -0.7781747092    1.5713410123    1.2710376384
 H   -1.0341709084   -0.6479622632    0.0994243013
 H    0.3447737857   -0.2671154588   -0.9325444547
 H    1.8127068996   -0.0869949132    1.0626570528
 H    1.3943445236   -2.0547293589    3.6037489030
 H    2.1219203668   -2.5289100107    0.9036909006
 H   -0.8145375886   -2.8574638245    0.2749348705
 H    0.2434968064   -4.1550646190    0.8484604039