15

 O    0.0255301884    0.0176412047   -0.2347261289
 C   -0.0265803519    1.1963594470   -0.0655534734
 C   -1.1548668316    2.2256406873   -0.0231128698
 O   -0.9020635853    2.9933330353    1.1768479663
 C   -0.1423942708    3.3106293587    0.0167112864
 C    1.0496558180    2.3378178863   -0.0020622889
 C    2.0311744038    2.4028726386    1.1766225019
 C    3.0019956683    1.3162095308    1.1660421107
 C    3.8042095730    0.4225107962    1.1379692150
 H   -2.1703778038    2.2017663913   -0.3992218403
 H   -0.2198283122    4.3121912554   -0.3882713146
 H    1.5856280233    2.3469956507   -0.9580408960
 H    2.5593154553    3.3652941052    1.1458922738
 H    1.4586907953    2.3913698643    2.1103798321
 H    4.5054576002   -0.3745633617    1.1223666358