20

 C   -0.1582257396    1.5013533602   -0.0482568820
 C    0.0897837357    0.0294888065    0.0430056441
 C    0.8207058892   -0.8426866834   -0.8958647777
 C    1.7678519031   -1.7992344624   -0.1819765418
 O    3.0913404626   -1.4469039183   -0.5639319873
 C    1.4629225491   -1.5529057408    1.3217245227
 C    0.0834904097   -0.8857801498    1.3038633676
 C   -0.9187178270   -1.7610338186    0.5171307440
 N   -0.6604764540   -1.0118731311   -0.7593890965
 H    0.6651656435    2.0656990988    0.4047005134
 H   -0.2452592522    1.8092146308   -1.0944113099
 H   -1.0836633839    1.7855056826    0.4650426797
 H    1.1089772381   -0.4967976081   -1.8824811564
 H    1.5625311007   -2.8413607079   -0.4689643992
 H    3.6950375000   -2.0715871452   -0.1501806396
 H    1.4811217484   -2.4693626731    1.9221693824
 H    2.2222798960   -0.8649794096    1.7106260780
 H   -0.2452967408   -0.4718518371    2.2574332139
 H   -0.7333970566   -2.8413199354    0.4758243360
 H   -1.9609780520   -1.5933715982    0.7991405485