20

 C   -0.3217656915    1.5386690377    0.0862606115
 C   -0.0000704520    0.0463073496    0.0457995578
 C    0.7743478914   -0.4128197461    1.2788852681
 O    1.1886406790    0.3480622776    2.1375657226
 N    0.9703084475   -1.7560559380    1.3699881541
 C    0.8168637744   -2.8756369422    0.4376164364
 C    1.5880262639   -3.7631119577    1.4473736250
 O    2.7205081726   -4.3473705294    0.8568179404
 C    1.8146371600   -2.4829679610    2.3152290863
 H    0.5928519568    2.1271907034    0.1864535965
 H   -0.8409813141    1.8467466825   -0.8257949573
 H   -0.9551899466    1.7779538586    0.9442421979
 H   -0.9154034121   -0.5524629530   -0.0437630257
 H    0.5976422316   -0.1962475762   -0.8436883646
 H   -0.2184223094   -3.1633277563    0.2264925057
 H    1.3636990929   -2.7596837571   -0.5056331119
 H    0.9547969516   -4.5103832665    1.9403737608
 H    3.1906407437   -4.8509008447    1.5291916616
 H    2.8563819318   -2.1427832840    2.3225504262
 H    1.4303621884   -2.5035036374    3.3398256388