22

 C    0.1500807932    1.6855055058   -0.1096074144
 C    0.1055665036    0.1575229543   -0.0652538095
 C    1.2045014671   -0.6013647444   -0.8970475412
 C    1.6624769083   -1.3143479878    0.3802348002
 C    2.1206621560   -0.3076273837    1.3948703170
 C    0.6455979308   -0.5306172816    1.2064777335
 N   -1.1868471679   -0.4704537115   -0.3710383006
 C   -2.4297724093    0.0644200773    0.1627116253
 C   -2.1328380605    0.1306388688   -1.2986316753
 H    1.1366537477    2.0438070932    0.1942552807
 H   -0.0310619207    2.0666144403   -1.1199201761
 H   -0.5804024987    2.1414158810    0.5670007690
 H    0.7416131549   -1.2626902871   -1.6301019283
 H    1.9589330127    0.0212965154   -1.3904692166
 H    1.9280739017   -2.3616541553    0.4507594148
 H    2.5251273980   -0.7195288124    2.3143889682
 H    2.6033702548    0.6153060362    1.0811712386
 H    0.0085562733   -0.8757610363    2.0122224097
 H   -3.1260192314   -0.6720577014    0.5558918576
 H   -2.4178180755    1.0064170834    0.7069111968
 H   -1.9279552464    1.1156836378   -1.7112051203
 H   -2.6086690417   -0.5572862420   -1.9928819492