15

 N   -0.0424762826    1.3401165721    0.0129835415
 C    0.0084083657    0.0620004926    0.0037214411
 C   -1.2016724533   -0.7089266204    0.0089900860
 C   -2.2187605026   -1.3469914602    0.0135039706
 N    1.1877323290   -0.6838333830   -0.0118148610
 C    2.5816889251   -0.2136888050   -0.0204693677
 C    3.0257045369   -1.7021085874   -0.0344620889
 C    1.5258680086   -2.0507076750   -0.0236584176
 O    0.8668623798   -3.0466011771   -0.0247300040
 H    0.8952821419    1.7461246999    0.0075212480
 H   -3.1142469068   -1.9186260804    0.0175362266
 H    2.8401949134    0.3624377276   -0.9137363970
 H    2.8554565817    0.3501495677    0.8760893905
 H    3.5510642510   -2.0291740070   -0.9329942472
 H    3.5666656522   -2.0412692845    0.8502195291