20

 N   -0.1991661995    1.4283906290   -0.1387726496
 C   -0.0291924082   -0.0095037884   -0.0244667707
 C    0.8705047721   -0.5146187226    1.1345127548
 C    0.9781687759   -2.0727304455    1.2078073842
 C    2.4397239329   -2.3479479852    1.6490823702
 C    3.0750567193   -0.9382444278    1.7839470704
 N    2.2511081475   -0.0186712785    0.9822076557
 C    0.3296208898    0.0089385554    2.4063080220
 N   -0.1336312716    0.4115028915    3.3860533645
 H   -0.7159937043    1.7798269804    0.6624991066
 H    0.7084307115    1.8846670564   -0.1113065705
 H   -1.0149783296   -0.4759878866    0.0709904157
 H    0.4133746253   -0.3942033866   -0.9539131765
 H    0.2382793789   -2.5026739994    1.8857028072
 H    0.7824514619   -2.4790667519    0.2104517458
 H    2.4894661474   -2.9060605267    2.5871254509
 H    2.9634138778   -2.9399964818    0.8932402396
 H    3.0436373679   -0.6042420918    2.8266112556
 H    4.1157697948   -0.8931893018    1.4557181454
 H    2.4983835002   -0.1287694082    0.0007707390