23

 C   -0.4568725416    1.5451475844    0.3546172090
 C   -0.1086887781    0.0693974328    0.1933649972
 C    0.3213174522   -0.4492214931   -1.1861983919
 C    1.6644152773    0.1103514601   -1.5691191067
 C    1.6071462802   -1.0442987598   -0.6054691009
 C    2.2735956930   -2.3663998320   -0.8612259033
 C    1.2228069877   -0.5388151690    0.7998239718
 C    2.1927235984    0.3769207751    1.5373694556
 O    0.9453220543   -1.6884715348    1.5942025567
 H    0.3187992604    2.2022094905   -0.0507027109
 H   -1.3895086375    1.7781550087   -0.1712130305
 H   -0.5994750031    1.8109335750    1.4083494026
 H   -0.9254031701   -0.5470398657    0.5812735209
 H   -0.3462915799   -0.8767295731   -1.9261238894
 H    2.0081682677   -0.1537763011   -2.5648401024
 H    1.9700565041    1.1065992321   -1.2599897196
 H    2.2151999274   -2.6297215846   -1.9226136257
 H    3.3353650725   -2.3403732075   -0.5870159054
 H    1.7980547802   -3.1608031664   -0.2805425297
 H    2.4732579959    1.2504766646    0.9440353723
 H    1.7450734786    0.7455716401    2.4694129892
 H    3.1027685764   -0.1735961978    1.7949967568
 H    0.6119593341   -1.3841695187    2.4451379042