20

 C   -0.3671678870    1.5340780547   -0.0722127328
 C   -0.0265026908    0.0531920816    0.0045546175
 C    1.1907571492   -0.4257929917   -0.8163210220
 O    1.6547891906   -0.1492770458   -1.8860075553
 N    1.7158589606   -1.2139968047    0.2420055861
 C    2.8849332771   -0.6005975958    0.9549614443
 C    1.9153372394    0.2183457946    1.8547283565
 C    0.7332668541   -0.5776025187    1.2131737136
 C   -0.0392628641   -1.5009822947    2.1284841105
 H    0.4997735872    2.1654726754    0.1426878265
 H   -0.7097215070    1.7841015387   -1.0804745670
 H   -1.1633496231    1.7941061403    0.6324486418
 H   -0.9175305958   -0.5454749686   -0.2183482947
 H    3.4694141764   -1.3558913545    1.4852788544
 H    3.5443417555   -0.0404024948    0.2879575755
 H    2.0293760653    0.0748392174    2.9311751406
 H    1.9122526875    1.2905557423    1.6463651874
 H   -0.7138803464   -0.9252497005    2.7728391739
 H   -0.6401257486   -2.2105371842    1.5511857839
 H    0.6335790600   -2.0741424910    2.7747249793