21

 C    0.0840166783    1.5116442785   -0.0446699287
 C    0.0022261641   -0.0129482907    0.0609842289
 C    0.7567286061   -0.5769915570    1.2615273973
 O    0.2388472264   -0.1040963065    2.5172565369
 C    0.7662258579   -2.1030819200    1.2861472045
 O    1.5528131895   -2.6796832040    0.2221604110
 C    2.4884512707   -3.2611082168    1.1643851866
 C    1.6779413520   -2.7434128091    2.3660666085
 O    2.3939629850   -1.8659444670    3.1962150588
 H    1.1184415844    1.8389597909   -0.1941780311
 H   -0.5087664967    1.8818463772   -0.8861362579
 H   -0.2843209288    1.9859479284    0.8694349722
 H   -1.0490763607   -0.3327492395    0.1241368088
 H    0.4119227008   -0.4866027792   -0.8387473822
 H    1.7939294626   -0.2279302777    1.2462340329
 H   -0.6972001122   -0.3333168993    2.5562991381
 H   -0.2670907612   -2.4845671594    1.2666275232
 H    2.5551887535   -4.3483022219    1.0494782270
 H    3.4862558394   -2.8149602381    1.0899333718
 H    1.1836901423   -3.5341573666    2.9459194176
 H    1.7599906565   -1.2097334620    3.5184248856