19

 C   -0.0528390033    1.5826313637    0.0813798771
 C    0.0161208544    0.0669364855   -0.0411664733
 C    1.1096139545   -0.5589866143   -0.9812349419
 C    1.6713062830   -1.3102770617    0.2371238445
 O    2.0185897292   -0.2971835621    1.2090145692
 C    0.6495139731   -0.7087046722    1.1371664413
 C   -0.0013280290   -1.2136120495    2.3823253341
 C    2.3442702594   -2.5624352582    0.2766158622
 C    2.8956436797   -3.6317252280    0.2691364434
 H    0.9208712923    1.9837516930    0.3763275616
 H   -0.3378169411    2.0406753561   -0.8715548175
 H   -0.7915125358    1.8892976865    0.8301501699
 H   -0.9670678156   -0.3506535598   -0.2823293717
 H    0.6941119878   -1.2200974227   -1.7441050039
 H    1.8155371157    0.1379529099   -1.4394077784
 H   -0.2344092593   -0.3846496758    3.0603136390
 H   -0.9368405512   -1.7309749499    2.1475647629
 H    0.6644907219   -1.9059314996    2.9038223257
 H    3.3895572042   -4.5717974410    0.2715825161