15

 C   -0.0992336368    1.5971213227   -0.0849222371
 C    0.0248732404    0.0538456888   -0.0112402156
 N    0.7329242972   -0.3886394911    1.1936672702
 C    2.0767564481   -0.1375495490    1.3908749345
 N    2.7392914949    0.6656130066    0.6641940009
 C   -1.3327278466   -0.5283114177    0.0621795902
 N   -2.3957290117   -0.9694968300    0.1489925544
 C    0.6666896700   -0.4609795529   -1.2512048419
 N    1.1395210264   -0.8719963370   -2.2207831740
 H    0.8996329771    2.0233232484   -0.1531375882
 H   -0.6895404282    1.8765758275   -0.9597493399
 H   -0.5976968610    1.9503444613    0.8197653008
 H    0.3822144861   -1.2415700897    1.6015660820
 H    2.4619792055   -0.6966524113    2.2514488411
 H    3.7018921086    0.7390315533    0.9820045825