20

 C    0.0040063833    1.5073704862    0.1187685948
 C   -0.0082568814    0.0176221944   -0.0026534062
 C   -0.0054333401   -0.7281582574   -1.1104080331
 C    0.0333118191   -2.1809312932   -0.7718073333
 C   -0.8125851241   -3.1555696541   -1.5496281767
 O   -0.3180427590   -3.1810283957   -2.8835656976
 C    1.2536618423   -2.6164450079   -0.0331182433
 N    0.0300045892   -2.2791024329    0.7081317474
 C   -0.0110417566   -0.8904426181    1.2159282175
 H    0.9134911742    1.8591238923    0.6226904413
 H   -0.0478001737    1.9924056292   -0.8595069452
 H   -0.8414430359    1.8625308177    0.7220901841
 H   -0.0192777757   -0.3675161740   -2.1311659415
 H   -0.7557555432   -4.1444030112   -1.0715641833
 H   -1.8645998798   -2.8305214409   -1.5214187813
 H   -0.9177218780   -3.7141200194   -3.4133611479
 H    1.5237265730   -3.6690142418    0.0076256439
 H    2.0904673627   -1.9220521418   -0.0021649127
 H    0.8392420363   -0.7029346744    1.8854819816
 H   -0.9198749024   -0.7516834770    1.8190200217