16

 C   -0.6246501020   -0.5126841617   -1.0416576641
 C   -0.1081736447    0.1587395054   -0.1896585294
 C    0.5377297316    0.9844119787    0.8225228585
 C    1.6550815964    1.8236619385    0.2487201365
 C    3.0201791050    1.3922529380   -0.3480265128
 C    3.0121466640    2.9228073632   -0.1329635008
 C    1.6000361810    3.0039454365   -0.7560782413
 O    2.3852783590    2.7066058631    1.1947965797
 H   -1.0896063284   -1.1106943664   -1.7857285120
 H   -0.1932185120    1.6537997155    1.2933455802
 H    0.9501941185    0.3563299282    1.6221613382
 H    3.6637302274    0.8322372922    0.3317681033
 H    3.0355249223    1.0109856323   -1.3714333511
 H    3.8349166067    3.6344730933   -0.1855519831
 H    1.4854668356    2.7701193288   -1.8168158075
 H    0.9996105496    3.8556871844   -0.4337097444