22

 C   -0.1535180444    1.5711363773   -0.0999159190
 C    0.0329480540    0.0635460452    0.0038864215
 C    1.1709904496   -0.5544022853   -0.8377019205
 O    1.4816369470   -0.5697388959   -2.0035020920
 N    1.7492698051   -1.1088578500    0.2727431241
 C    2.9174002270   -1.9380171616    0.4172970477
 C    0.7639782281   -0.5820169962    1.2451298167
 C    1.3788794344    0.3839292785    2.2580412152
 C   -0.0385335526   -1.6807835886    1.9437587325
 H    0.7817345009    2.1144534573    0.0601926075
 H   -0.5117105156    1.8255563296   -1.1018577112
 H   -0.8893908397    1.9365901493    0.6237767286
 H   -0.9162423619   -0.4449271059   -0.1954612595
 H    3.3424279069   -2.0808774130   -0.5792904398
 H    3.6747462860   -1.4686120840    1.0571372525
 H    2.6702990182   -2.9208392043    0.8374889540
 H    1.9933157395    1.1434940275    1.7686224987
 H    0.5987643485    0.8903367446    2.8353172568
 H    2.0140461714   -0.1566616686    2.9684601259
 H    0.5890798439   -2.2518926273    2.6371324560
 H   -0.8592738572   -1.2469292964    2.5243845982
 H   -0.4635875491   -2.3777366321    1.2153093663