17

 O   -0.5517806132    0.6909152846    0.3209053003
 C   -0.1240495938    1.5567140875   -0.3931948093
 C    1.2257128844    2.2230754172   -0.1821611664
 O    1.4860812675    3.0543760487   -1.2870587622
 C    2.6886834282    3.7859535123   -1.1864388943
 C    2.7408431405    4.7592408096   -2.3497866334
 O    1.7459945674    5.7731397717   -2.2083896687
 C    0.5365525085    5.5403755922   -2.7649786918
 O   -0.3891060034    6.2767302952   -2.6099688321
 H   -0.6864739848    1.9506477633   -1.2677446048
 H    1.1885044020    2.7978923533    0.7587528964
 H    1.9951884989    1.4445965684   -0.0582146386
 H    2.7284355972    4.3424871780   -0.2374661411
 H    3.5636704617    3.1164369236   -1.2256624768
 H    3.7057018622    5.2713298437   -2.3708282464
 H    2.6091824045    4.2187151344   -3.2952323861
 H    0.5160666423    4.6212383663   -3.3783496445