17

 C   -0.0877960945    1.6041077411   -0.0580789768
 C    0.0411954565    0.0933937717    0.0159409446
 C    1.1791875260   -0.6390790614   -0.7433699752
 O    2.3631619089    0.0423550067   -0.2771444940
 C    2.2609240180   -0.3215441760    1.1118127749
 C    0.7004372688   -0.6000698750    1.2269170425
 C    1.0849274436   -1.8336066836    0.2807428306
 C    2.4169572089   -1.8539363971    1.0127293168
 O    3.1201237088   -2.6886866354    1.4983613023
 H    0.8861299320    2.0837084415    0.0635220331
 H   -0.5023162300    1.9149945638   -1.0233508013
 H   -0.7573495978    1.9767578969    0.7244063905
 H   -0.9114233152   -0.4051158698   -0.1923145925
 H    1.2119126873   -0.7723822332   -1.8230437074
 H    2.8386619740    0.3341940947    1.7571363112
 H    0.2623055403   -0.7108940608    2.2160855186
 H    0.4499606043   -2.6911417341    0.0808384722