12

 O   -0.0064759182    1.4756408191    0.0760893834
 C    0.0296265450    0.0956728235    0.1185678032
 C    0.6888118687   -0.4781508653   -1.1344113868
 O    1.1460470111    0.2565160550   -1.9730866217
 C    0.7799389632   -0.4345866670    1.3693192195
 O    1.4459558333    0.2791952887    2.0739844228
 C    0.6063592686   -1.8555242690    1.6120818427
 C    0.4476836026   -3.0373143178    1.7791423111
 H    0.5219157316    1.7360658616   -0.6954177975
 H   -0.9865888691   -0.3348806495    0.1684670311
 H    0.7272759173   -1.5794551887   -1.2220586109
 H    0.3200622059   -4.0800373007    1.9458754932