21

 C    0.1384107622   -0.5093245120    0.8903270174
 O    1.1580250203   -0.6730221161   -0.0848268978
 C    0.7100001797   -0.5708212242   -1.4300653868
 C   -0.0533833036   -1.7871897109   -1.9885446773
 O   -0.5695342649   -1.3913219879   -3.2629005401
 C    0.6930045762   -3.1051517323   -2.1274243922
 C    2.2001743198   -3.2102995802   -2.3649271105
 C    1.5850760039   -3.7867883337   -1.1141788526
 O    1.8639714658   -3.3051553133    0.1561168437
 H   -0.4042362672    0.4316822865    0.7282855495
 H   -0.5761990908   -1.3413849973    0.8876806646
 H    0.6337425820   -0.4752139968    1.8628922193
 H    0.0518734762    0.3006427351   -1.5416302199
 H    1.6066883000   -0.3899296480   -2.0324564833
 H   -0.9454079147   -1.9555824052   -1.3728266571
 H    0.1528661321   -1.4726154799   -3.8962846999
 H    0.0894529381   -3.7959426370   -2.7124413482
 H    2.5690556773   -3.8662625479   -3.1467455755
 H    2.7938661500   -2.3115654639   -2.2269538822
 H    1.4880802094   -4.8679225868   -1.0757443837
 H    1.8200916880   -2.3337095284    0.1410952127