21

 O   -0.1545686194    1.4121541925   -0.3564255343
 C   -0.1340253393    0.0022544706   -0.2180122960
 C   -1.5122583365   -0.5076097858    0.0571770530
 C   -2.6203581424    0.2240722888    0.1970064107
 C   -3.8444195703   -0.6074811231    0.5060390886
 C   -3.3364750982   -2.0507708631    0.3251861415
 C   -3.3663729266   -2.6323962244   -1.1207799617
 C   -1.8255574258   -2.8312807011   -1.0784275297
 C   -1.7744760905   -1.9841645192    0.2308150868
 H    0.7429785127    1.7073416031   -0.5326271289
 H    0.2603805037   -0.4828081118   -1.1287263503
 H    0.5344894485   -0.3102801293    0.6050932222
 H   -2.6436846098    1.3041214539    0.1176837848
 H   -4.2089286864   -0.4131363708    1.5247968313
 H   -4.6852742977   -0.3846963983   -0.1648265849
 H   -3.7290549374   -2.7448587292    1.0706830414
 H   -3.9645586852   -3.5350857610   -1.2667541424
 H   -3.6824296039   -1.8904294904   -1.8594537720
 H   -1.5380746133   -3.8726378688   -0.9087396899
 H   -1.2561453172   -2.4529391093   -1.9321175500
 H   -1.1793954848   -2.4184404831    1.0430997097