17

 C   -0.0595085051    1.5008157538   -0.0208387240
 C   -0.0130137266   -0.0059906086   -0.0303798882
 C    0.2920135236   -0.7714517601    1.2209313874
 N    1.2979401127   -0.6824647750    0.1316940503
 C    1.2327678799   -1.8147165869   -0.7317809683
 C    0.1218984729   -1.8781213037   -1.4851992930
 C   -0.7333162728   -0.7512500599   -1.1181364887
 N   -1.8481157741   -0.3388414127   -1.5941926659
 O   -2.2903826249   -1.1683584590   -2.6392587310
 H    0.5874910865    1.9046633708    0.7616573385
 H    0.2667811473    1.9017391621   -0.9847396182
 H   -1.0845782320    1.8397720093    0.1540218246
 H    0.5376557980   -0.2154080208    2.1210996618
 H   -0.1821529648   -1.7361328538    1.3758396138
 H    2.0589324235   -2.5147691311   -0.7051820759
 H   -0.1261454991   -2.6220331991   -2.2260284726
 H   -3.1135171149   -0.7430017954   -2.9008330205