14

 N    0.0738923313    1.3828081700    0.1684802165
 C   -0.0349130997    0.0133010310    0.0522262588
 C   -1.2080293200   -0.6741017657    0.0315482848
 C   -1.2160787863   -2.1171625787   -0.0138886603
 O   -2.1935850238   -2.8387325167   -0.0346562346
 N    0.0780658860   -2.6947682428   -0.0507083585
 C    1.2902919539   -2.0502148235   -0.0196838699
 O    2.3708497058   -2.5969986268   -0.0146041106
 N    1.1667131862   -0.6595342712    0.0079554863
 H    0.8406342464    1.8126271953   -0.3299370562
 H   -0.7930072603    1.8835117232    0.0426378556
 H   -2.1599536290   -0.1633465992    0.0350870298
 H    0.1125072485   -3.7043147710   -0.0763954588
 H    2.0372007509   -0.1694015938    0.1455061871