22

 C   -0.0611662629    1.5867816962   -0.0401064094
 C   -0.0000491517    0.0846397279    0.0030000139
 C    0.0385357214   -0.6621484266   -1.1059189239
 C    0.1235879188   -2.1491599238   -1.0687016210
 N    1.3305749795   -2.7795527001   -1.6546470526
 C    1.1262383533   -2.8165562013   -0.1927425111
 C    2.0779027167   -1.9669267877    0.6268850971
 C    1.3912493899   -1.1898756891    1.7678115134
 C    0.0257293461   -0.5678848599    1.3770604300
 H    0.7870921243    2.0302898080    0.4981014213
 H   -0.0494902947    1.9665940366   -1.0652568264
 H   -0.9676037472    1.9602352051    0.4541528435
 H    0.0171118008   -0.1902755419   -2.0864234747
 H   -0.8155610499   -2.6799807471   -1.2326409674
 H    1.0766059161   -3.6756165406   -2.0636703501
 H    0.8330034967   -3.7692314877    0.2461489524
 H    2.8844205802   -2.5878541374    1.0345655353
 H    2.5483883539   -1.2623122801   -0.0632293895
 H    1.2277256490   -1.8443610783    2.6325313766
 H    2.0750810837   -0.4038377035    2.1089466062
 H   -0.2620241429    0.1607754992    2.1425713271
 H   -0.7343128111   -1.3558810078    1.4072762590