18

 C    0.0261773624    1.3337999515    0.0843134421
 O   -0.0646877859   -0.0614509017    0.2501757937
 C   -1.3242679866   -0.5877846281   -0.1395610807
 C   -1.1989754742   -2.0870153690   -0.0710455270
 O   -0.1787916836   -2.5933128259   -0.8818691101
 C   -1.4982410046   -2.8035563636    1.2377911079
 C   -2.4117020117   -2.9438844249    0.0348011572
 O   -3.6558436968   -2.3037957460    0.0169608461
 H    1.0295750578    1.6366845554    0.3936487713
 H   -0.1297621596    1.6311424680   -0.9645147063
 H   -0.7121495011    1.8656586722    0.7042791809
 H   -2.1294434171   -0.2249997711    0.5127028516
 H   -1.5572219629   -0.2805929153   -1.1719331071
 H    0.6068588954   -2.0776055766   -0.6594064428
 H   -0.8742638603   -3.6507400915    1.4983219982
 H   -1.8525113844   -2.2019247025    2.0682042377
 H   -2.3611272544   -3.8863204444   -0.5100032469
 H   -4.2332477322   -2.7651476664    0.6341837341