19

 O    0.0330406333    1.3787518967    0.2217190672
 C    0.0094201776   -0.0161740714    0.0684581546
 C   -0.4367400451   -0.7998177420    1.2908922037
 C   -1.2907592890   -0.7379776747    0.0669808742
 C   -2.7373953341   -0.2723238852   -0.1780203036
 C   -2.5216867114   -0.6421319769   -1.6779023251
 C   -1.8977247065   -1.8117463493   -0.8427249852
 O   -1.1924177708   -2.9131462725   -1.2822932644
 C   -3.1712638183   -1.7510522505    0.0664548338
 H   -0.2340808721    1.7712972121   -0.6158219985
 H    0.8363510830   -0.4305490536   -0.5100373928
 H    0.0914920122   -1.7184672860    1.5260203013
 H   -0.7313631617   -0.2041486067    2.1491734781
 H   -3.2154699873    0.6211541736    0.2137149776
 H   -3.4232984077   -0.8752566163   -2.2524091721
 H   -1.8236577525   -0.0227747154   -2.2465277028
 H   -1.7787994041   -3.4646161758   -1.8111089329
 H   -3.0619175422   -2.1313265581    1.0839049803
 H   -4.1169269231   -2.0576122780   -0.3913238035