20

 C   -0.2920005021    1.3944144010    0.1542568448
 C    0.0217756375   -0.0716639540   -0.1231150777
 C    1.2810382365   -0.3035223980   -1.0232162883
 C    2.0125009014   -0.8413927727    0.2405430085
 N    0.7417781041   -0.7413049357    0.9937332340
 C    0.0559711913   -1.8376751592    1.4800999534
 O    0.5371119137   -2.7620931875    2.0939744772
 C   -1.4019194104   -1.6705404670    1.0148086318
 C   -1.2530426892   -0.9314709155   -0.3325395297
 H    0.6077708438    1.9405867684    0.4531806239
 H   -0.7019536115    1.8718758585   -0.7426437864
 H   -1.0285818425    1.4911174727    0.9587418968
 H    1.1331407496   -1.0606105453   -1.7966033116
 H    1.7064232795    0.5934440573   -1.4777859109
 H    2.3948360357   -1.8644198040    0.1988344242
 H    2.7933131140   -0.1852752616    0.6346429539
 H   -1.8833514571   -2.6464744499    0.9463305154
 H   -1.9583655413   -1.0734855130    1.7461233920
 H   -2.1261246127   -0.3288596487   -0.5945132813
 H   -1.0963415107   -1.6555750158   -1.1387748303