17

 O    0.0471488165   -0.0477620551   -0.0246072076
 C    0.0223470701    1.1622381845   -0.0416537726
 N   -1.1066092084    1.9541035262   -0.0317906687
 C   -0.8279449497    3.3774996377    0.1619014291
 C   -0.8257115096    3.7318008585    1.6613827762
 C    0.4651934308    3.0352024582    2.1496732367
 N    1.4091268517    3.0788056406    1.0011768670
 C    0.6681610069    3.4851687123   -0.1917582769
 C    1.2049753395    2.1046185242   -0.1038836585
 H   -1.9773810785    1.5425990224    0.2726489001
 H   -1.4836973698    3.9996325597   -0.4507278612
 H   -0.7457167928    4.8174901029    1.7849731708
 H   -1.7270857693    3.3974274244    2.1835465865
 H    0.9267851271    3.5594906905    2.9896940651
 H    0.2807765999    2.0036129508    2.4657449144
 H    1.0570723737    4.2770660005   -0.8219040097
 H    2.1109150120    1.7498498220   -0.5812415508