18

 C   -0.0151145113    1.5811736487    0.2787966590
 C    1.4947518965    1.5406041965   -0.0918012733
 C    2.6057229039    0.9026820073    0.8727144551
 C    2.3796175785    0.7953546184    2.4053282411
 C    1.0331173909    0.0609894011    2.4096621929
 C    0.8464370602   -0.5267899163    1.2174164217
 C   -0.0225876959    0.0446606636    0.0658645454
 N    1.2537687132    0.1824776409   -0.7783648172
 C    2.0742429908   -0.4316146123    0.3309770947
 H   -0.3480427058    1.9800290420    1.2384701933
 H   -0.5509217100    2.0848829490   -0.5335986650
 H    1.8632308951    2.3560887033   -0.7159776822
 H    3.6098622193    1.2203623394    0.5743478673
 H    3.2215988647    0.2841564051    2.8939629762
 H    2.2700943331    1.7654273967    2.9046495659
 H    0.2358178708    0.3587044152    3.0838028769
 H   -0.8852843959   -0.4644801036   -0.3653677473
 H    2.7029287519   -1.2970817751    0.1092991556