23

 C   -0.1783569756    1.6084319944   -0.0464957651
 C    0.0390022672    0.1023928082    0.0196935790
 C    1.0599447699   -0.5840497898   -0.9315640389
 C    1.3376687375   -1.6156531508    0.1981027073
 C    2.7318328777   -2.1806476376    0.4670248627
 C    3.6419758657   -1.1534867770    1.1472526741
 O    3.0004528724   -0.5555709039    2.2604525868
 C    1.9094109600    0.2520153334    1.8444418827
 C    0.7772236072   -0.5774040872    1.2210848411
 H    0.7590656644    2.1674887675    0.0330403549
 H   -0.6422907398    1.8862463408   -0.9995897885
 H   -0.8422554615    1.9527439484    0.7547081776
 H   -0.9297427678   -0.3980094655   -0.0960150711
 H    0.6940767145   -0.9658400396   -1.8884613918
 H    1.9230957998    0.0610136778   -1.1277702377
 H    0.6239952109   -2.4395510368    0.0953918066
 H    2.6410117482   -3.0449497903    1.1359428415
 H    3.1957817694   -2.5403591099   -0.4602236036
 H    4.5488218957   -1.6310480845    1.5299141315
 H    3.9533357165   -0.3712760902    0.4330223102
 H    1.5616757609    0.7822737296    2.7357042080
 H    2.2800412329    1.0098587656    1.1356952558
 H    0.1425785238   -0.9838261224    2.0137695869