18

 O    0.0602649176    1.4171574320    0.6010624417
 C    0.1747757583    0.0974543291    0.0988056581
 C   -1.2044675947   -0.5317987651    0.0119610123
 C   -1.5053394993   -2.0524245657    0.0284738666
 C   -1.1094286390   -2.0083147847    1.5167687018
 N   -1.9473509509   -0.7180686305    1.3736902686
 C   -2.9056860508   -1.6175099006    0.5785693387
 C   -3.9567975573   -1.0043974718   -0.3068609928
 O   -4.1296752868    0.1705839988   -0.5063544224
 H   -0.5315576539    1.3732871457    1.3622468779
 H    0.5927044458    0.1786290162   -0.9113703515
 H    0.8862348678   -0.4944218054    0.6910249379
 H   -1.8051523079    0.0737044021   -0.6663147362
 H   -1.2866489860   -2.8140110028   -0.7274966853
 H   -1.5625590669   -2.7426903793    2.1875665105
 H   -0.0679045824   -1.8373745459    1.7815516945
 H   -3.3974589801   -2.3699191933    1.2087435552
 H   -4.6137919835   -1.7714164087   -0.7812381955