22

 C    0.0508084655    1.6723846142   -0.1933443778
 C    0.0825635637    0.1385979184   -0.1606613180
 N    0.7125498873   -0.3470285991    1.0686270820
 C    2.0635743563   -0.4655906881    1.2055959370
 C    2.5417963220   -0.9597188029    2.5637093848
 O    2.8411410337   -0.1965731605    0.3050711197
 C   -1.2602967812   -0.5598460173   -0.3066274659
 C   -2.4976744693   -0.1129264994    0.4425207319
 C   -2.4257125098    0.0230317786   -1.0585375596
 H    1.0703952604    2.0461704795   -0.0757856890
 H   -0.3346534538    2.0411918646   -1.1480774339
 H   -0.5615534747    2.0877562186    0.6138748726
 H    0.7381988038   -0.1916603462   -0.9730190728
 H    0.1125495031   -0.5385338160    1.8543418164
 H    1.7323832868   -1.2546511979    3.2368173689
 H    3.2088287134   -1.8115311039    2.4104771025
 H    3.1279300562   -0.1688703083    3.0405247985
 H   -1.1490183399   -1.6375155870   -0.3954340904
 H   -3.1441539574   -0.8742899438    0.8647560621
 H   -2.4503755768    0.8001379928    1.0262582996
 H   -2.3343980387    1.0234484750   -1.4650757482
 H   -3.0204308908   -0.6477515112   -1.6683693603