18

 O   -0.0468401788    0.1958827184   -0.9006068106
 C   -0.0517555492    1.2454083571   -0.3088350090
 C   -1.2699703694    2.0742713986    0.0132055262
 C   -1.4844624066    2.3347006517    1.4685239012
 N   -0.8646339995    3.3535218986    0.6314898605
 C    0.6275520821    3.3978278463    0.6592976960
 C    1.3295451567    3.2000073419    2.0301652898
 C    1.7376044343    1.7551913683    1.6124746327
 C    1.1690607693    2.0293969947    0.1783004806
 H   -2.1016702093    2.0619096651   -0.6833650029
 H   -2.4866246335    2.5747025391    1.8123885088
 H   -0.8906900986    1.7753764398    2.1857691835
 H    0.9286710185    4.2826320937    0.0956879755
 H    2.1867107201    3.8647240016    2.1575246973
 H    0.6897109845    3.2999779390    2.9099240249
 H    2.8090297955    1.5496031793    1.6352010253
 H    1.2307994105    0.9512463947    2.1528435702
 H    1.9281348033    2.0380351821   -0.6051488399