19

 C   -0.3956820688    1.5142213410    0.0176362131
 N    0.1325407681    0.1670375120    0.0755499575
 C    1.0230996745   -0.4691601754   -0.8988877937
 C    2.5474820364   -0.0357794615   -0.8101108139
 C    2.8176383236    1.0690574844    0.2246191231
 C    2.4196636036    0.0029125587    1.2586569592
 C    0.8949450291   -0.4303258774    1.1752269593
 C    1.3739103573   -1.5283228931    0.1839913265
 N    2.8195685351   -1.0988847846    0.2652799855
 H    0.3328092260    2.3363158627    0.0468615958
 H   -0.9773422229    1.6198248039   -0.9054086322
 H   -1.0856990638    1.6531274861    0.8579121335
 H    0.6041653513   -0.6534053807   -1.8910661649
 H    3.1262889628   -0.0859446462   -1.7351195659
 H    3.8923246128    1.2632225414    0.2873780621
 H    2.2852387071    2.0168680219    0.1740252730
 H    2.8801048185   -0.0114376422    2.2490933884
 H    0.3566488441   -0.5784095521    2.1144703438
 H    1.0836623253   -2.5779142888    0.1857073796