20

 C    0.0212012010    1.4697890839   -0.2076349227
 C    0.1480159895   -0.0298246992   -0.0682310240
 C    1.5064117050   -0.7038642589   -0.0402712784
 C    0.6660186440   -0.6722714219    1.2064690688
 N    1.1292940034    0.0857354745    2.3449565204
 C    0.0244661778   -1.9964631328    1.6539255976
 N    0.8832681240   -2.8600148462    2.4628394025
 C   -1.2070784094   -1.6887342804    2.4093339177
 N   -2.1621653574   -1.3923345618    2.9882076041
 H    0.7982522133    1.9938358740    0.3571705169
 H    0.1104838022    1.7762734592   -1.2550169833
 H   -0.9490709149    1.8195253684    0.1612473462
 H   -0.6328944476   -0.5882572401   -0.5801148441
 H    1.6383271876   -1.6460024653   -0.5635560396
 H    2.3853506122   -0.0654882971   -0.0651766841
 H    1.9001429650    0.6976138130    2.1112997313
 H    0.3853286194    0.6520187045    2.7417077473
 H   -0.2822122218   -2.5563343315    0.7625600000
 H    1.6490663980   -3.1826490854    1.8771737459
 H    1.3051046985   -2.2745738767    3.1815853976