17

 N   -0.1203856856    1.5017832397   -0.0675625022
 C   -0.0522222660    0.0879338041    0.0031131911
 C   -0.2694252955   -0.7680123979   -1.2536681311
 C    0.6964080215   -1.8117837970   -1.7546815864
 O   -0.0605728214   -2.7960157768   -2.4470042160
 C   -1.1724433489   -0.9513998267   -0.0724158665
 N   -0.5359256311   -1.7102634791    1.0074379985
 C    0.5560049760   -0.8202625275    1.0813166770
 O    1.5454271200   -0.8216118389    1.7587764377
 H   -0.2679863893    1.9058236861    0.8519370402
 H    0.7435139931    1.8905583125   -0.4322842877
 H   -0.7268276931   -0.1747073993   -2.0429643798
 H    1.4324987330   -1.3317405098   -2.4175512156
 H    1.2576591634   -2.2551476212   -0.9193974502
 H    0.5542090150   -3.3999329027   -2.8746564455
 H   -2.2403281926   -0.7821133394   -0.0761307670
 H   -0.4119082584   -2.7161493360    0.9766618435