21

 C    0.0353431432    1.3092860787    0.1507088805
 O    0.2510138805   -0.0796091145    0.0701561413
 C    0.6097105490   -0.6609224639    1.3144473868
 C    0.6441506786   -2.1496535994    1.1015965168
 O   -0.5885400712   -2.6874321892    0.7145633123
 C    1.9112889650   -2.7838069214    0.5446588644
 C    1.4920137538   -3.0429885966    1.9627392408
 O    2.2966128101   -2.5139241145    2.9685605681
 C    1.6438257497   -2.4581248843    4.2233181616
 H    0.9418148501    1.8440432865    0.4745952577
 H   -0.2408410571    1.6570502664   -0.8477513411
 H   -0.7770760990    1.5569907618    0.8521028131
 H    1.5831962495   -0.2885075154    1.6628672017
 H   -0.1483629139   -0.4074070641    2.0741216419
 H   -0.8573801018   -2.1893708986   -0.0677981385
 H    1.7992500160   -3.5922927573   -0.1680401276
 H    2.7705943631   -2.1392197461    0.3961085886
 H    1.0577656551   -4.0190959729    2.1858418734
 H    0.7559815196   -1.8107899473    4.1954932152
 H    1.3310385612   -3.4584594743    4.5576713375
 H    2.3610832786   -2.0526120937    4.9405699856