19

 C   -0.1090920288    1.4678209005    0.0078057434
 C    0.1164994630   -0.0191685724    0.0059470952
 O   -0.7091893681   -0.7899271647    0.8935045482
 C    0.7281342793   -0.7903951912    1.1040951466
 C    1.4131713361   -1.9673423647    0.4940936052
 C    1.2341094419   -1.9649523164   -0.8291621353
 C    0.4399730776   -0.7613641336   -1.3014415680
 C   -0.8105782450   -1.1378497050   -2.0982567282
 O   -0.3842924831   -1.8043696128   -3.2789405372
 H    0.7553906158    1.9935149505   -0.4111243404
 H   -0.9855962780    1.7322485364   -0.5948359533
 H   -0.2801309772    1.8269455865    1.0256674284
 H    1.0472833267   -0.3454251943    2.0422841992
 H    1.9424825451   -2.7177717861    1.0682692550
 H    1.5601184192   -2.7321283567   -1.5205111264
 H    1.0606725064   -0.1248453814   -1.9476581297
 H   -1.4486571754   -1.7777190967   -1.4747448433
 H   -1.3803674117   -0.2268372615   -2.3432015723
 H   -1.1629492137   -2.1434293163   -3.7295924770