20

 C   -0.1126142669    1.4926334094   -0.3177405987
 C    1.4594884032    1.5517691537    0.0100928793
 C    1.1835170991    0.2766790133    0.8681776430
 C    1.2878841491   -1.2675868777    1.0758576858
 N   -0.2430007929   -1.3029772468    0.7883394578
 C   -0.9721673186   -0.9365975704    2.0110672827
 C   -0.1557875285    0.0360501567    2.8864253439
 O    0.6878346707    0.8603706051    2.0918756375
 C    0.0680981463   -0.0450912944   -0.0592175870
 H   -0.6785268260    2.0319286003    0.4383531036
 H   -0.4360032949    1.7836656086   -1.3188648949
 H    2.0575630147    1.3547100554   -0.8816432194
 H    1.8314099762    2.4331051748    0.5362515103
 H    1.8105234908   -1.7921796920    0.2751765371
 H    1.5886796649   -1.6717016968    2.0457816656
 H   -1.9258135654   -0.4958227102    1.7026236131
 H   -1.2022526599   -1.8439617185    2.5818908704
 H   -0.8007789759    0.7083411294    3.4616604673
 H    0.4499249991   -0.5269144998    3.6106924476
 H    0.4488998648   -0.4586761701   -0.9974283451