15

 O   -0.1097101720   -0.0446237148   -0.0166232091
 C   -0.0006401182    1.1627722433   -0.0058506813
 C   -1.2253369118    2.1401663247    0.0024059481
 N   -0.6785556509    3.5149151205   -0.1196213651
 C    0.6911739722    3.3404141549   -0.0228736069
 C    1.1539982772    2.0368116233   -0.0126162308
 C    2.5865528526    2.1026868373   -0.0062847559
 C    2.9173472861    3.4285126968   -0.0030139612
 N    1.7382155431    4.1950407201   -0.0165606800
 H   -1.8920248618    1.9089721995   -0.8329656352
 H   -1.7860375128    2.0113414168    0.9340557846
 H   -1.0925116975    4.1980238548    0.5023628018
 H    3.2804125855    1.2773665390    0.0022461213
 H    3.8759317542    3.9212709349    0.0105962696
 H    1.6979804939    5.1988021990   -0.0541259699