19

 C   -0.0716722241    1.3907252673   -0.6230490926
 O   -0.0743742279    0.0432962607   -1.0340780367
 C    0.7893459330   -0.7659845201   -0.2711923754
 C    0.6884672357   -2.1668821736   -0.7916430328
 O    1.5214283058   -3.1551177673   -0.1606724902
 C    1.8086386987   -3.7583769831   -1.4628099140
 C    0.8357205026   -2.8218051471   -2.1618264888
 C   -0.4833306802   -2.8562739041   -1.3973693675
 O   -1.0139840477   -4.0180405424   -0.8432409374
 H   -0.4031152016    1.4981000672    0.4214347741
 H    0.9281477655    1.8427829156   -0.7150596686
 H   -0.7653544412    1.9296536492   -1.2723463181
 H    1.8317163228   -0.4108825421   -0.3391157955
 H    0.5112063066   -0.7503976869    0.7978396269
 H    2.8584961516   -3.5964087874   -1.7254897476
 H    1.5763824970   -4.8288236911   -1.4780972489
 H    0.9493964435   -2.3909653563   -3.1473728824
 H   -1.2434419083   -2.1989978672   -1.8060366494
 H   -0.4393111221   -4.2458027612   -0.0996898853