18

 O   -0.0578000183    1.4258369681   -0.2120278291
 C   -0.0134573989    0.0273443317   -0.0586715792
 C    1.1034081705   -0.5350913174   -0.9069506292
 C    2.4880600742   -0.0067952458   -0.4739012357
 C    3.5726493212   -0.5262483767   -1.2962434438
 C    4.4473177933   -0.9726718904   -1.9899106503
 C   -0.3337436786   -0.5890409897    1.2772555541
 C   -1.2950083608   -0.7427752114    0.1056777957
 H   -0.6297315674    1.7979712659    0.4656167817
 H    1.0902739681   -1.6276211638   -0.8496752928
 H    0.9275448191   -0.2652706059   -1.9540641196
 H    2.4736161166    1.0875511175   -0.5171559509
 H    2.6641297360   -0.2701464284    0.5770625812
 H    5.2297319944   -1.3558273876   -2.5963664409
 H    0.2277564662   -1.4577895959    1.6051178918
 H   -0.6302644366    0.0714060144    2.0872590645
 H   -2.2173426348   -0.1714517514    0.1378766065
 H   -1.3910325342   -1.7166715533   -0.3626609239