17

 C   -0.0141024402    1.4813660875    0.0066031740
 C    0.0098170018    0.0260900295   -0.0030123461
 C    0.0378952142   -1.1767225703    0.0006887183
 C    0.0494756659   -2.6447986319   -0.0265737773
 C   -1.3922585648   -3.1972118921    0.1279174960
 C    0.6788434579   -3.1534177156   -1.3505192497
 C    0.8658394310   -3.1421727136    1.1023155139
 N    1.4982427115   -3.5568342778    1.9759439234
 H    0.5755525413    1.8768817445    0.8404881301
 H    0.4017215561    1.8913711312   -0.9199755348
 H   -1.0361374435    1.8609259696    0.1112048593
 H   -2.0034086859   -2.8402929540   -0.7046685762
 H   -1.3806409189   -4.2903943273    0.1204165255
 H   -1.8396443153   -2.8549777234    1.0629410362
 H    1.6984836110   -2.7801906046   -1.4626923608
 H    0.6985660588   -4.2464286335   -1.3638437614
 H    0.0799910591   -2.7962104580   -2.1918717702