16

 N   -0.1070813307   -1.1505456283   -0.1357364231
 C   -0.0488175885    0.0005773795   -0.0558597176
 C   -0.0059585387    1.4512836072    0.0492027594
 C   -0.4994609967    2.0047790769    1.4115765488
 O    0.0466851044    3.3142263220    1.4801924154
 C    1.3337057788    3.2888800677    0.9013782375
 C    2.4376985506    2.5586531282    1.6978147353
 O    2.3640247283    1.4115031006    0.8155161115
 C    1.4085968394    2.0583622750   -0.0384067010
 H   -0.6120733380    1.8844779211   -0.7549324672
 H   -1.5854105661    2.0847452791    1.4791009844
 H   -0.1359209033    1.3667125866    2.2274485047
 H    1.5614199253    4.2862758558    0.5263362807
 H    3.4254046310    3.0319975875    1.6617814125
 H    2.1834831894    2.3108043102    2.7339011533
 H    1.7709292947    2.1693305310   -1.0636602246