27

 C   -0.2621163097    1.5236382172   -0.8792149877
 C   -0.0505541894    0.1181152927   -0.2974264339
 C    0.6305734553    0.1981416236    1.0770109100
 C   -1.3750530021   -0.6409943394   -0.2155356755
 C   -2.2192398959   -0.8741554283   -1.4977231326
 C   -2.6651417708   -2.2379572724   -0.9078689044
 C   -2.8967395749   -3.4181824762   -1.8403440778
 C   -1.4209607535   -2.1886965253    0.0437450643
 C   -0.2068476741   -2.9804928398   -0.4419478642
 H    0.6866342560    2.0650339624   -0.9585786595
 H   -0.7095328578    1.4831548748   -1.8772237958
 H   -0.9285576203    2.1151215014   -0.2395177259
 H    0.6172116540   -0.4278261991   -0.9780028753
 H    0.8018659400   -0.7941763307    1.5057393715
 H    1.5989211955    0.7056912097    1.0111066775
 H    0.0097361249    0.7609053303    1.7848300045
 H   -2.0072934312   -0.1485130574    0.5356865513
 H   -2.9943375104   -0.1442585891   -1.7462345649
 H   -1.5814964377   -1.0105959269   -2.3791607337
 H   -3.5651816320   -2.0819641349   -0.3014833763
 H   -2.0310766385   -3.6082412973   -2.4831162317
 H   -3.1059927264   -4.3380426913   -1.2821760671
 H   -3.7550164917   -3.2285948286   -2.4950326147
 H   -1.6318411882   -2.4724413214    1.0801709277
 H    0.0672342748   -2.7386347860   -1.4740706481
 H    0.6703137242   -2.7852414867    0.1833020833
 H   -0.4052950402   -4.0567782114   -0.4004750311