21

 C   -0.1443816235    1.5819242976   -0.1055956009
 C    0.0078922234    0.0708261977   -0.0019311411
 C    0.9676557928   -0.6879666976   -0.9707560941
 C    1.4453875850   -1.5631246310    0.2251306520
 O    2.8340482071   -1.6255754562    0.5192755065
 C    3.1582966315   -0.6571654066    1.4836064126
 C    3.0312167212    0.7896904905    1.1051151209
 C    1.9236773781    0.1051944014    1.9002000356
 C    0.7511856133   -0.5788972680    1.2131734647
 H    0.8146207164    2.0993320912   -0.0243328595
 H   -0.5947355846    1.8595799576   -1.0654073738
 H   -0.7959137902    1.9659112755    0.6875963037
 H   -0.9879560849   -0.3822084203   -0.0655058271
 H    0.4998848982   -1.2195100866   -1.8034559129
 H    1.7718463418   -0.0663200505   -1.3711001053
 H    1.0593287802   -2.5860766154    0.1939317983
 H    3.9253075094   -0.9958310546    2.1713708575
 H    3.6354146354    1.5048933802    1.6546130388
 H    2.8907529325    1.0401995699    0.0616801735
 H    1.7901205205    0.4218191299    2.9278437077
 H    0.0978569662   -1.0151827447    1.9731229730