16

 O    0.1532766004    1.5358229429    0.0142293739
 C    0.0571412010    0.1394441151    0.0406359675
 C    0.6653581619   -0.4621366783   -1.2183925240
 O    1.1184223673    0.2487439071   -2.0838837916
 C    0.7400668687   -0.4408571517    1.2818192940
 C    0.0572173347   -0.1648910559    2.6543659646
 N   -0.1298690204   -1.6159541294    2.7727747800
 C    0.4344120434   -1.9369435953    1.5674383465
 O    0.5872265483   -2.9720071506    0.9718315835
 H    0.5706442584    1.7477368073   -0.8374889765
 H   -1.0036473315   -0.1749371974    0.0548104941
 H    0.6733159057   -1.5651008009   -1.2835517909
 H    1.8081611817   -0.2098877864    1.2703527259
 H    0.7076391904    0.2687879425    3.4185950105
 H   -0.8737534271    0.4061799342    2.5934233614
 H   -0.5710219730   -2.1890411931    3.4767414811