21

 C    0.6901147463   -0.7255252800    1.4167667786
 C   -0.0067727680   -0.1097607016    0.1997883888
 C    0.7314643585   -0.2980729038   -1.1290393478
 C    0.8195454178   -1.7751169737   -1.5462594695
 O    1.4777130363   -1.8537093077   -2.8005032505
 O    0.0468149121    0.4512490229   -2.1182507806
 C    1.0026133695    1.0152527902   -3.0076151829
 C    2.3520520119    0.8907027106   -2.2630472937
 O    2.0242903723    0.2718048144   -1.0248450815
 H    0.7072726471   -1.8192497800    1.3766910621
 H    1.7222758624   -0.3724118322    1.4877128111
 H    0.1687179585   -0.4427865610    2.3361202021
 H   -1.0204473022   -0.5102596367    0.0879100618
 H   -0.1063276316    0.9717057169    0.3320921807
 H    1.3703640373   -2.3295631289   -0.7743238044
 H   -0.2023212962   -2.1798002334   -1.6031862251
 H    1.5915817540   -2.7808616636   -3.0249554624
 H    1.0185517407    0.4668638783   -3.9547067505
 H    0.7180670281    2.0553867427   -3.1976736639
 H    3.0614325091    0.2751933521   -2.8252197102
 H    2.8092492162    1.8618908444   -2.0471849621