18

 C    0.0111808641   -1.2145749357   -0.0964432621
 C    0.0384670742   -0.0136894125   -0.0090536515
 C    0.0300329337    1.3997493838    0.1182841043
 N    0.2112052904    2.3079341892   -1.0624575138
 C    1.1491127621    2.4037747688    0.0702210947
 C    0.4719264426    3.2731728449    1.1391867250
 C   -0.6784124180    2.2381373994    1.1753192754
 C   -2.1514926842    2.4400619231    1.3333960069
 C   -1.3617861914    1.6969420316    2.3914608541
 H   -0.0007800224   -2.2734008405   -0.1747904024
 H    0.6681088135    1.7502604583   -1.7853534691
 H    2.2086217230    2.2233442062   -0.0617903787
 H    1.0327961902    3.3118899913    2.0764371210
 H    0.2164253650    4.2846440810    0.8133318495
 H   -2.5024627594    3.4400805905    1.5661811537
 H   -2.8160225897    1.8694811890    0.6933344651
 H   -1.4884410064    0.6210965943    2.4592870497
 H   -1.1802432674    2.1897842974    3.3413450381