17

 C    0.1380130128    1.4858787885    0.0935427663
 O    0.0608145583    0.0702106401    0.0887706936
 C    0.5067826762   -0.5414438963   -1.0335643043
 C    0.5580081149   -1.8945573614   -1.2210014407
 C    0.1483814562   -3.0622120020   -0.3821613380
 N   -1.0247605797   -3.8096096734   -0.8574135586
 O    1.0499210531   -2.1389352974   -2.4561887023
 N    1.3308453129   -0.9463023038   -3.1017859296
 C    1.0079040748   -0.0000327070   -2.2507015575
 H    1.1739307103    1.8309820795   -0.0205243105
 H   -0.4761902752    1.9235417372   -0.7044198055
 H   -0.2453625500    1.8125957141    1.0610616558
 H    0.9851655457   -3.7657895858   -0.3041882043
 H   -0.0547928266   -2.6923143869    0.6271636986
 H   -1.8162262937   -3.1766991655   -0.9383690468
 H   -0.8440047928   -4.1483369249   -1.7985723591
 H    1.1451656027    1.0322345748   -2.5365156271