16

 C   -0.1564329469    1.6139804676   -0.0397146509
 C    0.0232758311    0.1095536286    0.0285382646
 C    1.3413126720   -0.5870184292   -0.2293755526
 C    2.5953381074    0.1546707389   -0.5144239932
 O    3.4529631439   -0.2694089401   -1.2496823714
 C    0.6973701762   -0.5998908351    1.1823232741
 C    1.2991266704    0.1287387942    2.3272805672
 O    1.3091825195   -0.3123564017    3.4503578934
 H    0.6940574117    2.1737772735    0.3533439358
 H   -0.3062507261    1.9283172501   -1.0773197397
 H   -1.0403274763    1.9136406004    0.5319604116
 H   -0.8293820735   -0.4370423649   -0.3653829048
 H    1.3055152485   -1.5397972353   -0.7472397469
 H    2.7107424314    1.1433045933   -0.0224040476
 H    0.2894254250   -1.5601138095    1.4803260319
 H    1.7394365755    1.1239044392    2.1068922286