20

 C    0.0738752506    1.5820902256    0.0395500744
 C    0.0284698096    0.0536998994    0.0241613177
 C    0.7250849280   -0.5888867313   -1.2068679975
 C    1.2292031513   -1.9484766516   -0.7218455260
 C    0.7302397543   -3.2299302901   -1.2856199314
 N    2.1238460552   -2.7985827573   -1.5115540232
 C    1.4702634361   -1.7880162942    0.7500682780
 O    2.1708940514   -0.5761314443    1.0821271176
 C    0.7417906593   -0.5982129802    1.2026130372
 H    1.1110368349    1.9309944331    0.0706458603
 H   -0.4003674682    2.0019467776   -0.8534828209
 H   -0.4457216279    1.9869728167    0.9144670836
 H   -1.0182954630   -0.2790630075    0.0584494205
 H    0.0598191821   -0.6682114848   -2.0709244521
 H    1.5817667616    0.0284273301   -1.4979091106
 H    0.6235201264   -4.1092655554   -0.6549573951
 H    0.0203892727   -3.1761296731   -2.1074619047
 H    2.2239793903   -2.4169115761   -2.4495972479
 H    1.6885720781   -2.6475738171    1.3773424042
 H    0.3564243472   -0.4870835294    2.2138654961