22

 C   -0.2001822362    1.4611555617   -0.0246876574
 O   -0.0733432399    0.0458459985    0.0945325529
 C   -1.2296990356   -0.6558075480    0.1670613669
 C   -0.9303392178   -2.1350052485    0.2791445414
 N   -2.3460225938   -0.0591589506    0.1311127943
 C   -3.5881472475   -0.8055183436    0.2210424343
 C   -4.3639812133   -0.4308491950    1.4686646734
 C   -5.2101383847    0.8126890993    1.4903411810
 C   -5.8671783765   -0.5466627142    1.4822835611
 H    0.8201596801    1.8466226900   -0.0592816778
 H   -0.7432737538    1.7296142904   -0.9354804086
 H   -0.7413384668    1.8784915446    0.8291503945
 H    0.1459157759   -2.2886998252    0.3560960362
 H   -1.4142543517   -2.5673124472    1.1590316442
 H   -1.2996358663   -2.6736777300   -0.5986464660
 H   -4.1996876757   -0.5493017536   -0.6553242028
 H   -3.4491774099   -1.8974517368    0.1955973160
 H   -3.8532016074   -0.6778704947    2.3959840979
 H   -5.2475357147    1.3978025298    2.4025064357
 H   -5.2546422489    1.4049053735    0.5822840220
 H   -6.3592113488   -0.8669377832    0.5691854808
 H   -6.3508321169   -0.8938755270    2.3886279201