22

 C   -0.0608323994    1.5864187228   -0.0261171786
 C    0.1157269373    0.0695444386    0.1105987954
 C    0.7592019685   -0.5462842524   -1.1203449176
 C    0.6813288114   -2.0445098622   -1.4078612336
 C   -0.7709835894   -1.8668957488   -1.9389681547
 C   -0.4877291939   -2.5400600098   -3.2801201398
 C    0.7757069469   -1.7377593255   -2.9434662811
 C    1.9932115933   -1.5086741143   -3.7898805501
 N   -0.0871636233   -0.5485664360   -2.3999086876
 H    0.9059362804    2.0862214530   -0.1534947096
 H   -0.6746181031    1.8245606237   -0.8996391581
 H   -0.5422725802    2.0124808009    0.8592713920
 H    0.7450280396   -0.1579882867    0.9814151695
 H   -0.8554594391   -0.4006130677    0.3047202507
 H    1.7380977035   -0.0809380767   -1.2984004003
 H    1.1026605396   -2.9009604611   -0.8673236955
 H   -1.6982566709   -1.8412372931   -1.3668643120
 H   -0.3961026295   -3.6298347403   -3.2794676379
 H   -1.0714340328   -2.1824606709   -4.1336889477
 H    1.7130487203   -1.0463290071   -4.7418638251
 H    2.7156863169   -0.8531741511   -3.2935885709
 H    2.4921679438   -2.4595378452   -4.0060631174