16

 O    0.0786531060    0.0541747413    0.4648655887
 C    0.0289182876    1.1865050347    0.0533672697
 O   -1.1423163835    1.6753994160   -0.3942168945
 C   -1.3136009484    3.0164302278   -0.8810432469
 C   -0.0496238630    3.7387393983   -1.2195054108
 C    1.1365262577    3.2983865624   -0.8166691346
 C    1.2435742852    2.0715723008   -0.0056317912
 C    2.1162711140    2.0090421813    1.2210637082
 N    2.5390609246    1.3616358762   -0.0099016268
 H   -1.9570660679    2.9233640043   -1.7633946030
 H   -1.8912894630    3.5676891618   -0.1251811757
 H   -0.1574317296    4.6480203460   -1.8022905408
 H    2.0617793522    3.8096350740   -1.0607878127
 H    2.6754153183    2.8979304806    1.5001361548
 H    1.7591094989    1.3937960367    2.0416206989
 H    2.3315154707    0.3651495578    0.0590822666