19

 C    0.0228678777    1.5310731211   -0.0486342696
 C    0.0085779458    0.0032834301    0.0119125387
 O    0.5881877713   -0.4663840447   -1.1928202299
 C    0.9211644876   -1.8470468372   -1.1642959332
 C    2.0214475440   -2.1241741633   -0.1396832097
 C    1.6522180782   -1.4799883375    1.1708868166
 C    2.3087254028   -1.9296345408    2.4102672681
 O    3.1456752967   -2.8023515361    2.4625312700
 C    0.7143488229   -0.5246977202    1.2299869155
 H    1.0518113336    1.9001881543   -0.0697099301
 H   -0.4861353469    1.8662660470   -0.9555913159
 H   -0.4886739734    1.9572657111    0.8192275434
 H   -1.0462846005   -0.3319879393    0.0674619773
 H    0.0285593580   -2.4494627462   -0.9287776022
 H    1.2420442533   -2.1018216766   -2.1775475669
 H    2.1656771891   -3.2001274075    0.0052511453
 H    2.9812417393   -1.7303581550   -0.4955188002
 H    1.9708771532   -1.3970039492    3.3283848600
 H    0.4261975673   -0.0973169100    2.1891389926