14

 C    0.0103994771    1.4294631594    0.0089216714
 O    0.0247654133    0.0079059567    0.0050713400
 C   -1.1751382836   -0.5912423110    0.0124109693
 C   -1.3532622348   -1.9742225387    0.0100322379
 N   -2.7116165436   -2.1625249210    0.0198136504
 N   -3.3990649515   -1.0271736382    0.0278829737
 C   -2.4814460647   -0.0557911018    0.0235130908
 C   -0.4239324451   -3.0319003724    0.0002871168
 N    0.3252520282   -3.9162440031   -0.0076347900
 H    1.0538543915    1.7448167695    0.0019732800
 H   -0.4965741353    1.8217053468   -0.8812093745
 H   -0.4832312819    1.8169958939    0.9085640169
 H   -3.1975408520   -3.0443866256    0.0211798318
 H   -2.7913498377    0.9766566254    0.0285240756