16

 C   -0.0393548634    1.4835045078   -0.1435204335
 C    1.3423182317    2.0493239811    0.1084932449
 C    2.4321314101    1.3270517647    0.3754647298
 C    2.4841830049   -0.1806311229    0.4741801098
 C    1.1291361899   -0.7495611674    0.2277124423
 C    0.0434423809    0.0076439792   -0.0404397142
 O   -1.0267589707   -0.8276417442   -0.2125383032
 C   -0.5020845630   -2.0676946014   -0.0323808028
 N    0.7628964144   -2.0939361406    0.2305410756
 H   -0.7586531660    1.8985617061    0.5784379516
 H   -0.4058775559    1.7988882578   -1.1319921144
 H    1.4217326947    3.1319704284    0.0617225946
 H    3.3738974472    1.8445362835    0.5395737979
 H    3.2146686995   -0.5810756472   -0.2437625598
 H    2.8626280280   -0.4815356179    1.4619287165
 H   -1.1853965224   -2.8970671670   -0.1251280849