20

 C    0.2263769152    1.4251921699    0.2254461802
 C   -0.2082262138   -0.0071157786   -0.1067295042
 C    0.5629736646   -0.5840408324   -1.2760649473
 C    1.8962225323   -1.2431061072   -1.1675341538
 O    1.9913401955   -1.9714891750    0.0874362547
 C    0.9587059677   -2.8126155800   -0.3296320129
 N    0.4999566179   -3.8536514389    0.1962977435
 C    0.7093740159   -2.0804933332   -1.6122415786
 C    0.3060158023   -2.7113713329   -2.9119254477
 H    1.2842559412    1.4582870272    0.5055373713
 H    0.0870758790    2.0945329309   -0.6308689508
 H   -0.3552861314    1.8278111491    1.0600597834
 H   -0.0736204512   -0.6453919372    0.7711134709
 H   -1.2783427058   -0.0263979990   -0.3458346332
 H    0.4710410453   -0.0072463435   -2.1974561342
 H    2.8274185515   -0.9835742829   -1.6536338957
 H    0.9757761867   -4.0657011405    1.0750317185
 H   -0.7496400712   -3.0011473624   -2.8906992334
 H    0.4457779570   -2.0162712543   -3.7452979241
 H    0.8936832012   -3.6123848691   -3.1129300268