22

 C    0.0520367262    1.5283474180    0.1527107289
 C   -0.0642310895    0.0136271667   -0.0615591593
 C    0.6858832352   -0.5031922194   -1.2737025898
 C    2.2433726532   -0.4262677689   -1.3978540843
 C    2.0241965047   -1.5541180429   -2.4444431931
 C    0.8619152838   -2.0336116592   -1.5318779130
 C    1.2649180577   -0.8118320130   -3.5608786176
 C    0.2497392451   -0.0153223351   -2.6771720397
 H    1.0987784942    1.8336891071    0.2572980242
 H   -0.3747979671    2.0889071709   -0.6850030899
 H   -0.4759910832    1.8373011490    1.0601057963
 H    0.3053158127   -0.5052671945    0.8326162982
 H   -1.1241335691   -0.2614930482   -0.1546410617
 H    2.6933336650    0.5125561307   -1.7370734436
 H    2.7490049619   -0.7797596264   -0.4950388590
 H    2.8315567044   -2.2222853735   -2.7459255802
 H    1.2118590097   -2.5648095413   -0.6425710743
 H    0.0314703784   -2.5791177077   -1.9929991701
 H    1.9186336104   -0.1575841019   -4.1455752490
 H    0.7714140905   -1.4983717604   -4.2553346848
 H   -0.7924717842   -0.2737260497   -2.8914796147
 H    0.3547444000    1.0670930997   -2.7936546435