19

 C   -0.2124172446    1.5788399212   -0.0140935827
 C   -0.0255654304    0.0542254808   -0.0021488981
 C    1.1733543719   -0.4070602286   -0.9018779829
 C    2.0922615607   -0.4560152003    0.3568497735
 C    0.8042408178   -0.4355510666    1.2352838221
 C    2.9656028409   -1.6712974556    0.4913122736
 O    4.1519549554   -1.6597355052    0.6957375726
 C   -1.2891897687   -0.6264666348   -0.2294783602
 C   -2.3308755926   -1.1982325386   -0.4170122627
 H    0.7414688316    2.0878934903    0.1574386397
 H   -0.6104924581    1.9105532344   -0.9774534451
 H   -0.9119845301    1.8872768681    0.7682322201
 H    1.0006958485   -1.4026529793   -1.3190087687
 H    1.4720222154    0.2694755837   -1.7052613070
 H    2.7072237223    0.4374860190    0.4749323232
 H    0.8131117350    0.2186252565    2.1095302823
 H    0.5061442518   -1.4408257187    1.5444417025
 H    2.4098140187   -2.6348814802    0.3830408354
 H   -3.2510070655   -1.7018874260   -0.5826038275