18

 O   -0.1409367572    0.8947570586    1.2171326549
 C   -0.0070497945    1.5365504031    0.1956013951
 N    1.1057934764    1.5512726920   -0.5837500948
 C    2.3186519490    0.8300045347   -0.2398980695
 C    3.5037803882    1.7898913918   -0.1364186874
 C    4.9702676357    1.2508064337   -0.1404656112
 C    5.3597507133    2.2855858453   -1.2439020620
 C    3.8604935402    2.5500210803   -1.4236195816
 O    3.1868801235    3.0185308651   -2.3009611268
 H   -0.8026448891    2.1878220785   -0.2166850729
 H    1.1449235356    2.1618775736   -1.3873090298
 H    2.1294295874    0.3195576183    0.7069251141
 H    2.5319822021    0.0646746345   -0.9982556130
 H    3.3368943275    2.4992833586    0.6827570841
 H    5.5093763374    1.3248569801    0.8037247167
 H    5.0281688002    0.2211270604   -0.5018327285
 H    5.8787534839    3.1643174143   -0.8472280854
 H    5.8978933603    1.9338547471   -2.1272172519