17

 C    0.4938950351    1.5441111088   -0.0154255505
 C    0.0705195298    0.0694416875   -0.0121592894
 C    0.5118910543   -0.7959305817   -1.2171305513
 N    1.3644391559   -1.9215579947   -0.7356008715
 C    2.5891543064   -1.4620336747   -0.1026700098
 C    1.4126928157   -1.8489818659    0.7378736993
 C    0.5957397168   -0.6914782045    1.2217882391
 O    0.3486003739   -0.4186645639    2.3695029818
 H    1.5763843049    1.6552781478   -0.1375027363
 H    0.0092440735    2.0873814669   -0.8321947213
 H    0.2098352305    2.0161723432    0.9292747066
 H   -1.0212177836    0.0345033439    0.0783380561
 H   -0.3519756357   -1.2399871488   -1.7184634570
 H    1.0690193534   -0.2240290821   -1.9660083440
 H    3.4306818777   -2.1464216470   -0.1563391951
 H    2.8548746563   -0.4089490765   -0.1676714325
 H    1.4196506649   -2.7682715883    1.3130826758