18

 C    0.1149402671    1.4107686275   -0.0048209349
 C    1.3297139712    0.5673421245    0.0026551906
 N   -0.0528742535   -0.0494338752    0.0812397706
 C    0.1460512068   -0.5572843408   -1.3234483275
 C    1.5946145671   -0.0091910613   -1.3908974810
 C    2.0960141094    0.9346788925   -2.5112578644
 O    3.1598148684    0.2297061330   -3.1344726291
 C    3.6554106245   -0.6203050597   -2.1334484149
 O    2.5355889012   -1.0757041099   -1.4082220188
 H   -0.1441167718    1.9264146486    0.9148276836
 H   -0.1913538016    1.9288222927   -0.9123888153
 H    2.0272849265    0.5281050387    0.8331772010
 H    0.1431110699   -1.6480394905   -1.3350889105
 H   -0.5817568073   -0.1715103174   -2.0455564377
 H    1.3384455986    1.1502695453   -3.2684770078
 H    2.4464125549    1.8843358697   -2.0788894770
 H    4.1567725108   -1.4741704062   -2.5962929106
 H    4.3548116177   -0.0784757115   -1.4692912662