17

 C    0.0327024481    1.5674796038    0.0072291300
 C    0.0186193643    0.0350758558    0.0454167264
 C    0.7982066737   -0.5198536393    1.2422679876
 C   -1.4360550871   -0.5449373461    0.0240107457
 O   -1.4526994856   -1.9617508711    0.0442303231
 C   -2.1805309777   -0.1085882757    1.2252374959
 N   -2.7245259741    0.2646030794    2.1720310568
 C   -2.1504221878   -0.0578449335   -1.1838994948
 N   -2.6533936371    0.2764396900   -2.1683904173
 H    1.0657003137    1.9226712775   -0.0390705259
 H   -0.4976980947    1.9614149345   -0.8639029331
 H   -0.4252474459    1.9866344443    0.9088342573
 H    0.4714466430   -0.3416852082   -0.8822753701
 H    0.3914540466   -0.1396581092    2.1846923454
 H    0.7651771608   -1.6107005053    1.2721630262
 H    1.8432922332   -0.2053101092    1.1762095115
 H   -1.0298786034   -2.2733110278   -0.7657662847