21

 C    0.3129499078    1.5050884471   -0.2195391442
 C    0.0584642836    0.0434514831    0.0905892595
 O    0.6617793923   -0.8411219958   -0.8875552769
 C    1.3723581317   -1.5755531216    0.1242773399
 C    2.8721464571   -1.3052438308    0.1118996106
 O    3.0330742734   -0.0235866413    0.7126460384
 C    2.0751587512    0.0548097099    1.7609425050
 C    0.8162514491   -0.6649807912    1.2568019037
 C   -0.0453063813   -1.2636271748    2.3555948941
 H    1.3844536498    1.7071784023   -0.2840899101
 H   -0.1453531985    1.7606784944   -1.1802280099
 H   -0.1333894440    2.1485035960    0.5471427590
 H   -1.0237741478   -0.1443247939    0.1453502084
 H    1.1137994248   -2.6402794830    0.1248467628
 H    3.3987465572   -2.0804587518    0.6942694778
 H    3.2903263261   -1.2667507410   -0.8968401262
 H    2.4492904260   -0.4486909882    2.6685848017
 H    1.9226702171    1.1119308265    1.9950482618
 H   -0.4640395806   -0.4807194359    2.9992521139
 H   -0.8833114048   -1.8310114915    1.9392017152
 H    0.5353365400   -1.9388359984    2.9936380053