19

 C   -0.0503565779    1.5627707003   -0.0363852078
 C    0.0009876795    0.0405965852   -0.0187497448
 C   -1.3743352800   -0.5779046777    0.2274054512
 C    0.7243518813   -0.6458488881   -1.1922344513
 N    2.1396279864   -0.2005523337   -1.1534975084
 C    1.6893508641   -1.3234152152   -0.2881770864
 C    1.1008407781   -0.6181809215    0.9402978257
 O    1.9690914041    0.2232490556    1.6440893502
 H    0.9184252530    1.9875653175   -0.3078755012
 H   -0.7913795486    1.9180333432   -0.7619092274
 H   -0.3286876864    1.9514687529    0.9485770690
 H   -2.0865597820   -0.2848349969   -0.5526376365
 H   -1.3261147563   -1.6727723651    0.2390270645
 H   -1.7796407326   -0.2491967196    1.1906177169
 H    0.2859277007   -1.0045153400   -2.1168064194
 H    2.6183557078   -0.6032170205   -1.9571199705
 H    2.1617210131   -2.2960308629   -0.3560288686
 H    0.6436036025   -1.2953921121    1.6658602925
 H    2.5074908134    0.6574975087    0.9680230024