17

 O   -0.1417381751    1.2608429463   -0.9654569757
 C    0.1240269100    0.1544591814   -0.1100868581
 C   -1.1968006533   -0.5940061206    0.0285619643
 C   -1.5419295336   -2.0251892242   -0.2697882976
 C   -0.6406214920   -3.0561027765    0.4365449588
 C    0.4048754816   -2.5207280314    1.3377729758
 N   -0.9940501193   -2.5369324892    1.8035557531
 C   -1.8011636607   -1.4543986855    1.1148467664
 H    0.6787399056    1.7481828672   -1.0863680954
 H    0.8991598450   -0.4920315404   -0.5449355449
 H    0.4814673815    0.5009338554    0.8728636153
 H   -1.9876798345    0.0566119118   -0.3446447233
 H   -2.2497600850   -2.3176729344   -1.0345644095
 H   -0.7189515137   -4.1172253333    0.2218885308
 H    1.0072514701   -3.2597467578    1.8608011282
 H    0.9188306913   -1.5872217884    1.1609846524
 H   -2.7298569579   -1.1839027204    1.6020507094