17

 C    0.0483986470    1.5507902133   -0.1495846434
 C    0.0218226863    0.0434602617    0.0312378751
 O    0.6279061805   -0.5841851803   -1.1245966236
 C    1.3136849721   -1.7152077256   -0.7989734045
 O    1.7470096777   -2.4693970822   -1.6178696283
 C    1.4653678688   -1.7908848300    0.7261825696
 O    2.7623018042   -1.2998180079    1.1219649436
 C    2.1885057728   -0.0508062578    1.5765324443
 C    0.7555377045   -0.5340882636    1.2518011330
 H    1.0715628618    1.9250468755   -0.2350852470
 H   -0.4924798224    1.8313229623   -1.0567339327
 H   -0.4334136139    2.0390421920    0.7034869700
 H   -1.0222615373   -0.2954345086    0.0608186964
 H    1.2514037190   -2.7890438094    1.1153859975
 H    2.3921351822    0.1187849266    2.6389974595
 H    2.5592927360    0.8035185436    0.9998514237
 H    0.1000029707   -0.6379183595    2.1153501570