20

 C    0.2153969268    1.4615523764    0.2160599429
 C   -0.0341420232   -0.0166219485   -0.1159697925
 C    0.6808614222   -0.4590448941   -1.3600769014
 C    0.4521352709   -0.0731977311   -2.8119144389
 N    1.3040895212   -1.2592909324   -3.2316446540
 C    2.6769405111   -0.8278154820   -2.7430927852
 C    2.1449794136   -0.9518410000   -1.3270533759
 O    2.8153534645   -0.9437469240   -0.1221963161
 C    1.0436727831   -1.8514377161   -1.8289821479
 H    1.2795132296    1.6438342727    0.3936196844
 H   -0.1058173909    2.1129847206   -0.6038819111
 H   -0.3350512997    1.7603774370    1.1132535021
 H    0.2967922892   -0.6390758842    0.7228638688
 H   -1.1110410021   -0.1946221682   -0.2342928244
 H   -0.5802610459   -0.2350537657   -3.1368459782
 H    0.8067545034    0.8948948739   -3.1851289569
 H    3.4093028414   -1.6021465122   -2.9941679407
 H    3.0182362681    0.1418509210   -3.1235598204
 H    3.4029597815   -1.7069656646   -0.0925862600
 H    0.6913495952   -2.8504298686   -1.6126649046