18

 O    0.0267112637   -0.0651230110    0.0629394357
 C   -0.0072422107    1.1510902684    0.0247831219
 N   -1.1623113569    1.8865299473    0.0041583892
 C   -1.0794046014    3.3407688210   -0.0416731521
 C   -0.2197644418    3.7402355566   -1.2668824976
 C    1.1689402105    3.3328953238   -0.7998392895
 C    1.1722231351    3.3801723980    0.7056958191
 C   -0.2144915952    3.8161992702    1.1523072087
 C    1.2084814842    2.0288402507   -0.0054630351
 H   -2.0415238706    1.3956466528    0.0215949661
 H   -2.0854133874    3.7596685137   -0.0526367626
 H   -0.5525203260    3.2302319592   -2.1751138031
 H   -0.2639530641    4.8220460210   -1.4363222701
 H    2.0409590323    3.5945083567   -1.3865729853
 H    2.0467527848    3.6779632839    1.2710569461
 H   -0.2580890676    4.9065154134    1.2537302912
 H   -0.5432184070    3.3642303620    2.0921890646
 H    2.1406241381    1.4789990023    0.0097708229