14

 C    0.0623733953    1.5272822085   -0.5782961041
 C   -0.0012703999    0.2416576164    0.2222796023
 O    0.9309892413   -0.2016191658    0.8448008209
 C   -1.3443718735   -0.4557193296    0.2023777501
 O   -1.3991519934   -1.7846975022    0.6877137249
 C   -2.0444339749   -0.7891139297    1.4789704868
 C   -1.5016076831   -0.4837834373    2.7732022822
 C   -1.1116457506   -0.2202107650    3.8783816817
 H    1.0278031128    2.0093555453   -0.4235913192
 H   -0.0740522076    1.3146966668   -1.6452879020
 H   -0.7458175045    2.2063628997   -0.2826298358
 H   -1.9778793932   -0.2501818665   -0.6622609258
 H   -3.1334071462   -0.8229595901    1.4342627525
 H   -0.7423414225    0.0057458395    4.8484548154