21

 C    0.0330992523    1.3213057617   -0.1143406407
 O    0.0191321281   -0.0832036960   -0.0126233871
 C    0.6773652798   -0.5656594709    1.1424182587
 C    0.6640007379   -2.0836025476    1.0810520913
 N    1.4056783562   -2.5394236422   -0.0891000972
 C    1.3126233688   -3.9704268167   -0.3169851376
 C    2.2058287729   -4.3607644225   -1.5086396670
 C    2.1843961862   -5.7957638619   -1.7771212604
 N    2.1578425334   -6.9340581838   -1.9743070835
 H    1.0596460876    1.7169336452   -0.1623450039
 H   -0.4932426861    1.5888647330   -1.0336780359
 H   -0.4777210062    1.7954531060    0.7381865154
 H    1.7166416714   -0.2005152691    1.1709507115
 H    0.1672114727   -0.2164731248    2.0548621800
 H    1.1396315825   -2.4818192195    1.9861449251
 H   -0.3861242795   -2.4282529316    1.0859570730
 H    1.0437100984   -2.0333289518   -0.8926775904
 H    1.6687136330   -4.4909117093    0.5796870558
 H    0.2835997764   -4.3280826197   -0.4998650453
 H    1.8776506061   -3.8325684351   -2.4121651898
 H    3.2341877481   -4.0419791834   -1.3104103019