16

 C   -0.0500531609    1.3866881764    0.1602297456
 C   -0.0133783491   -0.1115983277   -0.0125389417
 O   -0.0662988234   -0.9078088423    0.8915164531
 C    0.0671700693   -0.6097094888   -1.4761979551
 O    0.4869747272   -1.9536666519   -1.5707525376
 C   -0.6749062989   -2.7409988870   -1.6046837469
 O   -1.7043307461   -1.9268816252   -2.1834815993
 C   -1.3290588707   -0.6260204490   -2.0853420590
 N   -2.0014734150    0.3877685709   -2.4144176779
 H    0.9214787907    1.8113478289   -0.1203069708
 H   -0.7975209877    1.8169594248   -0.5149791539
 H   -0.2708119172    1.6393382262    1.1977241318
 H    0.7412137955    0.0225231141   -2.0599060691
 H   -0.5069569948   -3.6080176187   -2.2484284470
 H   -0.9898587669   -3.0424742962   -0.5986784928
 H   -2.9190501120    0.1248337453   -2.7755609393