18

 C    0.0067678819    1.6259770309    0.0082884657
 C    0.1258777512    0.1010935770    0.0260698883
 C    0.8579234436   -0.5223344682   -1.1939519029
 O    1.8329557234    0.4086771319   -1.6369579316
 C    1.5239916581   -1.8090084863   -0.6390054117
 C    1.6699212842   -1.5217282361    0.8295556075
 C    0.9126369135   -0.4809017862    1.1987351988
 C    0.7845777444    0.0144846909    2.5243102195
 N    0.6523204773    0.4428741980    3.5929211837
 H    0.9901813197    2.0955719850   -0.0427482244
 H   -0.5716455966    1.9559974862   -0.8593980012
 H   -0.5030032517    1.9762814421    0.9104729050
 H   -0.8873048823   -0.3243417538    0.0617077525
 H    0.1486560382   -0.7466535653   -2.0021544841
 H    2.2769113657    0.0347727398   -2.4040262465
 H    0.8880449562   -2.6920113706   -0.7965819001
 H    2.4787145436   -2.0161163594   -1.1362255217
 H    2.2861402596   -2.1082034157    1.5001769333