17

 C   -0.5050731285    1.3709197291   -0.0691930152
 C    0.0699911408   -0.0250955170    0.0212393826
 O    1.2239286015   -0.2297343832   -0.8977947525
 C    2.0852782689   -0.3302471000    0.2301583482
 C    2.8349681283    0.7709881793    0.9996200025
 C    2.2178838023   -0.1233773927    2.1029104244
 C    2.4196472498   -1.4617652483    1.2600349244
 O    1.0616023935   -1.9135621248    1.3834425303
 C    0.9431551259   -0.4506442889    1.2345596080
 H    0.2389061555    2.1368973084    0.1597897635
 H   -0.8786850282    1.5498629638   -1.0818450562
 H   -1.3398190262    1.4732524519    0.6318095520
 H   -0.6866066873   -0.7901426037   -0.1740892368
 H    3.9255212220    0.7880029508    0.9308986290
 H    2.4289558105    1.7817451387    0.9264865801
 H    2.2986387772   -0.0285865821    3.1870284769
 H    3.2274452740   -2.1962565513    1.3347936688