23

 C   -0.2028583278    1.5522286711   -0.0627142859
 C   -0.0976930023    0.0277004486   -0.1696342008
 C    0.9599254278   -0.4751346006   -1.1723823404
 C    2.3922356137   -0.0965964526   -0.7664788730
 C    0.8417353892   -1.9793774794   -1.3428046079
 C   -0.1900383051   -2.5871298269   -2.2455253019
 C    1.2832294328   -2.6791175604   -2.6256668943
 C    1.7897335473   -1.9373710240   -3.7430302644
 C    2.2278669879   -1.3264267059   -4.6832160983
 H    0.7169284911    2.0026890283    0.3225666102
 H   -0.4085462561    2.0028667503   -1.0403902363
 H   -1.0150902412    1.8405395555    0.6120774616
 H    0.1186253368   -0.3960686111    0.8211412430
 H   -1.0735709033   -0.3772663272   -0.4647363292
 H    0.7503774870   -0.0126240175   -2.1463129812
 H    2.6525781334   -0.5385752068    0.2032553543
 H    3.1105246335   -0.4581509876   -1.5075838046
 H    2.5165432273    0.9866713750   -0.6823847381
 H    1.0680840729   -2.5434833032   -0.4397658618
 H   -0.6875676924   -3.5032913704   -1.9474268595
 H   -0.7995364068   -1.9136271602   -2.8384941471
 H    1.7437921812   -3.6539194533   -2.4925604273
 H    2.6100288232   -0.7889893820   -5.5150492169