14

 O   -0.0973582928    1.5322317541   -0.0392508309
 C   -0.0528637011    0.1318874486   -0.0166853698
 C    0.1492596896   -0.5923625385    1.3358964791
 O    1.0076492319   -0.6220400643    2.1599862378
 N   -1.0847893980   -1.3528162771    1.2648142264
 C   -2.1487735363   -0.3075787061    1.2037007597
 C   -1.4166358713   -0.5619166970   -0.0521730930
 C   -1.9780599040   -1.1923571062   -1.1962369956
 C   -2.4435823736   -1.6930503360   -2.1852742131
 H    0.7912105708    1.8621738870    0.1358038860
 H    0.6202933389   -0.2866389340   -0.7781872913
 H   -3.1427489756   -0.7313800229    1.2914640821
 H   -1.9937877279    0.6299339517    1.7299144000
 H   -2.8570452206   -2.1441931292   -3.0535239575