15

 C   -0.0026366800    1.5316360669    0.0300605807
 C   -0.0658431793    0.0368898697    0.0152637908
 C   -1.2177380179   -0.6952736673   -0.0871181357
 O   -2.4287140576   -0.0611240746   -0.1858684806
 C   -1.0837448854   -2.1090388295   -0.0846716448
 N    0.0327674410   -2.7746304228    0.0058826389
 C    1.2267813896   -2.0738488348    0.1116514111
 O    2.3263820066   -2.5766507857    0.2018055156
 N    1.0981266751   -0.6664021641    0.1096196136
 H    0.6040909814    1.9036155659   -0.8034864403
 H   -1.0041606944    1.9523947082   -0.0525284387
 H    0.4540957091    1.8925061560    0.9587457964
 H   -3.1243487883   -0.7230569539   -0.2492622929
 H   -1.9981908620   -2.7064066602   -0.1660541368
 H    1.9754622320   -0.1700884837    0.1872138026