18

 O    0.0719694626    1.3990690223   -0.0261452948
 C    0.0594774160   -0.0119990772   -0.0152603646
 C   -1.3499478412   -0.5624192009   -0.0332908982
 C   -2.3402228229   -0.5105092765   -1.2593993514
 C   -3.0969466497   -1.5228495744   -0.3743423026
 C   -1.7274378148   -2.0877977454    0.0574420230
 O   -3.4700775308   -0.7013936442    0.7841289020
 C   -2.2976396450   -0.0346429195    1.0210272642
 N   -2.0668081684    0.8388755838    1.9031351815
 H   -0.4269088950    1.6712724766    0.7597666856
 H    0.6061512561   -0.3458914534   -0.9042154030
 H    0.5846093032   -0.4204286792    0.8645138674
 H   -2.8368171993    0.4346717896   -1.4840779850
 H   -1.9075967946   -0.9547503802   -2.1576639063
 H   -3.9548426662   -2.1155895417   -0.6808691869
 H   -1.2404938239   -2.6833500093   -0.7170714343
 H   -1.6700210706   -2.5803652947    1.0304177104
 H   -2.8882783154    1.0241345343    2.4795757430