20

 C   -0.0132383049    1.5687581424    0.1621633280
 C   -0.0062961048    0.0452940731    0.0062288497
 C    0.6691566977   -0.4554445092   -1.2838388492
 C    0.8534562177   -1.9848996687   -1.2461504437
 C    1.3236365434   -2.5999649482   -2.5581855880
 O    2.0368677577   -3.5784625122   -2.6369353708
 N    0.8105138527   -1.9812540481   -3.6797342798
 C    0.0326674951   -0.8190316880   -3.6429802447
 C   -0.0784578640   -0.0755925094   -2.5410567261
 H    1.0061117497    1.9703252838    0.1539931471
 H   -0.5690402012    2.0626323219   -0.6412302178
 H   -0.4784977326    1.8614808874    1.1083429466
 H    0.5159809811   -0.3983505395    0.8631145727
 H   -1.0343017131   -0.3386544610    0.0404318208
 H    1.6704907027    0.0061299650   -1.3274027001
 H    1.5545173237   -2.2938222684   -0.4680669024
 H   -0.1141131371   -2.4549842301   -1.0159573040
 H    1.0305617976   -2.4204294887   -4.5605792772
 H   -0.4602481093   -0.5742336114   -4.5766711527
 H   -0.6909034722    0.8170015294   -2.5628453185