16

 N    0.0120336928    1.2577847236    0.0149881656
 C    0.0154617625    0.0022294794   -0.0802792745
 O   -1.1084590400   -0.6873568060    0.2443245341
 C   -1.0841864565   -2.0818909955    0.0426194951
 C   -2.3199311822   -2.7554377162    0.6425651591
 O   -2.4929724956   -3.9403120095   -0.1330119579
 C   -2.2225067947   -3.6218649211   -1.4871420202
 C   -1.2112818341   -2.4805403673   -1.4453577087
 O   -0.6498738128   -1.9519888444   -2.3651356544
 H    0.9248986394    1.6286809381   -0.2398209505
 H    0.8478510890   -0.6369475216   -0.3940160646
 H   -0.1650983041   -2.5317446329    0.4459880785
 H   -2.2059231145   -3.0550109812    1.6848232885
 H   -3.1806862763   -2.0756935838    0.5541224467
 H   -1.8328178074   -4.5052302162   -2.0006331200
 H   -3.1225790455   -3.2787787955   -2.0239114467