15

 C   -0.1281489768    1.3803323474    0.0862153033
 N   -0.0841058803   -0.0689924616   -0.0222490790
 C    0.5592579391   -0.6047518768   -0.9944954876
 C    1.2926015850    0.0255628887   -2.0703431385
 N    1.9400683379   -0.6155000002   -2.9871285490
 O    1.9499378141   -1.9661353164   -2.9564087747
 N    1.2735941931   -2.7203850896   -1.9882922252
 C    0.6043319397   -2.0712923512   -1.0813860940
 N   -0.1114958404   -2.7556262541   -0.1589600873
 H    0.8739510589    1.8295750081    0.1296208674
 H   -0.6615176736    1.8375205320   -0.7589485235
 H   -0.6585856033    1.6531375321    1.0009961808
 H    1.3366991226    1.1043752157   -2.1668661906
 H    0.0424229681   -3.7443387737   -0.0573284830
 H   -0.4374323840   -2.2102377405    0.6242171609