19

 C   -0.0140033346    1.5883736561    0.0503304428
 C    0.0133645049    0.0589517571   -0.0131001674
 C   -1.3914031983   -0.5517915907    0.0093510526
 C   -1.4018316061   -2.0966572444   -0.0321699983
 C   -2.8501441921   -2.6433603875    0.0917048797
 C   -2.9105889020   -4.0951752315    0.2406448620
 N   -2.9497197984   -5.2414790817    0.3765151755
 C   -0.7689042302   -2.5937345180   -1.2585230985
 N   -0.2777030299   -2.9582739512   -2.2388274833
 H    0.9992782863    1.9994823303    0.0341588682
 H   -0.5581050256    2.0102482408   -0.8015394112
 H   -0.5027351748    1.9414051159    0.9651258144
 H    0.5349574953   -0.2644553741   -0.9210826019
 H    0.5917510351   -0.3354124745    0.8324864123
 H   -1.9141452246   -0.2427069228    0.9231257504
 H   -1.9786958457   -0.1700913011   -0.8350538412
 H   -0.8193146739   -2.4777532312    0.8152876841
 H   -3.3215909979   -2.1836437087    0.9667436679
 H   -3.4355346078   -2.3471148527   -0.7849035580