15

 C   -0.0937060433    1.4218785523    0.0362278461
 N   -0.0230336235   -0.0287520672    0.0102355398
 C    0.5839890557   -0.5887832402   -0.9549670589
 N    1.1536430874    0.0036991304   -2.0744580452
 C    0.5833915083   -2.1158983896   -1.0111073430
 O   -0.2884262384   -2.6104578423   -2.0091824774
 C    1.9607325926   -2.6260476127   -1.2178475723
 N    3.0406894111   -2.9813640872   -1.4271336983
 H    0.8845338237    1.9052976190   -0.1220435389
 H   -0.7828697827    1.8060542564   -0.7295719057
 H   -0.4681789013    1.7466298948    1.0095027745
 H    1.2484041804    1.0078515670   -2.0499874141
 H    1.9692876054   -0.4580817970   -2.4553478971
 H    0.2077384175   -2.4709382853   -0.0503378618
 H   -0.1253253031   -2.1086150685   -2.8171029377