16

 C   -0.0730950525    1.4942830396    0.1358863469
 C    0.0203513071   -0.0032273646    0.0463938462
 C   -0.8068361044   -0.9096065117    0.9077490561
 C    0.6838695301   -0.9361219167    1.1282631153
 O    1.4220405962   -1.8859442881    0.3802754274
 C    1.1768993324   -1.5881589020   -0.9244692636
 N    0.4568909589   -0.5783129821   -1.2012485495
 C    1.3284284372   -0.4691063442    2.3631081815
 O    0.7972392023    0.2769716205    3.1539248164
 H    0.8272000792    1.9643358128   -0.2691918406
 H   -0.9328430947    1.8511199884   -0.4400658174
 H   -0.1958551593    1.8049725568    1.1762142791
 H   -1.3531364492   -0.4386592634    1.7179571031
 H   -1.2656102960   -1.7865113428    0.4629650172
 H    1.6389903653   -2.2594661117   -1.6372875730
 H    2.3664392273   -0.8401601506    2.4988555250