19

 C   -0.0458333982    1.7147082666   -0.0410569526
 C    0.0542266247    0.1917384616   -0.0119862737
 O    0.7922360696   -0.1607264060    1.1435304346
 C   -1.3531684013   -0.4786361948    0.0209028458
 C   -2.1558641993   -0.1127048638    1.1787377500
 C   -2.8250584761    0.1940290568    2.1286507296
 C    0.7791448769   -0.3258136607   -1.2534776120
 C    2.2367126522   -0.4606481326   -1.2917680766
 O    1.3947014319   -1.6094462724   -1.0877458023
 H    0.9542345209    2.1550166116   -0.0299696126
 H   -0.5710524842    2.0559805466   -0.9386567543
 H   -0.5938345072    2.0661290556    0.8359370277
 H    1.0384895804   -1.0898552135    1.0335282338
 H   -1.8941298725   -0.2209110669   -0.8992317384
 H   -1.2087329312   -1.5665688637   -0.0021253390
 H   -3.4130846297    0.4586237371    2.9720900107
 H    0.2440949200   -0.2052823811   -2.1963975048
 H    2.7548963971   -0.4368445967   -2.2481884186
 H    2.8165632959   -0.1598695339   -0.4233904873