17

 C   -0.0381866365    1.5728544532    0.3921361686
 C   -0.1769171915    0.0612258684    0.2877081096
 C   -1.3425121684   -0.5326960935   -0.4126600190
 N    0.0024326234   -0.6066448326   -1.0070266256
 C    1.3615005345    2.0345428389    0.1336401731
 N    2.1954468119    2.4064749915    1.0934850553
 N    3.3231615703    2.6955576950    0.3983094664
 C    3.1261271502    2.4932852004   -0.9182386182
 N    1.8946389859    2.0754266742   -1.1279443339
 H   -0.6992504032    2.0481870912   -0.3414680182
 H   -0.3463590411    1.9065875800    1.3875053874
 H    0.2655517218   -0.4849164811    1.1189058382
 H   -1.7535297112   -1.4848409596   -0.0884838807
 H   -2.0726006154    0.1495684857   -0.8425539429
 H    0.1188349293    0.0934205163   -1.7365911263
 H    4.1433176573    3.0200553241    0.8833188003
 H    3.8866901429    2.6632666377   -1.6655200142