19

 C   -0.0599900818    1.4243322417    0.0498828291
 C    0.0625907745   -0.0844678203   -0.0020731645
 C    0.7527451728   -0.6694566812   -1.2066827380
 C    1.4424628931   -0.6599582683    0.1652899056
 C    1.4514678526   -2.2103380889    0.1792421908
 C    0.7564919360   -2.2171621601   -1.2213871132
 C   -0.4667340037   -2.9890377662   -0.6463393513
 C    0.2031009291   -2.9228177659    0.7518326596
 O   -0.1147410249   -3.3119824244    1.8369080929
 H    0.8180626971    1.9070765606   -0.3926161381
 H   -0.9418425265    1.7679167904   -0.5011022746
 H   -0.1490827306    1.7766881664    1.0827844461
 H   -0.7856580445   -0.6037870859    0.4386841449
 H    0.9628329617   -0.0543749215   -2.0743618491
 H    2.2660796493   -0.0514293700    0.5192527540
 H    2.4198090820   -2.6771797435    0.3617333277
 H    1.2580115522   -2.6632555677   -2.0782494807
 H   -1.4598092386   -2.5400661403   -0.7320784733
 H   -0.5254618697   -4.0247165751   -0.9986240981