16

 O    0.2873230255    1.2934316805    0.0066949654
 C    0.1995029545   -0.1074324588    0.1112637901
 C   -0.1030746791   -0.7077472392    1.5014498080
 C   -1.6139376061   -0.2773124366    1.4242924562
 N   -2.1866075993   -1.6439006420    1.6698694220
 C   -0.9403198120   -1.8805447343    0.8723043128
 C   -0.4756149257   -3.2176466128    0.4150009013
 O    0.6193257960   -3.4241522807   -0.0497378368
 C   -1.2306367669   -0.6302359172   -0.0462680366
 H    1.2040373139    1.5513733556    0.1423620677
 H    0.9685869371   -0.6215821505   -0.4748799457
 H    0.5211244124   -0.7801140145    2.3939132883
 H   -2.0771305331    0.6349280169    1.7941133525
 H   -2.0334886334   -1.9145228880    2.6461352188
 H   -1.2319906896   -4.0269836562    0.5225015129
 H   -1.8936056543   -0.6249755421   -0.9100833670