18

 C    0.0030352145    1.4463365758    0.2334103550
 C   -0.0246591465   -0.0463006524    0.0658670087
 C   -1.1357251484   -0.7974106145    0.1746211391
 C   -1.1734436960   -2.2511144150   -0.0626658408
 C   -0.7243755922   -2.7782402006   -1.3987258736
 N    0.0846199697   -2.9948314587   -0.2141248712
 C    1.3231900983   -2.2349033343   -0.0647498159
 C    1.2629663742   -0.7118332388   -0.2329878102
 O    2.2634362076   -0.0877374837   -0.5321532752
 H    0.6707179091    1.7379824486    1.0511099220
 H    0.3984566695    1.9251483456   -0.6681119664
 H   -0.9953139471    1.8415712054    0.4369635986
 H   -2.0825028000   -0.3283287106    0.4365839462
 H   -1.9582565396   -2.7935955052    0.4599346401
 H   -1.1917009325   -3.6687458055   -1.8112082460
 H   -0.4092173262   -2.0358187635   -2.1296194086
 H    1.7111015824   -2.4204351640    0.9459348553
 H    2.0701485031   -2.6261274886   -0.7611190073