15

 O    0.0191206789    1.2920769047    0.0712727830
 N    0.0627210178   -0.1106111413   -0.0394951147
 C   -1.1101534485   -0.6209957132   -0.0034532132
 C   -1.2447222225   -2.1423248297   -0.1108059760
 N   -2.6875977041   -2.3357628866    0.0339904349
 C   -3.3183505383   -1.1530873164    0.1316140820
 C   -2.4631860625   -0.0766567207    0.1314739343
 C   -2.9550939713    1.2938693133    0.2531557904
 O   -4.1386702516    1.5635971838    0.3675219759
 H    0.9514180815    1.5288365288    0.0339462171
 H   -0.8920285364   -2.5155386096   -1.0790960285
 H   -0.6919693919   -2.6626567939    0.6779859248
 H   -3.1478931890   -3.2193452356   -0.0912408705
 H   -4.3961942157   -1.0975665549    0.2102272481
 H   -2.1846040062    2.0822438313    0.2319333524