18

 C   -0.1115889060    1.5096341456    0.0493329995
 C   -0.0463710556   -0.0171778240   -0.0017049656
 C   -1.4119082353   -0.5817705338   -0.3908990854
 C    1.2752125155   -0.6031400954   -0.6116287762
 O    2.0218485203   -0.0481960196    0.5388931111
 C    0.8174990005   -0.6765436414    1.1338330543
 C    1.1680681408   -1.9042589932    0.2587708965
 O    0.2349449270   -2.9294484493    0.0636822863
 H    0.8478211876    1.9441031723    0.3285879329
 H   -0.4085229663    1.9095230101   -0.9269739622
 H   -0.8692136425    1.8328993973    0.7724266791
 H   -1.7182667240   -0.1632887135   -1.3568881449
 H   -1.4301825308   -1.6659163100   -0.4601748381
 H   -2.1635824066   -0.2674812589    0.3425600232
 H    1.7096631522   -0.4548873887   -1.6026896470
 H    0.7062744587   -0.6125959400    2.2179523830
 H    2.1625498549   -2.2916312511    0.5015048247
 H    0.6610393294   -3.6266921566   -0.4436783112