23

 C   -0.5410446123    1.3092369958   -0.2036050721
 C    0.1394726796   -0.0495235861   -0.1855580319
 O    0.3034810857   -0.4491592822    1.1606193877
 C    0.8329228006   -1.7447574749    1.3253131187
 C    2.3310058412   -1.9058091475    0.9413731048
 C    2.8079998473   -2.9333540127    1.9384261214
 C    1.9396197705   -3.1016452578    2.9348347638
 C    0.7344737443   -2.1954668303    2.8117926134
 C    0.7767027370   -1.0346703993    3.8206766856
 H    0.0665266792    2.0489996329    0.3254986705
 H   -0.6856072052    1.6509370367   -1.2329682982
 H   -1.5172928129    1.2552843141    0.2864828904
 H   -0.4677443087   -0.7942846967   -0.7283108138
 H    1.1138531767    0.0042253986   -0.6969793834
 H    0.2507247071   -2.4542906582    0.7140794457
 H    2.4710618260   -2.2180093366   -0.0993725084
 H    2.8613312668   -0.9503570884    1.0612629861
 H    3.7600147825   -3.4443330199    1.8431718790
 H    2.0790768866   -3.7648142412    3.7821761526
 H   -0.2006330565   -2.7463604296    2.9720058252
 H    1.6926245641   -0.4465442868    3.7098597327
 H   -0.0741814571   -0.3652222344    3.6758735217
 H    0.7470680374   -1.4216497255    4.8445925983