23

 C   -0.1926896254    1.3160858911   -0.3010830256
 O   -0.0524532989   -0.0605749575   -0.0473563780
 C   -1.2836464671   -0.7517978228   -0.0447359872
 C   -1.0305700716   -2.2442825473    0.2049574881
 C   -0.3027343906   -2.4549477091    1.5357641126
 C   -2.3871165245   -3.0050455323    0.1107796467
 C   -2.3277755899   -3.7230596493   -1.2592046849
 O   -1.2504899111   -3.1303435470   -1.9710998209
 C   -0.2621428033   -2.8361126744   -0.9987474785
 H    0.8077100032    1.7558142827   -0.2912347168
 H   -0.6554924923    1.5056238874   -1.2824319031
 H   -0.8063906421    1.8127089048    0.4673935736
 H   -1.9468009601   -0.3473228993    0.7401314598
 H   -1.7964395594   -0.6230298590   -1.0123714453
 H   -0.8961979673   -2.0703778572    2.3726741366
 H   -0.1185903075   -3.5191589825    1.7164000389
 H    0.6563736114   -1.9307765710    1.5416155722
 H   -2.5009286837   -3.7178728571    0.9316358802
 H   -3.2326655749   -2.3121055455    0.1656780199
 H   -2.1462243250   -4.8011849088   -1.1218584229
 H   -3.2329483835   -3.6052406944   -1.8605216191
 H    0.4524030657   -2.1342493764   -1.4327002120
 H    0.2751442580   -3.7514132251   -0.6970256741