16

 C   -0.0285416223    1.4123000809    0.0955868884
 C    1.4315173785    1.9393571765    0.0034790625
 N    2.3136166157    1.4113207037    1.0494739382
 C    1.9766649026    0.0918737214    1.3667016091
 C    0.9310018781   -0.5749530768    0.8147716586
 N   -0.1138037971   -0.0574910607    0.0589287065
 O    0.9463936215   -1.8590057049    1.2938548413
 C    2.0220043691   -1.8746452593    2.1257664527
 N    2.6676802561   -0.7562071124    2.2178439639
 H   -0.4754461144    1.7528168322    1.0369123487
 H   -0.6260168260    1.8179360280   -0.7246893528
 H    1.8415906722    1.6502903544   -0.9732082389
 H    1.4389941159    3.0316125359    0.0496091265
 H    2.3829859917    2.0088663728    1.8643313260
 H   -0.1490009461   -0.4177412425   -0.8897549960
 H    2.2426842746   -2.8141088591    2.6062933653