16

 C   -0.0026361457    1.4535861411    0.0289890575
 C    0.0158848656   -0.0020378765    0.0344180480
 C    0.0296408075   -1.2074481836    0.0461770780
 C    0.0609382105   -2.6494580028    0.0188580325
 C    1.2203529393   -3.2717628401   -0.7362690760
 C   -0.5540577428   -3.3758444740    1.1728667092
 N   -1.2327129110   -3.3683010422   -0.1296601136
 H    0.9140540275    1.8573539214   -0.4148359753
 H   -0.8476983645    1.8404108830   -0.5515603537
 H   -0.0844163237    1.8576884761    1.0441974257
 H    2.1749166945   -2.9883897810   -0.2823117924
 H    1.1300288072   -4.3607153859   -0.7253688164
 H    1.2241232764   -2.9369604890   -1.7778803165
 H   -0.1418140264   -4.3373988415    1.4680689821
 H   -0.9638177501   -2.7829832150    1.9850267897
 H   -1.9921456642   -2.6919313098   -0.1135435688