18

 C    0.0431617480    1.5180440511    0.1101937059
 C    0.0088957766    0.0219095071    0.0168707484
 C    0.7957916635   -0.7117320926   -1.0953201980
 C    0.5888473709   -2.1714784182   -0.5833883629
 C   -0.2551980306   -1.8197476019    0.6561171835
 O    0.4642478665   -0.6877075015    1.2169957998
 C   -1.3119416457   -0.8279456107    0.0894748908
 C   -2.2791940244   -0.3494609936    1.0589938349
 N   -3.0692952354    0.0401118747    1.8077818618
 H    1.0715604838    1.8557538966    0.2725778409
 H   -0.3213454252    1.9666844084   -0.8193337285
 H   -0.5754463402    1.8731822799    0.9379246629
 H    0.3873598615   -0.5326512708   -2.0932881211
 H    1.8431774081   -0.4035547872   -1.0869679942
 H    0.0650433623   -2.8186320614   -1.2914916623
 H    1.5227441862   -2.6548601441   -0.2918896041
 H   -0.5127843831   -2.5911339065    1.3795035121
 H   -1.8058191127   -1.0861340293   -0.8513029401