17

 N    0.1061442302    1.4139414045    0.1643876307
 C   -0.0438524523    0.0261495588    0.0583348853
 C   -1.1430473120   -0.8022014490    0.0566850125
 N   -2.5633208943   -0.7304560933    0.0096395602
 C   -2.9512408917   -2.1264831339   -0.3757300938
 C   -1.7600422785   -3.0931148798   -0.0464354813
 C   -0.6289795717   -2.1063671551   -0.0075466841
 N    0.6911444949   -2.1514248735   -0.0368238111
 N    1.0301299213   -0.8242339607    0.0220066133
 H    0.7867320356    1.7850537727   -0.4898509654
 H   -0.7797107580    1.8772343900    0.0006764341
 H   -2.9458529024   -0.5150489523    0.9268167729
 H   -3.8846122123   -2.4080849186    0.1173913472
 H   -3.1285547029   -2.1365630860   -1.4567468131
 H   -1.8912194752   -3.5918576741    0.9225563754
 H   -1.6537625768   -3.8727943452   -0.8048185300
 H    2.0018504261   -0.5726415144    0.0735479772