17

 C    0.0146665056    1.5337151006   -0.2577960281
 C   -0.0163570461    0.0300750816    0.0580465007
 C   -1.4148679436   -0.5330630844    0.0573215268
 C   -1.8545230612   -1.4500133233   -0.8929666155
 N   -3.0993897373   -1.9419626430   -0.9041786222
 C   -3.9110452740   -1.5100844080    0.0466465039
 O   -5.1748985621   -1.9748024509    0.0810334140
 C   -3.4916496042   -0.5865500192    1.0178914793
 N   -2.2586070241   -0.1084666152    1.0166984570
 H    1.0354090757    1.9232399881   -0.1998254778
 H   -0.3689525789    1.7331612797   -1.2637268238
 H   -0.6059412309    2.0825388054    0.4556331969
 H    0.5960279026   -0.5194756613   -0.6652708784
 H    0.4272493575   -0.1386545431    1.0461915868
 H   -1.1867695899   -1.8063591077   -1.6733332985
 H   -5.2596172108   -2.5908170124   -0.6602608578
 H   -4.1775712384   -0.2512385567    1.7905695866