17

 O    0.0037946627    1.3613180596   -0.4298393614
 C    0.0166436333    0.0394865034    0.0805089762
 C   -1.3707840418   -0.5515291462   -0.1370414398
 C   -1.4679782786   -2.0058416597    0.3546388779
 C   -2.8259525589   -2.5974946612    0.1470316060
 N   -3.6116223543   -2.9218363276    1.1406668273
 O   -4.7567915482   -3.4137549546    0.5775734422
 N   -4.6863100123   -3.3973649740   -0.7855479455
 C   -3.5146469391   -2.9011566269   -1.0657671735
 H    0.8659695998    1.7563115387   -0.2710525375
 H    0.7698810765   -0.5819992474   -0.4323846351
 H    0.2611158117    0.0246731531    1.1552779663
 H   -2.1071153811    0.0684299305    0.3852623121
 H   -1.6094430316   -0.4926777659   -1.2053604666
 H   -0.7262303548   -2.6214757951   -0.1698926873
 H   -1.2331404296   -2.0624828708    1.4218542632
 H   -3.1961043638   -2.7773838557   -2.0893499748