16

 C   -0.0392161406    1.4266093354    0.0327059085
 N   -0.0856794983   -0.0305839949   -0.0442498241
 C    0.6024446294   -0.6399467025   -1.0547341673
 N    1.1742514766   -0.0164328410   -2.0426147600
 O    1.6645326294   -1.0686606561   -2.8840952471
 C    1.3795991945   -2.2782819551   -2.3405683633
 O    1.6593262394   -3.3505877619   -2.8039714158
 N    0.7004444796   -2.0055405094   -1.1560217287
 C    0.1433549366   -3.0264866430   -0.2972351897
 H    0.9714036573    1.8106826040    0.2191215407
 H   -0.3882084410    1.8413593755   -0.9149878504
 H   -0.7071555689    1.7534559456    0.8314850176
 H   -0.0362001843   -0.5099070513    0.8429569355
 H    0.3222804306   -3.9830220399   -0.7916857774
 H    0.6330057285   -3.0408625838    0.6829135558
 H   -0.9324854790   -2.8788940415   -0.1633033543