19

 C   -0.2972886295    1.5115294489   -0.1145309409
 C    0.0108938006    0.0202419264   -0.0719393636
 C    1.3363910257   -0.4428738572   -0.7199028990
 O    1.8393743741   -0.9370947336    0.5409735182
 C    0.6149623180   -0.6015794858    1.2186978386
 C    0.8459936997    0.3033954825    2.4393410080
 O   -0.4092869739    0.7182916185    2.9777856025
 C    1.6765825696   -0.3689938812    3.4377321266
 C    2.3058261855   -0.9592753319    4.2747203647
 H    0.5788722717    2.1153799115    0.1440959883
 H   -0.6075798183    1.8042925483   -1.1231379980
 H   -1.0991984979    1.7683273240    0.5820638642
 H   -0.8563422765   -0.5441481088   -0.4232141349
 H    1.2517668288   -1.2426065963   -1.4657486344
 H    1.9698643656    0.3563753556   -1.1255116223
 H    0.0887782747   -1.5045034027    1.5626779095
 H    1.3464454713    1.2207099545    2.1124835374
 H   -0.7456884431   -0.0060654543    3.5170077508
 H    2.8820825437   -1.4669572084    5.0084585443