17

 O   -0.0920370604    0.0238226583    0.3547112894
 C   -0.0856682957    1.2012092305    0.0840088345
 C   -1.2893562103    2.0964259445   -0.1653085451
 N   -1.4734313802    2.9362899833    1.0531387139
 C   -0.8248714111    3.5098170679   -0.1336477785
 C    0.6915720182    3.4638632781   -0.0559975481
 C    1.4896002539    3.7099257181    1.2603165742
 C    1.9658725927    2.2294968746    1.1659113608
 N    1.0286534732    2.0268947043    0.0312881381
 H   -2.1527597913    1.7386396895   -0.7118149585
 H   -2.4425269002    3.2439595759    1.0906894991
 H   -1.3232018254    4.2904243318   -0.6973126937
 H    1.1353975605    3.9403164033   -0.9377473841
 H    2.2661939539    4.4745360975    1.2139389646
 H    0.8328418786    3.8889490229    2.1122438360
 H    3.0115656103    2.1026287919    0.8718445710
 H    1.7475269533    1.5811305977    2.0174697666