19

 C    0.0264411054    1.5594621966   -0.0228696008
 C   -0.0063631477    0.0218267291    0.0269715478
 C   -1.4113349853   -0.5326884990    0.0188681860
 C   -2.0735803431   -0.8400047778    1.2105760421
 N   -3.3242010610   -1.3023468547    1.2638075364
 C   -3.9742637922   -1.4797459290    0.1186887601
 C   -3.4196175249   -1.2115106470   -1.1427921288
 N   -4.1712204185   -1.3686035280   -2.3059993159
 C   -2.1079447059   -0.7304827300   -1.1708275667
 H    1.0567490613    1.9289085922   -0.0150753177
 H   -0.4623323596    1.9338095398   -0.9280709657
 H   -0.4967532659    1.9886705165    0.8371748355
 H    0.5520317335   -0.3799557590   -0.8267946573
 H    0.5124132354   -0.3215112486    0.9290465833
 H   -1.5649152445   -0.7115866707    2.1637979259
 H   -4.9935376327   -1.8587892267    0.1875609776
 H   -4.9394932856   -2.0193947558   -2.2276488223
 H   -3.6320423603   -1.5337740917   -3.1435460073
 H   -1.6328961684   -0.5114121962   -2.1246685924