18

 C    0.0049149341    1.3752151727   -0.0184233348
 O   -0.0115404608   -0.0451191498    0.0352252789
 C    0.5803054606   -0.6729176693   -1.0018727347
 N    0.6237364912   -1.9277792241   -1.0552453920
 C    1.2792060644   -2.5361304671   -2.2057929728
 C    2.4678637858   -3.3731290778   -1.7182269234
 C    0.2611115853   -3.3975714883   -2.9624649062
 H    1.0295933460    1.7671749927   -0.0187781497
 H   -0.5249868088    1.7518874223   -0.9021178673
 H   -0.5083941270    1.7228828469    0.8788838385
 H    1.0021871486    0.0042684639   -1.7626392631
 H    1.6608837362   -1.7625287778   -2.8979149485
 H    2.1267017823   -4.1443494653   -1.0207545039
 H    2.9693601845   -3.8609030467   -2.5604541134
 H    3.1981831589   -2.7466487583   -1.1975671889
 H   -0.5728110427   -2.7884353538   -3.3236546072
 H    0.7303576502   -3.8856382065   -3.8229128568
 H   -0.1460745089   -4.1695794137   -2.3022801846