19

 C    0.0179082406    1.4690299321   -0.1032079050
 C    0.0046617267    0.0145243015   -0.0269280798
 C    0.0296185623   -1.1897232028    0.0238853845
 C   -0.0232507165   -2.6460752057    0.1103269338
 C   -1.4748532301   -3.1578447064    0.0702366173
 O   -2.2463163464   -2.6035909842    1.1007258931
 C   -2.0905824686   -3.1899501699   -1.3545592591
 O   -1.8812469714   -4.6166918005   -1.4335327115
 C   -1.5899897916   -4.6904344124   -0.0228188236
 H    0.8461736855    1.8221159802   -0.7270978455
 H   -0.9107852466    1.8541207621   -0.5380585248
 H    0.1332789307    1.9200900757    0.8882960974
 H    0.5432716351   -3.1050683418   -0.7086838608
 H    0.4373791252   -2.9831320763    1.0479779983
 H   -2.0353567071   -1.6614953436    1.1441004373
 H   -3.1560714001   -2.9266944643   -1.3532842597
 H   -1.5710832816   -2.6479205076   -2.1524317324
 H   -0.6906828072   -5.2811606084    0.1871425694
 H   -2.4345556187   -5.0790981478    0.5600213612