16

 C   -0.0236073580    1.4986664580    0.0292280607
 C    0.0198002056   -0.0008032979   -0.0464141983
 C    0.2595073343   -0.7937305168   -1.3280664114
 C    0.1661987511   -2.1688567278   -0.6347269491
 O    1.1261978701   -2.0716097988    0.4127133669
 C    0.6170983955   -0.9038947391    1.0320515225
 C   -0.8716923384   -0.9338920155    0.7721298502
 O   -1.0948384307   -2.1163908011    0.0249886031
 H    0.9239419501    1.9414147067   -0.2977640258
 H   -0.8208997078    1.9062681406   -0.6024241358
 H   -0.2093290179    1.8391795557    1.0536033387
 H   -0.5240830201   -0.6557425809   -2.0767322414
 H    1.2443059718   -0.6200940464   -1.7680390611
 H    0.2829231098   -3.0909517421   -1.1968662683
 H    1.1249498617   -0.5953411274    1.9340508265
 H   -1.6666914270   -0.6515859273    1.4466673425