19

 O   -0.2862305294   -0.0018649305   -0.1802191874
 C   -0.0225644006    1.1682884343   -0.0822109999
 C    1.3568560566    1.7668686948   -0.2094205079
 C    1.3999386550    2.8812529246   -1.2598411538
 C    2.6300811990    3.7760410459   -1.1360829147
 O    3.3859344931    3.6956969478   -0.1899154998
 C    2.8374909227    4.7622226561   -2.2328639245
 C    3.4885040389    6.0894946877   -1.8676222559
 C    4.2770042399    5.0784804112   -2.6225606394
 H   -0.8247149820    1.9193074233    0.1210262841
 H    1.6357423371    2.2028707580    0.7591194191
 H    2.0742371141    0.9737804968   -0.4326299898
 H    1.3565315768    2.4741527061   -2.2775484187
 H    0.5190357882    3.5362764214   -1.1729074123
 H    2.0952586991    4.7687656838   -3.0231646601
 H    3.1295128338    6.9714991109   -2.3850319924
 H    3.7202593363    6.2204582084   -0.8170050971
 H    5.0382146766    4.5304687732   -2.0795258663
 H    4.4759344648    5.2427177561   -3.6751514834