18

 C    0.3423711735    1.5372909195   -0.2918179933
 C   -0.3899384699    0.3892316295    0.3963718684
 N    0.3257350140   -0.0321044265    1.5968301460
 C   -0.1596103417   -0.9804758777    2.2764264786
 C    0.4506789552   -1.5436497352    3.5467725210
 O   -0.4402651983   -2.5913015976    3.9579868797
 C   -1.4794204172   -2.6957759478    3.0808430632
 N   -2.4451496878   -3.5051635525    3.1292284565
 N   -1.3018604692   -1.7390061908    2.0921660755
 H    1.3528442535    1.2296538048   -0.5757162006
 H   -0.1901138683    1.8576183384   -1.1927658657
 H    0.4301131932    2.3932156452    0.3834403100
 H   -1.4145098135    0.7070083738    0.6518010579
 H   -0.4928729888   -0.4549168115   -0.3057158055
 H    1.4466016908   -1.9593439176    3.3681537692
 H    0.5156697659   -0.7882023434    4.3351501112
 H   -2.3635999753   -4.1110568891    3.9425766897
 H   -1.9629920560   -1.6441145815    1.3410677281