17

 O    0.7752127327   -0.4144206481    0.6976684862
 C   -0.0460186157    0.3334297923   -0.1927256597
 C   -1.4640164829   -0.0797966103    0.0390029633
 C   -2.6756755195    0.5216730511   -0.2326289979
 C   -3.6451474985   -0.4246367240    0.1733798476
 C   -5.1335711750   -0.2836530100    0.1351256245
 O   -5.4942027437    0.3532700453   -1.0860885204
 N   -3.0804561069   -1.5266611277    0.6631555638
 N   -1.7577793756   -1.2930891488    0.5649738444
 H    1.6905094345   -0.3088189201    0.4236948607
 H    0.0541261836    1.4163359479   -0.0278606976
 H    0.2376238146    0.1374159195   -1.2391723779
 H   -2.8474433716    1.4897543066   -0.6732048928
 H   -5.5836325537   -1.2817465034    0.2323579533
 H   -5.4740920240    0.3155825473    0.9957864386
 H   -6.4354911556    0.5466889940   -1.0476282323
 H   -1.0910932626   -1.9578895417    0.9192438360