18

 C   -0.1041213234    1.5016815952    0.0074143607
 C    0.0419886864    0.0037551302    0.0001735380
 N   -0.4857700291   -0.8078790422    1.1103288620
 C    0.9872731307   -0.7431206277    0.8746264987
 C    1.5473764757   -1.9066325617    0.0774785873
 O    2.5039733185   -2.5681632581    0.3997821757
 C    0.8556779870   -1.9517647787   -1.2610109627
 C   -0.6593852990   -2.0936905045   -1.3439809622
 C   -0.0443033596   -0.7298740439   -1.3469077191
 H    0.6060517742    1.9686927965   -0.6832107025
 H   -1.1133256692    1.7985333686   -0.3003030034
 H    0.0802588891    1.9103018936    1.0062744554
 H   -0.7001737861   -0.2024086462    1.9010401378
 H    1.6240281993   -0.2838050028    1.6229674514
 H    1.4480986292   -2.3163909684   -2.0913297574
 H   -1.0289667195   -2.4780776998   -2.2884245698
 H   -1.2065749667   -2.4048170565   -0.4648025787
 H   -0.0751340176   -0.1201053035   -2.2422676211