15

 O    0.0768215970    1.3284137241    0.1975595008
 C    0.0670600186   -0.0143240146   -0.0042290047
 C    0.0795682751   -0.7759446575   -1.1550065376
 C    0.0580703214   -2.1249888921   -0.6823416058
 C    0.0338251038   -2.1301587169    0.7088104733
 N    0.0396924997   -0.8050141474    1.1192206066
 C    0.0124912252   -3.4709190992    1.1708301762
 C    0.0246189092   -4.2502317737    0.0302064441
 N    0.0519245741   -3.4357991813   -1.0913402265
 H    0.0962343430    1.7631101725   -0.6599652842
 H    0.1007738568   -0.4016161974   -2.1663505669
 H    0.0270571366   -0.4455215281    2.0565099832
 H   -0.0088894377   -3.8386207192    2.1846043745
 H    0.0157673385   -5.3229307048   -0.0742439536
 H    0.0663722988   -3.7652296643   -2.0390546895