19

 C    0.0027914642    1.5216618989   -0.0002504725
 C    1.3018673473    0.7500855238   -0.0056498650
 C   -0.0133333919    0.0158539280    0.0155980165
 C   -0.4737972057   -0.7829441421    1.2488394241
 C   -1.5013954232   -1.7400952025    0.6530902706
 O   -2.5696962276   -0.9319084916    0.0509327716
 C   -1.9665292521   -1.1294932984   -1.2272794503
 C   -0.9785830025   -2.1430538749   -0.7483828093
 C   -0.4870939299   -0.7751747643   -1.1838692106
 H   -0.2781481903    2.0465330559    0.9069696346
 H   -0.2981013940    2.0240721094   -0.9139552338
 H    1.8883688345    0.7348622283   -0.9189934605
 H    1.8981971372    0.7466627815    0.9016532036
 H    0.3542594275   -1.3489227681    1.6953635815
 H   -0.9179053495   -0.1524427697    2.0246960925
 H   -1.9060396195   -2.5062625459    1.3162060020
 H   -2.5992168829   -1.0712121905   -2.1054321111
 H   -0.6697226671   -3.1130493576   -1.1117682465
 H    0.0208694056   -0.6773328403   -2.1375384973