15

 N   -0.1292352481   -0.4387817424   -1.2523164387
 C    0.0401729710    0.3483222541   -0.4213990235
 C    0.2969333028    1.4014576058    0.5783428517
 N    1.4299724768    2.2775244350    0.3379113739
 C    1.7598799496    2.6653644901   -0.8285716355
 C    2.8948464816    3.6433267763   -1.1236887314
 N    2.9536720956    3.7872402730   -2.5831766431
 C    2.0223049600    3.0465852590   -3.0379103322
 N    1.2486745341    2.3779652070   -2.0897121636
 H   -0.6257237293    1.9918616456    0.6786749735
 H    0.4449406518    0.9064010930    1.5443387960
 H    2.7083281392    4.6124060065   -0.6485057870
 H    3.8482674550    3.2737057528   -0.7325396975
 H    1.7933768444    2.9195335497   -4.0908656034
 H    0.5936142556    1.6401539746   -2.2964175591