13

 N   -0.0039886317   -1.1207365983    0.1813388876
 C    0.0155457792    0.0232858931    0.0276719259
 C    0.0421751987    1.4695373050   -0.1947305840
 N    1.3824975070    1.9945345942    0.0034047190
 C    1.5615247528    3.3470124317   -0.0004479484
 N    0.5708104432    4.2094961349    0.0717273723
 O    1.2483256009    5.4489138602    0.0997574327
 C    2.5430954346    5.1645196864    0.0224233337
 N    2.8243515618    3.9029566875   -0.0445953446
 H   -0.3568370947    1.6824194266   -1.1981481376
 H   -0.6319805472    1.9573679099    0.5175573059
 H    2.1512770817    1.4632708379   -0.3762506901
 H    3.2320290837    5.9968938208    0.0230764676