22

 C    0.1288541647    1.5529173848   -0.0061717086
 C   -0.0170846768    0.0377184021    0.1528687326
 C   -1.4157515315   -0.4585515371   -0.2191354045
 N   -1.4823218256   -1.9127118707   -0.0965072669
 C   -1.9438454927   -2.4851477488    1.1462855614
 C   -2.7950463024   -2.5883291078   -0.0943525026
 C   -4.1153425864   -1.8562224588   -0.1921395230
 C   -2.7296991880   -3.8941573558   -0.8242870006
 O   -3.6760490492   -4.4407133657   -1.3329399370
 H    1.1345077428    1.8831454358    0.2698961764
 H   -0.0498944370    1.8634197497   -1.0416000110
 H   -0.5833329868    2.0927174726    0.6280046511
 H    0.7157433987   -0.4847318030   -0.4717694774
 H    0.1983028727   -0.2512356671    1.1893336692
 H   -2.1636855892    0.0575620726    0.4052767188
 H   -1.6349814086   -0.2005777638   -1.2623402824
 H   -1.3913902659   -3.3432847363    1.5227891096
 H   -2.3297661529   -1.8175450695    1.9171307601
 H   -4.1685517409   -1.0037072250    0.4868329906
 H   -4.2912501962   -1.5018570387   -1.2128766682
 H   -4.9270555329   -2.5460332770    0.0521150175
 H   -1.7051302760   -4.3261739122   -0.8595160550