18

 C   -0.0411536483    1.4624698026    0.0495484816
 C   -0.0160511551    0.0080497703    0.0107990527
 C   -0.0095504595   -1.1961393109   -0.0194611034
 C    0.0451269478   -2.6307314104   -0.0567889022
 C   -0.4848226612   -3.4200713652   -1.2196551052
 N   -1.2202980484   -3.4366366734    0.0409019863
 C   -0.9124404762   -4.5911652947    0.9144316277
 C    0.5521734741   -4.4719792326    1.2723941809
 C    1.0735754225   -3.3645077401    0.7500025211
 H    0.6869413723    1.8529288934    0.7691602813
 H    0.1943449209    1.8949541963   -0.9293428983
 H   -1.0292136003    1.8315621274    0.3463286413
 H   -0.9948088522   -2.9009444645   -2.0264958397
 H    0.0856890600   -4.2995795404   -1.5130804265
 H   -1.5547757913   -4.5495879810    1.8039942476
 H   -1.1509660699   -5.5277476661    0.3937845465
 H    1.0829931699   -5.2110751726    1.8608528475
 H    2.0881773848   -3.0043109783    0.8586169708