15

 C   -0.0513167378    1.4983383974   -0.0033903512
 C   -0.0100320426   -0.0035362224   -0.0127848849
 N   -0.0057131183   -0.6208034496   -1.1510115407
 C    0.0169027613   -2.0211897236   -1.1813560793
 O    0.0237982917   -2.6813225684   -2.1969041033
 N    0.0278342494   -2.6283562412    0.0715931633
 N    0.0490796835   -2.0253989100    1.2734977266
 C    0.0182484823   -0.7262636393    1.2520373070
 N   -0.0719148354   -0.0396320834    2.4591806606
 H    0.8667673859    1.9128234031    0.4333891227
 H   -0.1478598656    1.8657697884   -1.0246419295
 H   -0.8886034176    1.8568369591    0.6050337613
 H    0.0395756440   -3.6380213592    0.0945707432
 H    0.0831375538   -0.6451102097    3.2552244655
 H    0.4833616256    0.8026119688    2.5155192688