25

 C   -1.4991943226   -0.8226572336    2.7664391594
 C   -1.0736014862   -1.8742910641    1.7365842473
 C    0.0421279525   -1.4945246382    0.7617436021
 C    0.1332008706   -0.0793082648    0.2245607730
 C    1.1440511181   -0.5664850699    1.2306128888
 C    0.4963220635   -2.5922587585   -0.1890155028
 C   -0.2032060075   -3.9255582260   -0.3435769375
 C   -0.2089246423   -2.9442948490   -1.4875784320
 C   -1.4907890178   -2.2702742630   -1.9247031305
 H   -0.6837265124   -0.5536192882    3.4443218399
 H   -1.8646061330    0.0957359217    2.2962866010
 H   -2.3140225011   -1.2165904235    3.3817923376
 H   -0.7590828479   -2.7799335072    2.2711274344
 H   -1.9638628037   -2.1647376174    1.1637663730
 H    0.4543910523    0.0404225906   -0.8044216898
 H   -0.5923413761    0.6580846627    0.5493821631
 H    1.0980340918   -0.1584483078    2.2334503645
 H    2.1532375073   -0.7698023783    0.8869026176
 H    1.5791040303   -2.6592903568   -0.2584351135
 H    0.4050753980   -4.8212818771   -0.4132114551
 H   -1.1407075476   -4.0759278481    0.1806327229
 H    0.4579083577   -3.1840446442   -2.3126638761
 H   -2.1404568944   -2.0395284123   -1.0760487043
 H   -1.2903966604   -1.3286768351   -2.4474755255
 H   -2.0560235990   -2.9148771319   -2.6073930275