20

 C    0.1219320409    1.5939900524    0.1172633932
 C    0.1765361407    0.0663900788    0.0541451485
 C    0.5396636025   -0.4572709716   -1.3462014229
 C    0.5668583404   -1.9536363399   -1.4136371797
 N    1.6979857146   -2.7725069384   -0.8390643954
 C    1.3268606125   -2.9555221532   -2.2487824292
 C    0.1764454453   -3.9706933987   -2.2352604717
 C   -0.6155792238   -2.9037518018   -1.4227240381
 O   -1.7679782847   -2.7804333182   -1.1228222891
 H    1.0884732428    2.0389158262   -0.1458905614
 H   -0.6254484739    1.9927389899   -0.5776263611
 H   -0.1406481779    1.9393995588    1.1216250719
 H    0.9060439098   -0.3121658839    0.7805022305
 H   -0.7922047033   -0.3568384078    0.3420523743
 H   -0.1930332918   -0.0828321974   -2.0728402395
 H    1.5161540948   -0.0596362372   -1.6566546208
 H    2.4950754264   -2.1340215976   -0.8071563918
 H    2.0172048987   -2.7509771180   -3.0568563409
 H   -0.2996985818   -4.1411724602   -3.2049736705
 H    0.3867761778   -4.9219162924   -1.7423740365