22

 C    0.6124361459    1.6944622038    0.0027178338
 C    0.1127156986    0.2464507361    0.1195239807
 C    0.5278433252   -0.6317750686   -1.0844228745
 C    1.9508291139   -1.1521315702   -0.7481855942
 C    2.1246888705   -1.0029990430    0.7821899875
 O    3.1638327323   -0.0472086099    1.0013103148
 C    0.7630194363   -0.5102605546    1.2745483104
 C    0.4634670922   -0.2597200085    2.7013955844
 N   -0.0146155745   -1.4962238327    2.0502696934
 H    1.7019284704    1.7287844183   -0.0724305046
 H    0.1850753209    2.1795929875   -0.8812286606
 H    0.3217029092    2.2816611098    0.8802954656
 H   -0.9779999772    0.2610967211    0.2396369817
 H   -0.1645127390   -1.4756264305   -1.1729820628
 H    0.4932085045   -0.0866375500   -2.0320237035
 H    2.0869542810   -2.1865101968   -1.0715909589
 H    2.7276689547   -0.5556847151   -1.2325687487
 H    2.3699240189   -1.9530743348    1.2730881939
 H    3.2040716362    0.1300002548    1.9470991510
 H    1.2211118229   -0.4139102412    3.4674854799
 H   -0.2577282462    0.5173170282    2.9440338089
 H   -1.0046088969   -1.4012607739    1.8321743317