19

 C   -0.1997296185    1.3993120362    0.0965352446
 N   -0.1900709016   -0.0540871420    0.1511807700
 C    0.6119058807   -0.6323768130    0.9306629163
 O    1.4917969523   -0.0057853406    1.7820606101
 C    2.4650202614   -0.9304607163    2.2930171971
 C    1.9790207073   -2.3236216103    1.9199014563
 C    2.9669730874   -3.4471007839    1.7638942950
 N    0.6361503596   -2.5484098697    2.4821628827
 C    0.7870030882   -2.1016623824    1.0641491981
 H    0.7379799322    1.8610645489    0.4279574344
 H   -0.4143605181    1.7145771180   -0.9292763603
 H   -1.0082146471    1.7875119020    0.7286753594
 H    3.4373625196   -0.7142114828    1.8328700845
 H    2.5360476443   -0.7854420752    3.3750511549
 H    3.4368397013   -3.6943227441    2.7227826809
 H    2.4743001639   -4.3504175073    1.3904972224
 H    3.7624470332   -3.1813301314    1.0598520534
 H    0.4394064313   -3.5484026956    2.4706669655
 H    0.4846829425   -2.7507750306    0.2529374947