19

 C   -0.1304472291    1.4702700971    0.0837678064
 C    0.0283364048   -0.0190761061    0.0312276350
 C    0.5327551571   -0.7574421692   -1.2274036939
 C    0.7370303286   -2.0937951465   -0.4849529245
 C    1.8704500585   -1.7283024431    0.5121492832
 C    0.7850072671   -0.8528291460    1.1569595537
 O    0.8799100834   -0.2032402619    2.3751686495
 C   -0.3258053408   -1.8283197221    0.6906938835
 O   -1.2027446700   -0.7762037007    0.2980716475
 H    0.8177161807    1.9641556858   -0.1504882925
 H   -0.8786848143    1.7975801317   -0.6455343971
 H   -0.4487982821    1.7847815114    1.0803955690
 H   -0.2429709417   -0.7736859209   -1.9957985658
 H    1.4629489686   -0.3628894882   -1.6459972966
 H    0.7559921387   -3.0226634549   -1.0493739801
 H    2.1385991488   -2.5631190216    1.1695728955
 H    2.7774559273   -1.2657791333    0.1120745286
 H    1.1478575482   -0.8397312976    3.0461016397
 H   -0.7767277439   -2.6549242240    1.2384598890