18

 C    0.1793245310    1.4514163363   -0.0970593056
 C   -0.0917971116   -0.0418011629    0.0493190067
 C   -1.5816020648   -0.3719766687    0.1281067503
 O    0.4593899674   -0.7047375091   -1.1319681457
 C    1.2110086347   -1.7971679449   -0.8077321872
 N    1.6170289467   -2.6827484947   -1.6108057603
 C    1.4672685319   -1.7817150365    0.6610463143
 O    2.0798072688   -0.5441811546    1.0800819394
 C    0.6699475068   -0.6802076547    1.2066992685
 H    1.2553745226    1.6330846365   -0.1243447630
 H   -0.2682978144    1.8276186662   -1.0207844825
 H   -0.2516898698    2.0022640738    0.7446614854
 H   -2.0882948012   -0.0348398953   -0.7797672664
 H   -1.7392870396   -1.4499983533    0.2295875471
 H   -2.0422141750    0.1277165011    0.9863031297
 H    1.2836873373   -2.4901324941   -2.5574083697
 H    1.7664834955   -2.6803986186    1.1859362681
 H    0.2620527936   -0.6643305665    2.2135411112