18

 C    0.0083044677    1.5659648585   -0.0041916679
 C    0.0563897433    0.0579776174    0.0308847486
 O   -1.0986833387   -0.5748134727   -0.4451580658
 C    1.3348962147   -0.7746472860   -0.2760241610
 C    2.4902479641   -0.1359980639    0.4017546308
 N    3.6585978374    0.1846268358    0.0791623093
 O    1.8370773375   -0.0230813813    1.6346181996
 C    0.6917892961   -0.7541759376    1.1086004731
 C    0.0712844668   -1.7913757540    1.9789012098
 H    0.8893422161    2.0076379819    0.4625245075
 H   -0.0447356560    1.9236255582   -1.0391497127
 H   -0.8828140434    1.9173945635    0.5251211134
 H   -1.2176472694   -0.3252890037   -1.3685750964
 H    1.3476542565   -1.5262483650   -1.0517529935
 H    4.1604894975    0.5883701123    0.8718910880
 H   -0.3215854104   -1.3337206358    2.8933598584
 H   -0.7563055011   -2.2658839913    1.4482357779
 H    0.8031400414   -2.5529369961    2.2631296508