18

 O   -0.5361278163    0.1273742280   -0.2761653523
 C   -0.2179674636    1.1976681483    0.1717563731
 C    1.1428160545    1.8348232394   -0.0170188291
 C    1.5410643905    2.6688178368    1.2142338346
 C    1.7751161459    1.8518422424    2.4053525875
 N    1.9562737473    1.1899503355    3.3350082334
 C    2.2608893678    0.9167789670   -0.5811616352
 C    2.5689990493    1.9712788163   -1.6767486239
 C    1.2328808553    2.6870432390   -1.3418333572
 H   -0.9531096254    1.8258497375    0.7284774409
 H    2.4516942152    3.2386419277    0.9998996063
 H    0.7576868885    3.4030787223    1.4414388691
 H    3.0638297329    0.6545248309    0.1109425310
 H    1.8235989834    0.0002548151   -0.9811176047
 H    3.4416190599    2.5860413552   -1.4420717727
 H    2.6768081702    1.6024383876   -2.6981371394
 H    0.4326095533    2.4331988600   -2.0405372291
 H    1.2537558015    3.7722100811   -1.2120454925