21

 O   -0.1226025964    1.4761241610   -0.0510342808
 C    0.0075431681    0.0655029268    0.0444000940
 C   -1.3918925354   -0.5347869079   -0.0052120655
 C   -1.4045050538   -2.0668560181    0.0105998525
 C   -0.8366675332   -2.7129343473    1.3054313761
 C   -1.5674262747   -4.0682436713    1.4662377096
 C   -2.8986876979   -3.8424495365    0.7779677145
 O   -3.5332916581   -2.6081009448    1.1477130539
 C   -2.7999271103   -2.6626826245   -0.0862096715
 H    0.7540184484    1.8647571005    0.0193149553
 H    0.6123659103   -0.3354828400   -0.7869716020
 H    0.5109314278   -0.2232862577    0.9804479682
 H   -1.9746870970   -0.1569319288    0.8426848324
 H   -1.8836469004   -0.1680603877   -0.9147025745
 H   -0.8405690673   -2.4368953461   -0.8592892425
 H    0.2491840395   -2.8300984443    1.2724107581
 H   -1.0708837403   -2.0688971713    2.1572995922
 H   -1.0356817578   -4.8761449817    0.9479268946
 H   -1.6737485893   -4.3668284902    2.5138027274
 H   -3.5746769606   -4.6693493551    0.5739843714
 H   -3.3961099214   -2.5329071952   -0.9870369035