18

 C    0.3691128089    1.3852360013   -0.1912560045
 O   -0.1100141844    0.0631305261    0.0479624211
 C    0.4574527999   -0.5467938402    1.1448587398
 C    1.8704825140   -1.1449965454    1.0627480476
 C    0.6926372512   -2.0479171213    1.2248628300
 N    0.4431533446   -2.5515619574    2.5685317037
 C    0.2699698141   -1.3726499033    3.4398091086
 C    0.0429569301   -0.1505720202    2.5288490620
 O   -0.4308921019    0.9069577371    2.8668344495
 H    1.4553020668    1.3867717576   -0.3587365330
 H   -0.1324535434    1.7364288892   -1.0953387083
 H    0.1297474087    2.0477544679    0.6455434007
 H    2.3026268216   -1.1000188097    0.0692948825
 H    2.5729438478   -1.0110985907    1.8786983128
 H    0.4092987109   -2.6994898947    0.4074955699
 H   -0.4259328422   -3.0740192666    2.5534815273
 H   -0.5745906834   -1.4908462759    4.1218794129
 H    1.1594292466   -1.1996380140    4.0601132875