16

 N    0.0641605503   -1.1319506116   -0.0565202255
 C   -0.0093788653    0.0239549480   -0.0275622269
 C   -0.0537122877    1.4474794472    0.0150873334
 C   -1.2051275299    2.1358205548    0.0458772809
 C   -1.0748398616    3.6425863017    0.0731028873
 C   -0.0967765416    4.0455732658    1.2044046875
 C    0.9400678798    3.7218021188    0.1053306059
 C    1.2602154825    2.2223677474    0.0235064095
 O   -0.0642789523    4.0286770881   -0.9059694404
 H   -2.1735985548    1.6494623900    0.0586728743
 H   -2.0162781557    4.1762723340   -0.0617039281
 H   -0.1346510018    5.1155689005    1.4121266946
 H   -0.0995160812    3.4645732510    2.1281108029
 H    1.8311313576    4.3465775119    0.0108932425
 H    1.8837934281    1.9083982361    0.8692998817
 H    1.8282939537    2.0065316163   -0.8886399396