21

 C   -0.0392524021    1.4692799759   -0.9173001151
 O   -0.0455600810    0.0966094473   -1.2344124399
 C    0.7511546153   -0.6669865628   -0.3545769436
 C    0.6942540589   -2.1536728243   -0.7046666063
 C   -0.4397103492   -2.6813142093   -1.5751168745
 C    0.9605776805   -2.6718301642   -2.1206402030
 C    1.3832926039   -1.7694728691   -3.2590321250
 C    1.1595815564   -2.9802058080    0.3773162870
 C    1.5615009966   -3.6461382399    1.2958653953
 H   -0.4260105768    1.6514457762    0.0973221937
 H    0.9726172022    1.8986701908   -0.9811475677
 H   -0.6851109557    1.9739702621   -1.6394599437
 H    1.7966367871   -0.3160473657   -0.3820860170
 H    0.3953481321   -0.5388215448    0.6802492723
 H   -0.8907549313   -3.6258674734   -1.2946115526
 H   -1.1250348921   -1.9277281348   -1.9445845071
 H    1.4504827350   -3.6416972687   -2.1229065862
 H    0.8695393861   -0.8084127796   -3.2173853655
 H    2.4629275223   -1.5831137406   -3.2331998809
 H    1.1546824722   -2.2433523719   -4.2203053577
 H    1.9127314095   -4.2442452053    2.0994328775