14

 O   -0.0552724701    0.4856062099    1.2103956394
 C   -0.0930118715    1.1305706751    0.1946980616
 O   -1.3066746217    1.5014516928   -0.2948864050
 C   -1.4260653954    2.1661275996   -1.5428604621
 O   -0.8484323610    3.4315831435   -1.5375186033
 C    0.4841194713    3.4695900678   -2.0036056059
 C    1.4150827550    2.4688758998   -1.3979250225
 C    1.1622981501    1.5009889626   -0.5124093741
 H   -1.0125146543    1.5390915071   -2.3453215148
 H   -2.5013199346    2.2928384449   -1.6767111017
 H    0.5142564981    3.3535282142   -3.1017891642
 H    0.8480934104    4.4825554450   -1.7927814393
 H    2.4406879062    2.5705720741   -1.7504946263
 H    1.9874836673    0.8903333836   -0.1612473618