13

 O   -0.0589786683   -0.0864203855    0.0377618829
 C    0.0060852310    1.1179285319    0.0073216882
 N   -1.1988158597    1.8306585888    0.1374840097
 N   -1.6169267777    3.1000987199    0.1633890454
 C   -0.8413656157    4.1280777610    0.0515785370
 C    0.5821104251    4.2329549716   -0.1200158139
 C    1.5198583547    3.2655242568   -0.2136215035
 C    1.3696108223    1.8138447426   -0.1683485600
 O    2.3332683000    1.0852177337   -0.2695579428
 H   -1.9693040124    1.1797105674    0.2416547545
 H   -1.3852489863    5.0676330650    0.0985670918
 H    0.9364539620    5.2590694569   -0.1817004392
 H    2.5570331951    3.5601360498   -0.3429339800