21

 C    0.1430422535    1.5301887549   -0.0637819473
 C   -0.0508009525    0.0057089463    0.0058098498
 C   -1.5539726485   -0.3196791193    0.1268896479
 C    0.5898504680   -0.7260956092   -1.2164998047
 C    1.4342267568   -1.8614398998   -0.6315538741
 C    1.5767042598   -3.1967188874   -1.2352584259
 O    2.6348931398   -2.2423061018   -1.3239688689
 C    1.5020556849   -1.6084866358    0.8307336091
 C    0.7080301460   -0.5971338991    1.1766107716
 H    1.2043899381    1.7897320192   -0.1265570285
 H   -0.3615372263    1.9480673914   -0.9421154968
 H   -0.2727255108    2.0216680514    0.8230976182
 H   -2.1112160133    0.1008042783   -0.7178396344
 H   -1.7227136932   -1.4009728986    0.1436510973
 H   -1.9762910827    0.0995639253    1.0468450458
 H   -0.1629902677   -1.0837425694   -1.9240405215
 H    1.2581348237   -0.0535219102   -1.7630892943
 H    1.7771677646   -4.0637256936   -0.6052469501
 H    1.0616457097   -3.4168681032   -2.1706465632
 H    2.1228921155   -2.2020582636    1.4915418292
 H    0.5656380845   -0.2290844256    2.1881446408