15

 N   -0.0700155997    1.4542084284   -0.3134491439
 C   -0.0486645956    0.0761997386   -0.0035599658
 C   -0.3999867267   -0.9642125951   -1.0685405120
 C   -1.2193463291   -0.8973558810    0.1782214300
 N   -0.4951108094   -1.5445956862    1.2787992097
 C   -0.6259311981   -2.8251108845    1.7798574356
 O    0.1321034774   -3.3484775843    2.5544595033
 C    0.6066608518   -0.6252630118    1.1867174315
 O    1.5767149981   -0.4652497646    1.8575839258
 H   -0.0691950620    2.0238413657    0.5263514229
 H    0.7378087484    1.7202490125   -0.8668598864
 H   -0.8422753452   -0.5158373308   -1.9532153805
 H    0.2449666284   -1.8185756611   -1.2480163646
 H   -2.2722381093   -0.6663491279    0.2536171552
 H   -1.5456381490   -3.3101121780    1.3928943290