18

 C   -0.2980403170    1.6372067633   -0.2555168572
 C   -0.0301788188    0.1510106983   -0.0633181567
 C   -1.2565368817   -0.6198670364    0.4053790274
 C    0.8078709114   -0.5481327356   -1.2353643351
 C    1.8979925140   -0.7059716267   -0.1897498638
 N    3.0871327187   -1.0836309461    0.2484552066
 C    3.0006880151   -0.6638159109    1.5557165409
 N    1.8625661582   -0.0678918437    1.9364685469
 N    1.1887173154   -0.1242614043    0.7653741621
 H    0.6042636755    2.1617495954   -0.5806919153
 H   -1.0778701806    1.7839098983   -1.0093107764
 H   -0.6404598549    2.0898963654    0.6798813387
 H   -2.0615133023   -0.5290314015   -0.3305601971
 H   -1.0272639453   -1.6799073116    0.5423835686
 H   -1.6200204397   -0.2210553768    1.3572099887
 H    0.3698335284   -1.4756966976   -1.6103052655
 H    1.0448364652    0.1109143404   -2.0734685178
 H    3.8103905985   -0.8022007299    2.2573642150