21

 C    0.0107488080    1.5390906727   -0.0539453291
 C    0.0102772028    0.0084676284   -0.0594130086
 C   -1.4031541202   -0.5721938802   -0.0456667695
 C   -1.4380530441   -2.0816055741   -0.0513635304
 O   -0.4392274586   -2.7723045233   -0.0687484963
 C   -2.8076206293   -2.7538218350   -0.0345067390
 N   -3.8544875698   -2.0107184455   -0.0161665302
 N   -2.7115742905   -4.1081212809   -0.0418089086
 C   -3.8509110628   -4.9895308728   -0.0291122488
 H    1.0311489019    1.9342941284   -0.0638803578
 H   -0.5107551800    1.9407612691   -0.9299858470
 H   -0.4911211078    1.9344477289    0.8363169679
 H    0.5453910944   -0.3653445449   -0.9394212026
 H    0.5648779577   -0.3714884388    0.8058094613
 H   -1.9772481060   -0.2303655636    0.8249186313
 H   -1.9961591404   -0.2239175399   -0.9009942352
 H   -4.7133116799   -2.5630307586   -0.0064913120
 H   -1.7707037797   -4.4713394710   -0.0573059373
 H   -3.5039019964   -6.0240737002   -0.0358669739
 H   -4.4686309907   -4.8417619186    0.8673139240
 H   -4.4918965487   -4.8380192698   -0.9084719482