14

 O    0.1087147882    0.0136091503   -0.0515747442
 C    0.0490682293    1.2238513155    0.0129212893
 N   -1.0816619142    2.0114497361    0.0713427711
 C   -0.7439940067    3.3781725631    0.0284530711
 C    0.5837184757    3.5499881212   -0.0209167901
 C    1.2014569214    2.2052064920    0.0120728423
 C    2.4476379776    1.7847024615    0.7305609909
 N    2.4247405023    1.8286085836   -0.7244508208
 H   -2.0137869291    1.6368789701    0.0166496715
 H   -1.5318686937    4.1166926263    0.0487930168
 H    1.1162581448    4.4869434237   -0.0496525657
 H    3.0517889191    2.5502060695    1.2087679114
 H    2.4152482617    0.8190391363    1.2283199219
 H    2.2764011936    0.8827232908   -1.0798533356