19

 C   -0.0210084564    1.4994639157   -0.0465953146
 C    0.0223090019   -0.0034682635   -0.0462759602
 C    0.6067459622   -0.9668411928   -1.1131993503
 C    0.0527845963   -1.9162545402   -0.0269851232
 C    0.5833129179   -0.9485559256    1.0606691048
 O   -0.2698644065   -0.9425819541    2.1996139849
 C   -1.5701597396   -0.9615322523    1.6032272212
 C   -1.1976364822   -0.9738313435    0.1178240749
 O   -2.2087163813   -0.9051429984   -0.8343449559
 H    0.9816324047    1.9221348797   -0.1717764190
 H   -0.6497752882    1.8738015136   -0.8613405027
 H   -0.4267915682    1.8792155025    0.8973785376
 H    0.0870511540   -0.9829310127   -2.0722415346
 H    1.6924321414   -0.9503566870   -1.2475642292
 H    0.0633043325   -3.0067147881   -0.0016875396
 H    1.6312335247   -0.9298964210    1.3542566902
 H   -2.1254141317   -1.8561435380    1.9184316239
 H   -2.1451613588   -0.0716663957    1.8882077639
 H   -2.7553614426   -1.6951750686   -0.7636321320