25

 C    0.2241930305    1.5867464711   -0.3181264039
 C   -0.0016649520    0.1155998771   -0.0419076566
 C    1.1499368934   -0.8577157560    0.0054951707
 C    0.3739321626   -0.5575191906    1.2650690656
 C    0.9997182671    0.1856975392    2.4268712320
 C    1.8743538095   -0.6717327133    3.3760799105
 C    2.3987607267    0.2080766179    4.5213595465
 C    1.1121398758   -1.8745976399    3.9382814107
 O    2.9818196185   -1.2385380926    2.6651145552
 H    1.1782232152    1.9401961177    0.0837269750
 H    0.2391491840    1.7775051127   -1.3971257557
 H   -0.5687293519    2.2065933069    0.1162765399
 H   -0.9148144508   -0.2680500160   -0.4910676889
 H    1.0468374565   -1.8329898292   -0.4575110802
 H    2.1512276727   -0.4447155745   -0.0663435790
 H   -0.3205018256   -1.3346017356    1.5727269439
 H    1.6277620742    1.0045828665    2.0526610622
 H    0.2115213647    0.6636660531    3.0248345893
 H    1.5817527443    0.5933797286    5.1401233292
 H    3.0747667796   -0.3689722225    5.1587415112
 H    2.9518687076    1.0704489323    4.1291426745
 H    0.8372517778   -2.5640548120    3.1370592428
 H    1.7425351638   -2.4183116177    4.6474638751
 H    0.2028479152   -1.5549414696    4.4563238625
 H    3.5252862109   -0.5122062636    2.3415720274