23

 C    0.0819199894    1.5232834422   -0.1210792440
 C   -0.0039127045    0.0313928037   -0.0737795975
 C   -1.0641041075   -0.7620776497    0.0955765790
 C   -2.4974990026   -0.3773170237    0.2903153885
 C   -0.6280589737   -2.2200720238    0.0671878317
 C   -0.8909612923   -2.9438684656    1.3970782571
 C   -1.2431469908   -2.9997129566   -1.1057448994
 O    0.7966937347   -2.1605226956   -0.1341129523
 C    1.2315074255   -0.8145316143   -0.2299981635
 H    0.7469124235    1.9055750346    0.6641431510
 H    0.5011818474    1.8644506465   -1.0764649958
 H   -0.8926691500    2.0005469031    0.0052090510
 H   -2.6328885865    0.7068109869    0.2846958772
 H   -3.1353348706   -0.7956429791   -0.4979577440
 H   -2.8880825353   -0.7557404442    1.2429070123
 H   -1.9633290687   -3.0584914533    1.5855081532
 H   -0.4412439933   -3.9409196001    1.3716067085
 H   -0.4485360443   -2.3879560003    2.2284608108
 H   -1.0495395878   -2.4840181791   -2.0504972446
 H   -0.7988222817   -3.9979762621   -1.1610346894
 H   -2.3253816671   -3.1146001554   -0.9865797974
 H    1.7297432069   -0.6430270141   -1.1994888926
 H    1.9810145294   -0.6002136100    0.5508282203