18

 C   -0.0012255736    1.4721394514    0.1134656307
 C    0.0738575752   -0.0174267542    0.1094378429
 C   -0.7009124330   -0.9684037960    0.9919508345
 C    0.8107484177   -1.0513444969    0.9204873246
 C    1.2378947157   -1.6414159751   -0.4165285486
 O    0.4086755611   -0.6785840189   -1.1225563189
 O    1.6582113089   -0.8846885203    2.0059133164
 C    1.5459566755   -1.7886043101    3.0133457508
 N    2.3340554859   -1.7249289971    3.9936752925
 H    0.9125008328    1.9055760509   -0.3032464950
 H   -0.8505514182    1.8161713064   -0.4866464672
 H   -0.1312946009    1.8435127825    1.1335503988
 H   -1.0725601640   -0.5233133173    1.9102508906
 H   -1.3289678100   -1.7409929558    0.5559403640
 H    2.2991497720   -1.4759311858   -0.6317661724
 H    0.9617695599   -2.6783928013   -0.6398228273
 H    0.7326281929   -2.5075020352    2.8569990761
 H    2.1162309920   -2.4602090873    4.6631689474