19

 O   -0.1699489241    1.1428692954   -0.4162585311
 C   -1.0216168894    0.0417370649   -0.5235313208
 C   -0.8725010768   -0.8796484598    0.6728910918
 O   -0.0859247269   -0.6080260969    1.5548151168
 C   -1.7221471813   -2.1359324721    0.7463522524
 O   -2.5319115201   -2.2415387705   -0.4019500684
 C   -3.3612004147   -3.3657756951   -0.3946605234
 C   -4.6757552428   -3.3012508371    0.3396555317
 C   -4.6271944549   -3.2601839392   -1.1761322779
 H    0.3040012550    1.0178580367    0.4215340561
 H   -2.0786687759    0.3442192987   -0.5921641811
 H   -0.8235338650   -0.5454076387   -1.4341008867
 H   -1.0451659544   -2.9992862572    0.8497992932
 H   -2.3244660265   -2.0911154744    1.6670957365
 H   -2.8205618015   -4.3127516121   -0.3990717589
 H   -5.0438820868   -4.1948251319    0.8311673505
 H   -4.9106460283   -2.3719155130    0.8466971977
 H   -4.8234632278   -2.3052611943   -1.6497352778
 H   -4.9604332479   -4.1253239634   -1.7374450508