18

 C    0.3845514279    1.3154988762    0.2219719441
 O    0.3380509782   -0.0897043141    0.1443364199
 C    0.2691030188   -0.5435454943   -1.1948819356
 C    0.2343988612   -1.9985379238   -1.2328987745
 C    0.2156616487   -3.1985081815   -1.3008143775
 C    0.1870179539   -4.6500886341   -1.3552202752
 C    1.3966333134   -5.2635040260   -2.0910385978
 N    1.6752853233   -6.5462133868   -1.7081393584
 O    2.0024706260   -4.6906125757   -2.9675315718
 H    1.2690010195    1.7260540358   -0.2912560157
 H   -0.5121848164    1.7811652985   -0.2180329632
 H    0.4361151660    1.5794643607    1.2806249028
 H   -0.6274371505   -0.1326869495   -1.6920171525
 H    1.1391836106   -0.1802364390   -1.7692883879
 H    0.1095226454   -5.0618508110   -0.3409747845
 H   -0.7106519546   -4.9936849906   -1.8882575243
 H    1.2811584046   -6.9549300432   -0.8790953496
 H    2.4780221640   -6.9913737517   -2.1228612582