19

 C   -0.4721367468    1.5693211163   -0.5387955391
 C   -0.5151974613    0.0416208469   -0.6030247359
 C   -0.8547340519   -0.5887166186    0.7633945810
 C   -0.8967433562   -2.0764920288    0.7157334073
 N   -1.9293328318   -2.8632464936    0.7779899368
 C   -1.3576033376   -4.1137112338    0.6535324465
 C   -2.1464526724   -5.3768474920    0.6679329401
 N   -0.0570418500   -4.1017891531    0.5222677712
 O    0.2608973103   -2.7353021699    0.5631386643
 H   -0.2321059581    1.9959474625   -1.5170369108
 H   -1.4366218870    1.9811174817   -0.2222966174
 H    0.2863860939    1.9155702722    0.1717665572
 H   -1.2612126764   -0.2822127415   -1.3379120028
 H    0.4497563304   -0.3485865036   -0.9445969049
 H   -0.1081039801   -0.2778798329    1.5035980430
 H   -1.8323526542   -0.2441582050    1.1101294637
 H   -2.8790728133   -5.3753482805   -0.1447143741
 H   -1.4863612853   -6.2380534946    0.5555624716
 H   -2.7001828424   -5.4668348417    1.6072811521