16

 O    0.0028503419    0.0788016687    0.1318602404
 C   -0.0154803156    1.2588023293   -0.0100829136
 C   -1.1901328905    2.2920536237   -0.0128974768
 C   -0.6970385537    3.0726448569    1.1927868297
 C    0.6495143283    3.0912429632    1.1737002821
 C    1.1296067246    2.3241288975   -0.0458016350
 C    0.6798632866    3.1096236245   -1.2934779423
 N   -0.0615530221    2.2762963698   -2.2665568739
 C   -0.7978473848    3.0891815780   -1.2725242996
 H   -2.2002811274    1.8894175901    0.0244389089
 H   -1.3415780627    3.4977713410    1.9508788408
 H    1.3032939012    3.5343053736    1.9133861502
 H    2.1511522407    1.9495867805   -0.0372918001
 H    1.2451850706    3.9713130832   -1.6296997033
 H   -0.0807213428    2.7288608662   -3.1767118471
 H   -1.3960889643    3.9347743241   -1.5922472404