18

 O   -0.0840348609    1.4454414429   -0.0016549437
 C    0.0195624378    0.0319398338   -0.0238757033
 C   -1.3943696375   -0.5373046872    0.0156955983
 C   -1.3915754368   -2.0600117685   -0.1090949982
 N   -2.6924387806   -2.5822101470    0.2744746453
 C   -3.7254893768   -1.9146436025    0.8817739385
 O   -4.8177867063   -2.3991466390    1.0439996008
 O   -3.4684831386   -0.6467283929    1.2969627323
 C   -2.1181518487   -0.1743843063    1.3074640144
 H    0.8023723583    1.8177114331    0.0090244777
 H    0.5320402946   -0.3202290178   -0.9335258247
 H    0.5932233345   -0.3418032268    0.8406378796
 H   -1.9610601092   -0.1055552818   -0.8177372867
 H   -1.1648385176   -2.3615478160   -1.1387347354
 H   -0.6026388678   -2.4836623875    0.5320768744
 H   -2.9460663361   -3.5144997008   -0.0086704344
 H   -1.5889852000   -0.5970298735    2.1745286781
 H   -2.1802458184    0.9062277278    1.4356041871