19

 O   -0.3960910108    1.2464667639    0.0103962497
 C   -0.0588335027   -0.1251896717    0.0453472968
 C    0.7370716788   -0.4975361446   -1.1985684428
 C    0.4608099930    0.1206477622   -2.4969654904
 O    1.5786364227    0.5526948510   -1.7004055714
 C    0.6887450736   -0.5062608842    1.3267114282
 O    0.9334480126   -1.8900743500    1.4131896984
 C    1.6769022921    0.4356526644    1.9595917684
 C    0.3327037473    0.1714484260    2.6124566227
 H    0.3684751116    1.6894709976   -0.3863464812
 H   -0.9978507670   -0.6943848146    0.0370555340
 H    1.2012387097   -1.4821658079   -1.1846699893
 H    0.7264108962   -0.4046007437   -3.4119948378
 H   -0.3486336127    0.8419009565   -2.5782742033
 H    1.8017758585   -2.0654032881    1.0364981613
 H    2.5545555400   -0.0071013416    2.4185523241
 H    1.8416995250    1.4055886323    1.5049131069
 H   -0.4063978376    0.9622577392    2.5760043607
 H    0.3198725297   -0.4547226668    3.4966144850