18

 C    0.0455005699    1.4381861002    0.0788642550
 C   -0.0142934089   -0.0584197207   -0.0019805064
 C   -1.2576304859   -0.9229746611   -0.2409004244
 C   -0.3932564107   -2.1181491072    0.2315452258
 C    0.5730124214   -1.0800365947    0.9449793722
 C    1.1951392068   -0.9006505184   -0.4333427497
 C    0.6807403537   -2.2667140338   -0.8844918224
 O    1.5974695285   -3.3211231016   -0.6891063563
 H    1.0279711891    1.7785831830    0.4233407048
 H   -0.1402873049    1.8986225692   -0.8986687683
 H   -0.7051214507    1.8252445320    0.7774052552
 H   -2.0485931613   -0.6746716250    0.4740023400
 H   -1.6826040187   -0.9756015740   -1.2514342863
 H   -0.8332015349   -3.0095176664    0.6746840712
 H    0.9730196743   -0.9796380993    1.9439703338
 H    2.1398276413   -0.4337388486   -0.6866072501
 H    0.3147600788   -2.3823367161   -1.9105904207
 H    2.0140335121   -3.1827825176    0.1703169166