17

 O    1.2316516489    1.5535584616   -0.3875659558
 C    0.4050278856    0.5442783248    0.1266615101
 C    0.1847689497   -0.5411833011   -0.8406621928
 C   -0.0039866729   -1.4096273955   -1.6487142632
 C    0.9935940340   -0.0128145138    1.4340003150
 N    2.1427065774    0.4145132910    1.7717147764
 N    0.2437923222   -0.9924973694    2.0665958812
 C   -1.1002729411   -0.7961521963    2.5804099787
 C    0.0541810209   -1.0546103331    3.5007130134
 H    2.0437768969    1.5008621487    0.1485085853
 H   -0.5774825477    0.9819935051    0.3692682515
 H   -0.1627034528   -2.1776216670   -2.3647296437
 H    2.4807429262    0.0002829229    2.6397142207
 H   -1.5092623580    0.2114399030    2.5722627875
 H   -1.8113104832   -1.5851860813    2.3552117441
 H    0.1815385885   -2.0325745007    3.9550670160
 H    0.4162495555   -0.2163955389    4.0929557955