16

 N    0.0863331873    1.4615871309   -0.1271213736
 C    0.0590121631    0.0585557298    0.0245653548
 C   -1.0192931180   -0.7699733044   -0.0057961793
 O   -2.3382960485   -0.4887577610   -0.0546937300
 O   -0.6441442323   -2.0757190819    0.0599535906
 C    0.7222320965   -2.0789736804    0.1484234367
 C    1.2074645240   -0.8095902903    0.1341692633
 C    2.6467811583   -0.3931554579    0.1721501591
 O    3.5331712426   -1.4433949949   -0.1825303953
 H    0.4988775777    1.9252746296    0.6758288430
 H   -0.8539383929    1.8233682484   -0.2420503725
 H   -2.7550316205   -1.0170544934   -0.7468423714
 H    1.1905349889   -3.0453261026    0.2134150064
 H    2.7830348342    0.4940909164   -0.4670951595
 H    2.9444262109   -0.0953148426    1.1856245467
 H    3.2794131987   -1.7396428055   -1.0634065791