16

 C   -0.0355515655    1.5591047067    0.0842607592
 C    1.5267181865    1.4700028555   -0.0091300870
 C    2.0191049773    1.2460859606    1.3933288384
 C    1.5479174141    0.1417853243    1.9812002142
 C    0.8117107283   -0.7597006267    1.0292173346
 O    1.7930034208   -1.0848392578   -0.0295485071
 C    1.3082697197    0.0402885186   -0.7406837429
 C   -0.0594984342    0.0332659106   -0.0375663351
 H   -0.4507595904    2.0401741952    0.9731186320
 H   -0.4685927931    2.0068778076   -0.8162236408
 H    2.0537742048    2.2512025475   -0.5564029410
 H    2.6716279009    1.9631837221    1.8799847358
 H    1.7616448701   -0.1583931540    3.0000755942
 H    0.3822928170   -1.6623654191    1.4647539225
 H    1.5067063328    0.0071005989   -1.8133669811
 H   -0.9343726291   -0.5053018303   -0.4028311657