16

 C   -0.0032771724    1.4630397939    0.0288314616
 C   -0.0185407380   -0.0240684404   -0.0485959380
 N   -0.0436813379   -0.7114364335   -1.1179900486
 C   -0.0249627285   -2.1336074933   -0.7552466510
 C    0.0562087478   -2.1517219909    0.7708707526
 C    1.2308150400   -1.5105426477    1.4416027464
 C    2.4315832684   -1.2035835582    0.7083569350
 N    3.4184728918   -0.9670878910    0.1532488640
 N   -0.0375711577   -0.7516395109    1.2103795720
 H    0.9064286053    1.8038850887    0.5357643166
 H   -0.0391459904    1.8906048806   -0.9729080141
 H   -0.8534593011    1.8201301900    0.6184986080
 H   -0.9445866901   -2.6192088479   -1.0996090600
 H    0.8138228409   -2.6336632876   -1.2515337633
 H   -0.5076883773   -2.8825708982    1.3407759433
 H    1.4087551193   -1.7315238236    2.4899553853