20

 C    1.1432686620    0.9630159666    0.0226151703
 N    0.3369439804    0.1097821740   -0.8678561607
 C   -0.2329699767    0.5661535063    0.4103125918
 C   -0.5009117013   -0.5010704992    1.4160013464
 C   -1.6727570964   -1.5174976824    1.3168098484
 C   -0.8575148134   -2.1901382912    2.4632728366
 C    0.4191167332   -1.7174707970    1.6987984765
 C   -0.9505368792   -1.0952144580    3.5328159782
 O   -0.6896456940    0.0763910266    2.7267326367
 H    1.9955584798    0.4666664374    0.4768209129
 H    1.3158707435    1.9991424172   -0.2553422924
 H   -0.0401826230    0.6625327224   -1.6326411247
 H   -0.9934827835    1.3446389591    0.3824940217
 H   -2.6761301817   -1.1453633249    1.5407808432
 H   -1.6587277616   -2.0903108985    0.3889402764
 H   -1.0119849811   -3.2222290900    2.7748938863
 H    0.6304255486   -2.3057839565    0.8062157464
 H    1.3269999305   -1.5290114703    2.2778906542
 H   -1.9407344536   -1.0199755917    3.9982036855
 H   -0.1924486025   -1.1860063097    4.3200014863