15

 C   -0.0014993576    1.4124882661    0.0156367022
 C    1.4368461924    1.9335524158    0.0485140716
 O    2.1354348392    1.4966593728    1.2185521368
 C    1.8932176056    0.1830461523    1.4465886528
 N    2.6116733213   -0.5541796189    2.2747066292
 N    2.0173039351   -1.7690278464    2.2040196939
 C    0.9499742985   -1.8155301398    1.3585374770
 C    0.8422183572   -0.5432990540    0.8445183069
 O   -0.0443117309   -0.0153085491   -0.0469293754
 H   -0.5389547291    1.7598382058    0.9089786357
 H   -0.5159429458    1.7790117613   -0.8758675702
 H    1.9723255645    1.5946102213   -0.8487505832
 H    1.4431036383    3.0256938068    0.0747307367
 H    2.3959603451   -2.5199925427    2.7518292068
 H    0.3753902362   -2.7114515812    1.1933483494