22

 C   -0.0343497506    1.5634218575    0.1971010743
 C   -0.0588304713    0.0353393778    0.1094588269
 C   -1.4686096264   -0.5299153723   -0.0944912354
 C   -1.4951368685   -2.0530340208   -0.1488315933
 N   -1.2121709788   -2.7600225636    1.1362792065
 C   -2.4023889931   -3.6524660587    1.0094891843
 C   -3.2972346815   -3.7625436516    2.2345998302
 C   -2.8633156472   -2.7560188641   -0.1541779708
 O   -3.8842954525   -2.6155387546   -0.7591686455
 H    0.9833330597    1.9379473618    0.3451869978
 H   -0.4280909073    2.0198472307   -0.7178703769
 H   -0.6457524524    1.9202658825    1.0331547279
 H    0.5879775199   -0.2972284306   -0.7139610625
 H    0.3623070170   -0.3940633748    1.0268663793
 H   -2.1203201579   -0.1971568287    0.7224780156
 H   -1.9027638954   -0.1453241222   -1.0264130340
 H   -0.8834708928   -2.4104609406   -0.9935759647
 H   -0.3279814222   -3.2545393226    1.1503002950
 H   -2.1598507252   -4.6559570256    0.6245501187
 H   -3.5437689825   -2.7694254208    2.6193306550
 H   -4.2263170893   -4.2801123467    1.9760523104
 H   -2.8000443919   -4.3242294522    3.0315523511