18

 C   -0.1073283150   -1.2161943922    0.0204421155
 C   -0.0473238541   -0.0152530706    0.0347739087
 C    0.0253800686    1.4185862858    0.0097424256
 N    0.5979304003    2.1027975030    1.2288388694
 C    1.3085020040    2.1564604499   -0.0217401506
 C    2.7646822490    1.7646377480   -0.3107448423
 C    2.4925262163    2.2376017268   -1.7726825147
 C    1.8336183088    3.3268508949   -0.8697890147
 C    3.1181502664    3.2507033093    0.0184802503
 H   -0.1593529160   -2.2766326032    0.0205776867
 H   -0.8252678648    1.9093218125   -0.4601616788
 H    0.0782094465    2.9627335616    1.3961829658
 H    3.2856215545    0.8660303473    0.0149401864
 H    3.3696576251    2.5600046757   -2.3387425996
 H    1.8220008438    1.6211096027   -2.3755382862
 H    1.2917389687    4.2189504758   -1.1874574656
 H    3.0189214169    3.5588539582    1.0614280144
 H    4.0344800310    3.6368946547   -0.4352789202