22

 C   -0.2845915940    1.5477628871   -0.5136109383
 C    0.0000139130    0.1996943877    0.1593383910
 C   -1.2647471388   -0.6057270641    0.3590769830
 N   -1.7900043776   -1.3450572380   -0.8063260555
 C   -1.3537553947   -2.0942930376    0.3937313881
 C   -0.1348390203   -2.9769515995    0.2026039397
 C   -2.4276569195   -2.7102393824    1.2849500708
 C   -3.0380020458   -3.9630670655    0.6845014685
 O   -3.2041179368   -4.9980056765    1.2760208962
 H    0.6360833550    2.1210540661   -0.6570957606
 H   -0.7476860136    1.3958510297   -1.4934173812
 H   -0.9661991999    2.1576552810    0.0900174196
 H    0.7083382323   -0.3682143878   -0.4503474088
 H    0.4766631341    0.3612241271    1.1350148082
 H   -2.0045018468   -0.0929092023    0.9767207586
 H   -2.8041389873   -1.2770706982   -0.8468876489
 H    0.5614940073   -2.5419769168   -0.5147814042
 H    0.3879239601   -3.1297824736    1.1532191915
 H   -0.4257104311   -3.9631772920   -0.1764841335
 H   -2.0363703405   -2.9617718570    2.2761499097
 H   -3.2453172895   -1.9875333592    1.4217549047
 H   -3.3449960856   -3.8584294482   -0.3823063388