13

 O   -0.3648524178    0.1207032489    0.4735924253
 C    0.3298103911    0.6477454711   -0.3561535426
 C    1.2114412862    1.8207854310   -0.0412872252
 N    2.3043989005    2.0908621895   -0.9846771376
 C    1.2082368443    3.0378904496   -0.9629029653
 C    0.3457805168    3.0948263421   -2.1202777202
 N   -0.3619499936    3.1589052310   -3.0313963449
 C    1.4606982841    2.1497479784    1.4048164898
 O    2.3593515101    2.8862701836    1.7338442248
 H    0.3780057574    0.3070750114   -1.4093842857
 H    3.0811196861    2.4800931355   -0.4456630450
 H    1.3494893086    3.9868289226   -0.4510850120
 H    0.7824425661    1.6659790053    2.1273071086