17

 C    0.0362699276    1.4111033969    0.3212803120
 C    0.0223845969   -0.0294767572    0.1312914543
 C   -0.0101847484   -1.2242083548   -0.0244885022
 C   -0.0458902224   -2.6452446368   -0.2192401955
 N   -1.1669537196   -3.2229779353   -0.4240676430
 N    1.2188746757   -3.2858389988   -0.1492419751
 C    2.4410549921   -2.5634789502   -0.5022573483
 C    1.3319423298   -4.5604843972    0.3721632430
 O    2.3669572517   -5.1793537197    0.4575307542
 H    1.0452177639    1.8193175964    0.2015564290
 H   -0.6198235252    1.9081033161   -0.4010077316
 H   -0.3144934392    1.6728784600    1.3255386625
 H   -1.0485489478   -4.2175076225   -0.6178948936
 H    2.6530527474   -1.7709358993    0.2205141258
 H    3.2526158874   -3.2901285119   -0.4961009548
 H    2.3450773502   -2.1207141900   -1.4960539673
 H    0.3650296898   -4.9507330856    0.7311702905