22

 C    0.0307220388    1.5807343922    0.0183030537
 C    0.0150682086    0.0502855421    0.0301056352
 C   -1.3995799962   -0.5325809260   -0.0377537541
 C   -1.4058675094   -2.0717272223    0.0418015661
 O   -0.7916775944   -2.5203451264    1.2219763123
 C   -2.8422218685   -2.6229218799    0.0115162633
 O   -3.3192806295   -3.1196369981    1.0236830803
 N   -3.5111218709   -2.5111916779   -1.1602480704
 C   -4.8800507797   -2.9598869283   -1.3383220998
 H    1.0533015271    1.9673873599    0.0700458198
 H   -0.4296295888    1.9796550986   -0.8930673603
 H   -0.5221246572    1.9886016066    0.8718299270
 H    0.6040111256   -0.3314373353   -0.8150930926
 H    0.4991627460   -0.3258354661    0.9367059659
 H   -2.0023607052   -0.1465698333    0.7946110303
 H   -1.8941706067   -0.2074746844   -0.9637326465
 H   -0.8549065621   -2.4740106271   -0.8246633877
 H   -1.5205984460   -2.9020273481    1.7419808604
 H   -3.0270616579   -2.1114252933   -1.9473779547
 H   -5.2158112492   -3.3697745354   -0.3856146232
 H   -5.5360701679   -2.1301204050   -1.6227785613
 H   -4.9450409163   -3.7387566023   -2.1056388138