16

 C    0.1541213691    1.5380432633    0.0112317446
 C   -0.0863128212    0.0191961293   -0.0395122943
 O   -1.4618399756   -0.2822831832   -0.0633949565
 C    0.6470393146   -0.6368387261   -1.2335511347
 N    1.9180352633   -1.0702808778   -0.6567294775
 C    1.9680809049   -1.1671777028    0.7054102046
 O    2.8705286480   -1.5810107476    1.3928684753
 C    0.5961956251   -0.6355843353    1.1633349377
 O    0.0976112959   -0.7586202456    2.2495269312
 H    1.2201399883    1.7814698887   -0.0429629590
 H   -0.3601810746    2.0069361885   -0.8321160863
 H   -0.2485707005    1.9491719784    0.9413142466
 H   -1.7415038346   -0.3499590113    0.8607049439
 H    0.0514984550   -1.4795616186   -1.6014326760
 H    0.8137032835    0.0619506630   -2.0583372379
 H    2.6780720488   -1.4202528628   -1.2198605617