17

 C   -0.0622676708    1.5398727096    0.0086601599
 C   -0.0533333533    0.0189773400   -0.1039917508
 N   -1.3614293999   -0.5305977341    0.2064429871
 C   -1.5458464053   -1.9008118732    0.0919057730
 C   -0.6133863810   -2.9146079747    0.1058398523
 N   -1.3633664356   -4.0809787343    0.0159831846
 C   -2.6665135552   -3.7204819116   -0.0585234717
 N   -2.8176803800   -2.4139351901   -0.0170028257
 H    0.9306965421    1.9484506837   -0.1986120473
 H   -0.7605746160    1.9829989203   -0.7107785059
 H   -0.3657545006    1.8526370544    1.0119502583
 H    0.2955082239   -0.2848984454   -1.1072577999
 H    0.6683904908   -0.3955791974    0.6122496787
 H   -2.1332004713   -0.0230898304   -0.2058010596
 H    0.4595609323   -2.9291972436    0.1738975267
 H   -0.9986924352   -5.0174874640   -0.0005309550
 H   -3.4645016348   -4.4428207391   -0.1432998347