20

 C   -0.0932365642    1.5197743715   -0.0271140817
 C   -0.0949310035   -0.0088177667   -0.0930642575
 C    0.8798003454   -0.5569563428   -1.1506389667
 C    0.8444378646   -2.0471358352   -1.2553311172
 N    1.8754594919   -2.8134853766   -0.9339560481
 N    1.3884854632   -4.0603659705   -1.1682588082
 C    0.1131077291   -4.0020421504   -1.6113546087
 C   -0.7102867574   -5.1941594271   -1.9660932450
 N   -0.2617179080   -2.7372043149   -1.6768867611
 H    0.9012121112    1.9065377761    0.2227908726
 H   -0.3854169876    1.9579321174   -0.9881463441
 H   -0.7925139654    1.8853925413    0.7313244173
 H    0.1716140085   -0.4245958714    0.8864105266
 H   -1.1017720478   -0.3754710838   -0.3213480802
 H    0.6243724547   -0.1268360181   -2.1273268827
 H    1.9045748705   -0.2511363187   -0.9176489899
 H    1.9745678065   -4.8630676042   -1.0093342813
 H   -0.8137995556   -5.8801695713   -1.1186336923
 H   -1.7037227545   -4.8575046278   -2.2636785146
 H   -0.2703012316   -5.7555182865   -2.7974604072