21

 C   -0.0147347975    1.4623026069    0.0403177038
 C    0.0193473486   -0.0493049913   -0.0138437435
 O    0.6692492850   -0.4445880439   -1.1989467952
 C    0.5505622685   -1.8452610570   -1.4070695091
 C    0.9406675904   -2.6278922016   -0.1701307203
 C    2.2507329922   -2.3492091591    0.5379047585
 C    0.9491487775   -1.8983807224    1.1535386993
 C    0.4189770739   -2.5337540940    2.4137305709
 O    0.7125820437   -0.5069104578    1.1273953995
 H    1.0060883460    1.8501580810    0.0018273358
 H   -0.5778878890    1.8541711630   -0.8095877735
 H   -0.4852154825    1.7918572789    0.9693312263
 H   -1.0017502559   -0.4767306732   -0.0143489744
 H   -0.4880494105   -2.0917436207   -1.6845490387
 H    1.1937900646   -2.0843988090   -2.2598442348
 H    0.5818626754   -3.6532846730   -0.1562441698
 H    2.7824947663   -3.1834411657    0.9828396424
 H    2.8758125487   -1.5621972324    0.1308705032
 H    0.6710439832   -3.5977031911    2.4514148645
 H    0.8521357710   -2.0464903557    3.2934813043
 H   -0.6701593897   -2.4349082118    2.4748251408