17

 O    0.0570381711    1.4235961267   -0.1072119055
 C    0.0986214063    0.0281009878    0.0029743120
 C    0.3221806551   -0.6245364926    1.4241992722
 C   -1.0477873647   -1.2866180747    1.2731917363
 O   -2.0006565940   -0.2231697199    1.0771179180
 C   -1.2590031233   -0.6980624377   -0.0627445479
 C   -2.0216715505   -1.1217772038   -1.2569429779
 C   -1.9646042226   -0.3235166407   -2.4912799516
 O   -1.2263952848   -1.5420452846   -2.3680414378
 H   -0.6623507355    1.7158584073    0.4676626151
 H    0.8079081397   -0.3405073143   -0.7400206685
 H    1.1576215134   -1.3280475749    1.4379167688
 H    0.4118292691    0.0757599576    2.2580665562
 H   -1.4258209632   -2.2107764694    1.6941294963
 H   -2.9054839324   -1.7275478593   -1.0581975604
 H   -2.8022219020   -0.3534382472   -3.1857536015
 H   -1.3669906819    0.5859327397   -2.5023044839