14

 O   -0.0951040667    1.4225110933    0.0442409049
 C    0.0151931188    0.0684256534   -0.0425048608
 C   -1.0145245480   -0.9956388296   -0.0795788687
 C   -0.3731375187   -1.6822349107   -1.2890082162
 C    0.9287477153   -0.9219203552   -0.9050004670
 C    1.3048809885   -1.5293010200    0.4674904753
 O    2.3131768015   -2.0026472273    0.9121460309
 C    0.0354487533   -1.0181016862    1.0690950688
 H    0.6757532668    1.7744203537    0.5051971057
 H   -2.0617988613   -0.9205118544    0.1847009596
 H   -0.3177409168   -2.7764377081   -1.2931173766
 H   -0.8019681955   -1.3234568901   -2.2278385861
 H    1.6928016176   -0.6598955658   -1.6314375675
 H   -0.2614192248   -0.9202866829    2.1042968378