19

 C   -0.0458203444    1.5534241841   -0.0474906818
 C   -0.0117288014    0.0553779121   -0.0217368115
 C    0.5338659611   -0.9852325573   -0.9524374627
 O    1.1439710123   -1.7511714498    0.0741001911
 C    0.6275350794   -0.8189167572    1.0784771884
 C   -0.3047350586   -1.5356291834    2.0428192595
 C   -1.4737242290   -2.1503765511    1.3125196111
 C   -1.7632125455   -1.8543462821    0.0439328671
 C   -0.9802411520   -0.8679364353   -0.7364184189
 H    0.9355386589    1.9805895405    0.1899573906
 H   -0.3394683169    1.9212829220   -1.0359497713
 H   -0.7680669406    1.9495773789    0.6765676070
 H    1.0208679546   -0.9364201103   -1.9204064989
 H    1.4606281708   -0.3238965839    1.5901754243
 H    0.2676082096   -2.3172449988    2.5594212900
 H   -0.6424702696   -0.8425980345    2.8289926851
 H   -2.0802941167   -2.8673911860    1.8584463873
 H   -2.5984471238   -2.3380718283   -0.4544509332
 H   -1.4832043680   -0.4053313596   -1.5820184832