19

 O   -0.0629042962    1.3997537933    0.0340175565
 C   -0.0228438963   -0.0215632517   -0.0227911961
 C   -1.4411399589   -0.5160272977   -0.1981812958
 C   -1.6859174366   -0.6455833124   -1.7086721277
 C   -0.3884687890   -0.2540866406   -2.4028167130
 C    0.6546702759   -0.5584346468   -1.3051939722
 C    0.8153623590   -2.0751768645   -1.1668916348
 O   -0.4401682190   -2.7266042050   -0.9757429223
 C   -1.5454165526   -1.8703287298   -0.8515334574
 H    0.8369555064    1.7149273505    0.1679459905
 H    0.4570429418   -0.4273040981    0.8812304134
 H   -2.2040464551   -0.1735781583    0.4910614038
 H   -2.6414559791   -0.3958421319   -2.1554781003
 H   -0.2006243331   -0.8248447415   -3.3187009348
 H   -0.3917902010    0.8108005104   -2.6512957025
 H    1.6318481577   -0.0998915644   -1.4850865693
 H    1.2800130596   -2.4930902963   -2.0696291926
 H    1.4668756903   -2.3172717313   -0.3136097643
 H   -2.4299739436   -2.4609324741   -0.6421002711