13

 O    0.0045729789    0.0200216970    0.2030513929
 C   -0.0125013861    1.2250961692    0.1608479046
 N   -1.1474525758    2.0642495658    0.1025201091
 C   -0.7192590157    3.3314826974   -0.2570098384
 C    0.6246849468    3.3499001009   -0.2752208736
 N    1.0970479330    2.0949718294    0.0719233685
 O    1.0996132622    4.5907920211    0.0819514160
 C   -0.0736044457    5.3952412084   -0.1316017888
 O   -1.2181414164    4.5590700759    0.1133072162
 H   -2.0334161054    1.6454297622   -0.1354286158
 H    1.9873635851    1.7004998865   -0.1901735035
 H   -0.0757862789    6.2373314107    0.5594036013
 H   -0.0922306422    5.7169143854   -1.1839886485