12

 C   -0.0261193157    1.3647384418    0.0313964598
 O    0.0279477543   -0.0647507512   -0.0425309197
 C    0.6399655184   -0.5387369714   -1.1149342137
 N    1.1921992080    0.0978858034   -2.0986633966
 C    1.6644867144   -0.9321868158   -2.9157474069
 C    1.3609571769   -2.1244615023   -2.3644272009
 O    0.6887210707   -1.8808007477   -1.1812922529
 H    0.9828302009    1.7855819141    0.0516910242
 H   -0.5633433143    1.7726948644   -0.8290696545
 H   -0.5551401215    1.5904038858    0.9569713135
 H    2.1854196545   -0.7262896016   -3.8371170868
 H    1.5146074034   -3.1571999194   -2.6210200456