12

 N   -0.0062535829    1.3385255448    0.0103709199
 C   -0.0238106738    0.0756469644    0.0034981291
 O    1.1721654140   -0.6696904176   -0.0071401466
 C    1.1302241533   -2.0141533952   -0.0143221515
 N    0.0936420182   -2.7562489774   -0.0127593037
 C   -1.1285927561   -2.0799329582   -0.0023533979
 C   -1.2258214640   -0.7310916525    0.0056166894
 C   -2.3013853868   -2.9060633490   -0.0005065527
 N   -3.2566427452   -3.5580075814    0.0011144105
 H    0.9465945431    1.7025033891    0.0071757461
 H    2.1295440011   -2.4382780329   -0.0221281495
 H   -2.1742248108   -0.2118923040    0.0136592868