23

 C   -0.0527648917    1.4057057343    0.0395280675
 O    0.1229081439    0.0103027588   -0.0236404538
 C    0.7274564948   -0.5742568825    1.1243696075
 C   -0.2457111672   -0.6405578996    2.3058526337
 C    1.2163041032   -1.9585156637    0.6965311914
 C    2.2426096778   -1.9345657935   -0.4704656349
 C    3.4548852264   -2.7046765317    0.0905505149
 O    2.9488890050   -3.5099568014    1.1459658123
 C    1.9792687901   -2.7185992000    1.8068161944
 H    0.8922820631    1.9252489177    0.2646164634
 H   -0.4048050921    1.7293519539   -0.9434565106
 H   -0.7974299280    1.7096981143    0.7894831837
 H    1.6044474850    0.0337347384    1.4135095803
 H   -0.5915728463    0.3542870826    2.5997427529
 H   -1.1204706035   -1.2428418309    2.0402767421
 H    0.2332985691   -1.0905180269    3.1809787078
 H    0.3376421640   -2.5389754145    0.3975032025
 H    1.8343210188   -2.4308335872   -1.3532811089
 H    2.4994995178   -0.9139836709   -0.7634079796
 H    3.9367966448   -3.3661100725   -0.6338386240
 H    4.2158352897   -2.0056649979    0.4761093903
 H    2.4682548526   -2.0038811422    2.4938891914
 H    1.3498095027   -3.3851937548    2.4012098055