22

 C    0.2780242329    1.4453270523    0.1988046287
 C   -0.1187730970    0.0037255486   -0.1450424644
 C    0.5599201783   -0.5009217963   -1.3827859400
 C    0.3164973323   -0.0898255526   -2.8406232145
 C    1.2384900581   -1.2789461144   -3.2155463117
 C    0.9451690909   -1.8755600991   -1.7859628963
 N    1.9940682141   -0.9614720733   -1.2405814703
 C    2.5901475453   -0.8402049446   -2.6185799988
 C    3.7458311748   -1.8087527244   -2.7883206707
 H    1.3582342851    1.5152251586    0.3568341175
 H    0.0094888514    2.1358154643   -0.6079423286
 H   -0.2244991187    1.7854423853    1.1092083138
 H    0.1403560769   -0.6589648563    0.6882234997
 H   -1.2061542943   -0.0651617459   -0.2795055978
 H   -0.7265963806   -0.2698535167   -3.1160482511
 H    0.6205593847    0.9085092398   -3.1766153642
 H    1.1570000683   -1.7785599554   -4.1799912746
 H    0.7181266175   -2.8567847163   -1.3891389016
 H    2.9105181943    0.1818425400   -2.8629545777
 H    3.4367407276   -2.8347614043   -2.5630720095
 H    4.1229414358   -1.7816665235   -3.8161403131
 H    4.5670953824   -1.5484868357   -2.1136639448