14

 O   -0.0174195269    0.0160371610   -0.4803117185
 C   -0.0110675975    1.1545275386   -0.1239973474
 C   -1.0844124719    2.1303970909    0.4015570394
 C    0.0127866695    3.2217718858    0.5262618674
 O    0.3782813489    3.5336893942    1.8645650878
 C    1.4836654056    2.8086359858    2.2470186522
 O    1.9327353071    2.8214719916    3.3556315347
 N    1.9536473067    2.1233475333    1.1473814218
 C    1.1077818607    2.2369437720   -0.0081074317
 H   -1.8692077671    2.3401653171   -0.3314809840
 H   -1.5535552224    1.8474571984    1.3477806625
 H   -0.1561667481    4.1471771276   -0.0224971603
 H    2.6636401181    1.4210107014    1.2673661534
 H    1.6470769373    2.4766111722   -0.9292611875