13

 O    0.0342807251    0.0091175069   -0.1335069906
 C    0.0066555547    1.2051744937   -0.0122967459
 C   -1.2299990538    2.0998566648    0.0472671958
 C   -0.6964125575    3.5315737034    0.0067711612
 O   -1.3347361036    4.5413710840    0.0402834159
 N    0.7506953858    3.5271824875   -0.0852784693
 C    1.3445723678    3.0304657049    1.1685328592
 C    1.2026263030    2.1181702138   -0.0004876145
 H   -1.8733207300    1.9055830261   -0.8168107615
 H   -1.8420404246    1.9268301839    0.9372602355
 H    2.3236054830    3.4362441728    1.4007475818
 H    0.6931837894    2.8872605562    2.0274455621
 H    2.0753749206    1.8337236920   -0.5776654996