19

 C    0.0233624837    1.4971437075    0.0399490580
 C    0.0092808190   -0.0114781508   -0.0283396409
 C    0.1900895046   -0.7521835304   -1.3757831720
 C   -0.7090635230   -1.8790508355   -0.8051871324
 O    0.0785900601   -2.8263015608   -0.0977309114
 C    0.3991841194   -2.2171273673    1.1261354587
 C   -0.6771180237   -1.3185174123    1.6320906582
 C    0.6782983184   -0.7294002251    1.1776175269
 C   -1.2659662563   -0.8648929414    0.2865068700
 H    1.0337826451    1.8898131147   -0.1279833081
 H   -0.6338997436    1.9317815487   -0.7213747588
 H   -0.3104185471    1.8523335336    1.0216109682
 H   -0.3094598019   -0.2094859019   -2.1859567823
 H    1.1923284045   -1.0509741792   -1.6940726673
 H   -1.3850670199   -2.4143413410   -1.4736379316
 H    0.9533667072   -2.8727417850    1.7863627832
 H   -1.1574843229   -1.3720999912    2.6000300555
 H    1.4881024271   -0.3196886927    1.7730633492
 H   -2.2782701306   -0.4790889696    0.1932550669