17

 O    0.4663335801    0.1848737145    1.0278648078
 C   -0.0454062222    0.1299818867   -0.2926058777
 C   -1.4787665183   -0.4530527073   -0.3925549982
 O   -1.9703745949   -0.2162630107   -1.6815309662
 C   -1.5034724388   -1.9595561083   -0.1028756535
 O   -1.7596800327   -2.7205099296   -1.0078367701
 C   -1.2041291896   -2.4098642023    1.3225141345
 C   -1.1051497244   -3.8483089015    1.4976737753
 C   -1.0156048472   -5.0352343409    1.6525606841
 H    0.0117097040    0.8907498059    1.4988863897
 H   -0.0739061509    1.1190318460   -0.7663827792
 H    0.6436734341   -0.4932527428   -0.8711510855
 H   -2.1070059878    0.0587524764    0.3567092966
 H   -2.0896179069   -1.0983960383   -2.0725327714
 H   -0.2932149195   -1.8904922538    1.6484555772
 H   -2.0013363605   -1.9962467433    1.9581643395
 H   -0.9374937844   -6.0861067707    1.7829774172