16

 C    0.2395806264    1.5414373018   -0.0790772622
 C   -0.0332644727    0.0363720807    0.0904395512
 C    0.5687770542   -0.5462827133    1.3168316366
 C    0.1085528122   -1.1302412105    2.4440823703
 N    1.1690682529   -1.4987847653    3.2746603153
 C    2.2133959980   -1.1096937429    2.6136085382
 N    3.5300642177   -1.1575936344    3.0052035479
 O    1.9583992809   -0.5259719737    1.4214452940
 H    1.3144331426    1.7380891841   -0.1235515024
 H   -0.2138161731    1.9155481337   -1.0019749297
 H   -0.1712894333    2.1087141936    0.7613262881
 H   -1.1119283107   -0.1473499039    0.1363167892
 H    0.3349218375   -0.4990344576   -0.7953056089
 H   -0.9158632159   -1.3234112307    2.7222362013
 H    3.6841949227   -1.8151769151    3.7555055165
 H    4.1899626506   -1.2563239466    2.2472687147