21

 O   -0.0982445949    1.3410052974   -0.0361425092
 C   -0.0013937759   -0.0693798770   -0.0501143819
 C   -1.3453042599   -0.6449091799   -0.5220725435
 C   -2.0203513731   -1.1317776378    0.7817248696
 C   -0.8625822654   -1.6895524149    1.6483273311
 C    0.3093995496   -0.7443612667    1.3299384685
 C    1.6568397743   -1.2450759552    0.7630091086
 C    1.4624152727   -2.0858012870   -0.4645490932
 C    1.3506080979   -0.5930706940   -0.5927687909
 H    0.7167807773    1.6886869371    0.3432627072
 H   -1.9299088597    0.1113725864   -1.0505298193
 H   -1.1879762286   -1.4841964814   -1.2068269884
 H   -2.4764398313   -0.2748506215    1.2912560858
 H   -2.8140874586   -1.8643393357    0.6069121976
 H   -1.1163373121   -1.7223637228    2.7116940368
 H   -0.6257357265   -2.7154178920    1.3452262838
 H    0.4525644694    0.0150666404    2.1038115619
 H    2.5904985786   -1.2628588520    1.3127052516
 H    2.3705447403   -2.5136288000   -0.8780526431
 H    0.5925894184   -2.7266499947   -0.5797424643
 H    1.9957229776   -0.0216134488   -1.2512556787