19

 C   -0.7875816678    1.2102179751    0.3567451134
 C   -0.2318719106   -0.2031325586    0.2145577743
 C    0.7385389085   -0.3927193361   -0.9884990310
 C    1.9470997079   -0.3395430721   -0.0174405243
 C    0.9819026472   -0.5647838613    1.1691932240
 C    1.1614427155    0.2910294810    2.3985083051
 O    1.9002305905    1.2533274071    2.4435471126
 C    0.3451161860   -0.0867232923    3.5438178223
 C   -0.3393378779   -0.4218981225    4.4761547821
 H    0.0091462667    1.9610157618    0.3455049544
 H   -1.4682515535    1.4302023924   -0.4726015840
 H   -1.3463166956    1.3315356910    1.2905896099
 H   -1.0494225166   -0.9267859112    0.2659431435
 H    0.6249622299   -1.3712357941   -1.4625351223
 H    0.6939473530    0.3749927995   -1.7656003378
 H    2.7334578308   -1.0847414848   -0.1526001891
 H    2.4069992770    0.6486677452    0.0427127083
 H    0.9114773374   -1.6135518355    1.4713907115
 H   -0.9353854883   -0.7009954846    5.3109413070