21

 C    0.0400960476    1.3971163797   -0.0921371520
 O    0.0141002387   -0.0102196782   -0.0188310369
 C    0.6396750518   -0.6310198623   -1.1164653455
 C    0.5534128654   -2.1548614244   -0.9343330396
 C    1.3107732052   -2.5837540405    0.3245521399
 C   -0.9085510619   -2.6075715611   -0.9263869447
 O    1.2362232449   -2.6251212981   -2.1366605081
 C    1.3758803154   -3.9404490063   -2.3598850122
 O    1.9282345542   -4.3688047672   -3.3314628826
 H    1.0706007744    1.7835893677   -0.1115717529
 H   -0.4830573239    1.7666778121   -0.9873550728
 H   -0.4656221060    1.7788328701    0.7976501949
 H    0.1503536566   -0.3520676425   -2.0631191685
 H    1.6982285090   -0.3353950452   -1.1904204449
 H    0.9110269527   -2.0400476792    1.1833873017
 H    1.2111641008   -3.6549510303    0.5189055512
 H    2.3736650679   -2.3445494162    0.2267861645
 H   -1.3788881235   -2.3852306836   -1.8886060660
 H   -1.0058953879   -3.6786414940   -0.7302090282
 H   -1.4452177752   -2.0649418371   -0.1450023520
 H    0.9391765438   -4.5800591032   -1.5735667055