20

 C   -0.1467282084    1.5533775210   -0.1692200588
 C   -0.0013504221    0.0421343819   -0.0548054970
 C    1.2498734680   -0.5606534371   -0.8148488940
 C    1.9038617207   -0.6326060433    0.5437789375
 C    2.9644908463   -0.2025103774    1.2300527244
 C    2.5034492481    0.2312791823    2.5905735514
 N    1.6758871988    1.4673166834    2.4832197532
 C    0.9991812984    0.1564170039    2.5941370410
 C    0.6036190736   -0.5334065055    1.2996654213
 H    0.7746789698    2.0646236179    0.1164917243
 H   -0.4074101409    1.8324625523   -1.1964133180
 H   -0.9415030111    1.9195031508    0.4891902465
 H   -0.9406362799   -0.4484262582   -0.3263322847
 H    1.0229339676   -1.5381147971   -1.2527582947
 H    1.7282770156    0.0674036984   -1.5708606083
 H    3.9542755134    0.0108058549    0.8443852530
 H    3.0963670307    0.0879356567    3.4883494735
 H    1.6326080896    1.9130142949    3.3983049198
 H    0.4602429328   -0.0591490086    3.5105857733
 H    0.1371564992   -1.5013185211    1.5194528364