19

 C   -0.1324378569    1.5449567652   -0.0070697313
 C   -0.0029086629    0.0118554733    0.0069024286
 C   -1.4034448386   -0.6379302029    0.0472102445
 C    0.7746009525   -0.4320823746   -1.2390878729
 O    1.1577059150   -1.8137135522   -1.2113905109
 C    1.7814607819   -2.2829160782   -0.0956965055
 O    2.3433180911   -3.3467439057   -0.1293022916
 C    1.6513625606   -1.4627815331    1.1308664114
 C    0.7987609353   -0.4387793450    1.2050927546
 H    0.8482172926    2.0311883734    0.0076301784
 H   -0.6658923912    1.8816352728   -0.9023231211
 H   -0.6947042862    1.8924233504    0.8655898427
 H   -2.0215910655   -0.2627365305   -0.7758047836
 H   -1.3330119227   -1.7248181070   -0.0428967621
 H   -1.9157186152   -0.4059545375    0.9862687712
 H    0.1716277995   -0.3194628600   -2.1439901108
 H    1.6786490203    0.1815097433   -1.3482944387
 H    2.2250481961   -1.8173979023    1.9788873660
 H    0.6419419543    0.0853962106    2.1458833412