21

 C   -0.1074434666    1.4735119484    0.0588357432
 C    0.0342780292   -0.0200437119    0.0014927115
 C   -0.0569544736   -0.8774843792   -1.2647310150
 C   -0.2134023552   -2.0940354020   -0.3164180178
 C    1.1688383124   -2.1958337759    0.3779062821
 C    0.8201525770   -0.8602088256    1.0376359460
 C    1.5085962968   -0.2757247992    2.2273423214
 O    1.5109994859   -1.2512738413    3.2672123520
 C   -0.6643543973   -1.0871695682    0.8181819159
 H    0.7626590132    1.9770770025   -0.3800737055
 H   -0.9923787007    1.7977115965   -0.5009197510
 H   -0.2194827067    1.8394010983    1.0840813606
 H   -0.9820054414   -0.6582491482   -1.8076644170
 H    0.7868169734   -0.8866972660   -1.9665902805
 H   -0.7494889046   -2.9859636747   -0.6335712921
 H    1.1993593148   -2.9880680626    1.1294620039
 H    2.0548024296   -2.2585640334   -0.2670036018
 H    2.5407088212    0.0051018031    1.9578375526
 H    0.9985447548    0.6432507835    2.5548152302
 H    2.0638757284   -0.9201991781    3.9812690730
 H   -1.4992625806   -1.0486174161    1.5034189883