13

 C   -0.0688547503    1.4188181658    0.0681174733
 N    0.0194761419   -0.0219065795   -0.0227677617
 C    0.1339668945   -0.7729339301   -1.1538902357
 C    0.1217479576   -2.0903113791   -0.7405297722
 O    0.2237703146   -3.1699312508   -1.5646662311
 C   -0.0074829788   -2.0321604682    0.6620255245
 N   -0.0714675603   -0.7681034306    1.0868763997
 H    0.7296199120    1.8873547238   -0.5143622451
 H   -1.0356574520    1.7832611325   -0.2962708376
 H    0.0422859248    1.6864113470    1.1185008662
 H    0.2164081526   -0.3350828432   -2.1346639491
 H    0.1913871544   -3.9680484089   -1.0292685104
 H   -0.0493319409   -2.8465309587    1.3713720491