17

 N    0.1455715191    1.3559080708    0.5693696127
 C    0.0344374806    0.0357971534    0.0943016861
 C   -1.1459781691   -0.6934659535   -0.0433596997
 N   -0.7769792992   -1.9028405118   -0.5759156096
 C   -0.9964443072   -3.3629449125   -0.5987078701
 C    0.5640467100   -3.4977977699   -0.8421021060
 O    1.0000025821   -4.0748232444   -2.0459122580
 C    0.5810585282   -1.9844574130   -0.6876784366
 C    1.1423718748   -0.7925660832   -0.2778539502
 H    0.8987966749    1.8645971816    0.1250769005
 H   -0.7115028740    1.8832459480    0.4654327588
 H   -2.1719043802   -0.3955744481    0.1018446644
 H   -1.3449963519   -3.7738027125    0.3542517186
 H   -1.6370776043   -3.7097196005   -1.4151216256
 H    1.0657697079   -4.0525100608   -0.0448281352
 H    0.7657840666   -3.4696246542   -2.7585360038
 H    2.1851333216   -0.5172424695   -0.2398251862