17

 C   -0.0345601132    1.4765766993   -0.0509468284
 C    1.5171963183    1.5363144382    0.0901028266
 O    2.0020657445    1.3809213630    1.4621705638
 C    1.6619786560    0.0077413971    1.3849068942
 C    2.0235454300   -1.2423914812    2.1545775689
 O    0.7276759179   -1.7892788987    1.7556516631
 C    0.1903299569   -0.4678566939    1.4583222249
 C   -0.0057159754   -0.0886140045   -0.0120176337
 C    1.5614665576    0.0072236411   -0.1604024742
 H   -0.6291548120    2.0014003856    0.7025685992
 H   -0.3216223942    1.8299626189   -1.0453945859
 H    2.0674764024    2.3143760884   -0.4379073328
 H    2.8607416113   -1.8517395474    1.7996131397
 H    2.0855413141   -1.1134361790    3.2440733449
 H   -0.5389135289   -0.1452416307    2.2081993839
 H   -0.6782808497   -0.6453948468   -0.6635002816
 H    2.2242605244   -0.5277259093   -0.8350165126