19

 C   -0.0709249872    1.5028846103    0.3456686043
 C   -0.0160769483   -0.0198775042    0.5193293312
 C   -1.3631364266   -0.6610722222    0.2567790218
 C   -1.8231510550   -1.1008844198   -1.0930819935
 O   -0.8428120487   -1.1887475403   -2.1056204086
 C   -0.0041266695   -2.3133324108   -1.8858450115
 C   -0.4275569659   -2.9570173006   -0.5579903183
 O    0.0425740576   -3.9640301709   -0.0932584606
 C   -1.5791973024   -2.1585706994   -0.0402830930
 H    0.8994975766    1.9577943028    0.5653042797
 H   -0.3456197148    1.7674182328   -0.6800672949
 H   -0.8097793655    1.9528420583    1.0179692243
 H    0.7423476275   -0.4301265354   -0.1532812416
 H    0.3064438863   -0.2689005247    1.5373572740
 H   -2.1605376425   -0.2708740515    0.8871898500
 H   -2.8069968729   -0.8541749175   -1.4775453409
 H   -0.1264199602   -3.0452592291   -2.6959278034
 H    1.0504400439   -2.0136072344   -1.8575181307
 H   -2.3534913323   -2.6898243436    0.4982378517