20

 C   -0.1364090524    1.4891649109   -0.0058014849
 C    0.0333425222   -0.0036485573   -0.0198184318
 C    0.7779980394   -0.7839590562   -1.1296506683
 C   -0.2370739660   -1.8512925028   -0.6547199986
 C   -0.7851426782   -2.9434353839   -1.5289890576
 C    0.2617622104   -2.1932255436    0.7711735650
 C    0.4754071604   -0.7335651320    1.2727507035
 O   -1.1763691873   -0.7580209533   -0.3727351141
 H    0.8164883171    1.9794135053    0.2198848697
 H   -0.4929280183    1.8520589412   -0.9737855158
 H   -0.8603308180    1.7853352654    0.7607738272
 H    0.5343788145   -0.4064688889   -2.1244275510
 H    1.8496822660   -0.9769274472   -1.0245391699
 H   -0.0138829832   -3.6944716334   -1.7299747723
 H   -1.6255194833   -3.4435669279   -1.0359850592
 H   -1.1361314153   -2.5420450647   -2.4837052984
 H   -0.5051633575   -2.7283678466    1.3364502295
 H    1.1753383071   -2.7949191388    0.7685739468
 H    1.5094356662   -0.5123156962    1.5529252674
 H   -0.1751003538   -0.4733615302    2.1113345630