18

 C    0.1346657617    1.5267305162    0.0479845863
 C    0.1080883190    0.0387478764   -0.0301325823
 C    0.0189906090   -0.8232202078   -1.0992456703
 N   -0.0142944266   -0.5096534486   -2.4763305798
 C    0.0669680189   -2.1687809697   -0.5924011411
 N    0.0326274742   -3.4325891091   -1.2520412329
 C    0.1943458503   -2.0654919534    0.7710211817
 O    0.2833775758   -3.0399538452    1.7024470264
 N    0.2274371024   -0.7551719853    1.1209803886
 H    1.1369714783    1.9400653689    0.2321047337
 H   -0.2218022334    1.9647557003   -0.8901110188
 H   -0.5220323321    1.9071940445    0.8417497359
 H   -0.7346973900   -1.0338033641   -2.9617893341
 H   -0.1808669762    0.4761982009   -2.6388820162
 H    0.7421121632   -3.4955912882   -1.9767323062
 H   -0.8611428154   -3.6147808971   -1.7004356880
 H    0.2817163834   -3.8643191083    1.1936884513
 H    0.2982169877   -0.4158406703    2.0634237259