18

 N    0.6690582462    0.2241978906   -0.5373927657
 C   -0.2323576531    0.2142042985    0.4782953457
 O   -0.2080105399    0.9760221599    1.4247963366
 C   -1.3816882391   -0.7967757343    0.3276975576
 C   -1.0744074679   -2.1654684628   -0.2671977109
 O   -0.2032849374   -2.3373394306   -1.1047356781
 C   -1.9207840291   -3.2934882698    0.2009609453
 C   -2.2133995395   -4.4117825509   -0.7929414898
 C   -1.2552574231   -4.6636811364    0.3142418808
 H    1.4809864088    0.8092558857   -0.4186636186
 H    0.7107001332   -0.5816066637   -1.1486609061
 H   -1.8516690959   -0.8909108663    1.3080325364
 H   -2.1334934437   -0.3394828603   -0.3325540615
 H   -2.6890678703   -3.0549162911    0.9262430446
 H   -3.2004556882   -4.8569247885   -0.7482149563
 H   -1.8043202634   -4.2694827524   -1.7863185884
 H   -0.2000156898   -4.6903673449    0.0689576016
 H   -1.5606716980   -5.2851006726    1.1477871368