16

 C   -0.0359649268    1.5062022658   -0.1866987741
 C    0.0450569962    0.0398279644    0.2129147962
 O    0.1429158465   -0.3384404697    1.3526263646
 N   -0.0142446859   -0.8129873589   -0.8914458922
 C    0.1050552452   -2.1893584987   -0.9413871175
 N    0.3260174564   -2.9332060712    0.0676991649
 C   -0.0517391240   -2.6436718907   -2.4024170453
 N   -0.2930075085   -3.9663374063   -2.5841869457
 O    0.0508159420   -1.8466156794   -3.3188387885
 H    0.8132639998    1.7820455297   -0.8210270645
 H   -0.9518466928    1.7094579940   -0.7516315286
 H   -0.0243008320    2.1141017398    0.7169373549
 H   -0.0817035942   -0.4027722811   -1.8150714832
 H    0.4350523617   -3.9054984152   -0.2161236601
 H   -0.6240315367   -4.5424479132   -1.8295335077
 H   -0.4742064268   -4.2743614895   -3.5262928333