20

 O   -0.1098273812    1.3440911442    0.7180044698
 C   -0.0358369784    0.0950160433    0.0433913617
 C    0.9491324939   -0.8299902707    0.7888549906
 C    0.2411040189   -1.8878897488    1.6853336628
 N   -1.1559947909   -2.1634240872    1.2948757163
 C   -1.9189059108   -0.8706316292    1.3766884467
 C   -1.4264753164   -0.5446639429   -0.0467003593
 O   -2.1846720652    0.2555799169   -0.9221884451
 C   -1.2861572257   -2.0795418870   -0.2043606408
 H   -0.8053188457    1.8463028180    0.2764653181
 H    0.3187224870    0.2521845424   -0.9873481336
 H    1.5652874131   -1.3433683165    0.0453981428
 H    1.6275223316   -0.2048823963    1.3751844838
 H    0.7989786389   -2.8298723259    1.6548937445
 H    0.2207213969   -1.5666272608    2.7312685650
 H   -2.9962970504   -1.0734002820    1.4240742304
 H   -1.6302843086   -0.1940270169    2.1837898088
 H   -3.1043089303   -0.0263143161   -0.8755037949
 H   -0.4542386372   -2.4875478405   -0.7856990299
 H   -2.2184321098   -2.5599728843   -0.5220715876