20

 C   -0.1194358114    1.5699397914   -0.1597518475
 C   -0.1657895402    0.0963990537    0.0747985132
 C   -1.3820824968   -0.8470190494    0.0326384967
 C   -0.6351414206   -1.7883918105    1.0410214663
 C    0.5361236236   -0.7890039591    1.0198979744
 O    0.9631167880   -0.6950674593   -0.3442011630
 N   -1.2936387655   -1.8440771605    2.3318329044
 C   -2.2054791581   -2.9659327475    2.5399543397
 C   -0.8800434718   -2.9312557868    3.2162381387
 H    0.8679822573    1.9653719435    0.0931224523
 H   -0.3208148856    1.8032327883   -1.2116500010
 H   -0.8715279635    2.0821281453    0.4486577173
 H   -2.2742260750   -0.4211972150    0.4971688982
 H   -1.6227818782   -1.2574484246   -0.9509449826
 H   -0.3729012935   -2.7835630606    0.6464496577
 H    1.2640475517   -0.5823330130    1.7971363594
 H   -3.1132500925   -2.7409518912    3.0920774857
 H   -2.3297391680   -3.6786151594    1.7263455881
 H   -0.1195457212   -3.6215735892    2.8547024536
 H   -0.8040736187   -2.6797708760    4.2700904886