18

 C   -0.0295588017    1.5120996086   -0.0197451256
 C    0.0057756082    0.0062287563    0.0052713781
 N   -0.0449718543   -0.6356209706   -1.1613956812
 C   -0.0056850238   -1.9648481440   -1.1905838926
 C    0.0871740669   -2.7552012208   -0.0379687878
 N    0.1890714221   -4.1455373615   -0.1209750069
 C    0.1307739057   -2.0911682954    1.1884842272
 C    0.0946637380   -0.6983023188    1.2262224373
 N    0.2019985002   -0.0103434744    2.4359174893
 H    0.8513390023    1.9485101028    0.4678748142
 H   -0.0597946228    1.8504032413   -1.0562778237
 H   -0.9143476282    1.9164915586    0.4934103920
 H   -0.0469437621   -2.4360300572   -2.1712405547
 H   -0.1864545761   -4.5372090067   -0.9731053796
 H   -0.1532182192   -4.6434555050    0.6883686057
 H    0.2034165105   -2.6578329255    2.1139884150
 H   -0.0495213391   -0.5491028955    3.2522322133
 H   -0.2316920268    0.9009392380    2.4476327199