20

 C   -0.0379992036    1.5022306679   -0.0334418848
 C   -0.0253516427   -0.0077000047    0.0235934194
 C   -0.8175362446   -0.7069657418    1.1038425205
 C    0.6996576623   -0.7462634131    1.1266937963
 O    1.3897249742   -1.9203017802    0.7596247770
 C    1.4468436832   -2.1490340016   -0.6449154828
 C    1.6464121231   -0.8324293319   -1.4264919469
 N    0.1437332994   -0.6065253565   -1.3122609054
 C    0.0344619066   -2.1119085276   -1.2641651170
 H    0.8483637223    1.8860579235   -0.5503786059
 H   -0.9194331866    1.8524192416   -0.5800301200
 H   -0.0563911993    1.9359427593    0.9708838140
 H   -1.3014300250   -0.0642480095    1.8324776313
 H   -1.3586935375   -1.6224771123    0.9043836568
 H    1.2229456851   -0.2149911900    1.9160955175
 H    2.1129132425   -3.0025751540   -0.7873496674
 H    2.2711701846   -0.0553582842   -0.9812062941
 H    1.9272091907   -0.9924388664   -2.4705733715
 H    0.0108718089   -2.4910078849   -2.2899565923
 H   -0.8013658735   -2.5356937635   -0.7086043148