15

 O   -0.0209499725   -0.0818536286    0.1110332005
 C   -0.0619808850    1.1221685408    0.0224123881
 N   -1.2064765914    1.8545705092   -0.0466889973
 C   -1.1567752252    3.2768173775   -0.1502474986
 C   -0.0988819507    4.0633427855    0.5741532051
 C   -0.0780830658    3.9514829259   -0.9526255950
 C    1.2410377051    3.1313663602   -0.8505107382
 C    1.2208773194    3.2396993094    0.6284171626
 N    1.1305240985    1.9222757892   -0.0198747425
 H   -2.0841558785    1.3618383532   -0.0227874333
 H   -2.1375229152    3.7362998665   -0.1972631146
 H   -0.3082235182    4.9186942159    1.2023255153
 H   -0.2686465552    4.7057451747   -1.7041736062
 H    2.0577677036    3.1795253595   -1.5591399067
 H    2.0181928712    3.3922099111    1.3443440109