18

 C    0.0624414719    1.5465120452    0.0186466085
 C    0.0463344092    0.0482832805    0.0635045622
 N    0.6155982389   -0.7048667117   -1.0623487813
 C    1.2109358445   -1.7303216874   -0.1548225569
 C    0.6777264146   -0.9675649652    1.0568243136
 C    1.3165236015   -0.7383465452    2.3010764916
 N    1.8084758807   -0.5492589250    3.3336885222
 C   -0.8599857819   -0.7946698120    0.8996394839
 N   -1.6442671290   -0.1964134803    1.9344353197
 H    1.0544283583    1.9041040815   -0.2682396595
 H   -0.6579345457    1.9044363766   -0.7261805979
 H   -0.2036027586    1.9964295526    0.9784721252
 H   -0.0856748146   -1.0704199856   -1.7024477851
 H    0.8235134355   -2.7507786956   -0.2660057105
 H    2.3015878886   -1.7519411950   -0.2331357907
 H   -1.3702581980   -1.6266474198    0.4131009225
 H   -1.7703259824   -0.8453702564    2.7060189333
 H   -1.1968001636    0.6272665628    2.3216976793