19

 C   -0.1486969974    1.6024078200    0.2810556459
 C    0.0486215281    0.1108089582    0.0947399741
 C    0.5510207486   -0.4713671771   -1.2744478048
 N    0.8800426111    0.3948799602   -2.3843408664
 C    0.0625092128    0.5604385789   -3.4610425622
 O   -1.0216853633    0.0355763367   -3.5970470961
 C    1.7169792355   -1.0575839559   -0.4941465144
 C    2.4399436043   -0.0201933782    0.2721578646
 N    1.1914982881   -0.5491326813    0.8394444469
 H    0.6970470438    2.1965764394   -0.0760478631
 H   -1.0344807464    1.9304624258   -0.2719301401
 H   -0.3025760599    1.8310966510    1.3404524755
 H   -0.8606525593   -0.4133289051    0.3994358594
 H   -0.1436123195   -1.2201794169   -1.6539018940
 H    1.7653256932    0.8763933763   -2.3774372032
 H    0.5069990539    1.2396260400   -4.2157626575
 H    2.1010954810   -2.0656878980   -0.6095537105
 H    3.3182014180   -0.3405000437    0.8240854388
 H    2.4900501172    1.0085026598   -0.0757339030