21

 C    0.1127934416    1.7264306362   -0.2951062761
 C    0.0086021483    0.2385552646    0.0261928602
 O    0.6026311819   -0.5324430062   -1.0273031319
 C    1.8406342911   -1.0398883351   -0.5615648039
 O    2.0867997028   -0.4687855664    0.6989809208
 C    0.8079972708   -0.2200403600    1.2621179001
 C    0.8177946908    0.6533675572    2.5322888047
 C   -0.2250108385   -0.3109853765    3.1627937295
 C    0.1530870222   -1.3680520229    2.0898438764
 H    1.1545435792    2.0585501108   -0.2552081428
 H   -0.2693717629    1.9078917403   -1.3032297877
 H   -0.4748569594    2.3287220281    0.4050539334
 H   -1.0436313412   -0.0597484321    0.0983018465
 H    1.7767787841   -2.1394839849   -0.4962720437
 H    2.6569931657   -0.7568677142   -1.2372580985
 H    1.7920216244    0.5756450598    3.0213819174
 H    0.5581315754    1.7086450572    2.4306889037
 H   -0.0785853642   -0.5872089994    4.2082605947
 H   -1.2486159525    0.0536311692    3.0416196544
 H   -0.6515893851   -1.9403002629    1.6218031607
 H    0.9227507556   -2.0561779628    2.4494424621