16

 N   -0.4605551310    0.7662505504   -0.8578699715
 C   -0.6477082925   -0.2531314315   -0.1407481732
 O   -0.1986828686   -1.4576166605   -0.5586604657
 C   -0.5100371277   -2.5688116594    0.2872511346
 C   -1.9065121147   -2.9825503745    0.2113535828
 C   -3.0614918532   -3.3158623291    0.1337999072
 C   -4.4402832857   -3.7157328019    0.0654065929
 C   -5.2197168248   -3.5768978900   -1.1823895715
 O   -4.7606717332   -4.8508773731   -0.7545366328
 H   -0.8378511769    1.5911237043   -0.3960692268
 H   -1.1492272840   -0.2853996074    0.8360258613
 H    0.1441415523   -3.3760054925   -0.0537848599
 H   -0.2365945261   -2.3419039652    1.3271347083
 H   -4.9852330050   -3.6871538464    1.0081436993
 H   -6.2941382787   -3.4117826100   -1.1147238738
 H   -4.7299102602   -3.1713195632   -2.0651942313