15

 C   -0.0188938602    1.4969266586    0.0192865561
 C   -0.0115689300    0.0109611501    0.0002445427
 N   -0.0389784463   -0.7579154054   -1.0674141387
 N   -0.0213432459   -2.0954105030   -0.6960189526
 C    0.0178458510   -2.0671265003    0.6125411151
 N    0.0543365747   -2.9273045249    1.6799218122
 C    0.0852409597   -2.1675017197    2.8441979893
 C    0.0685947749   -0.8491846540    2.5182147096
 N    0.0265129406   -0.7924543047    1.1231669126
 H    0.8797980225    1.9050170034    0.4970547903
 H   -0.0541279691    1.8531564265   -1.0113715519
 H   -0.8890772965    1.8955482399    0.5543584032
 H    0.0567793659   -3.9286580304    1.6164572534
 H    0.1167563996   -2.6314399391    3.8156151751
 H    0.0828535491    0.0249026028    3.1441107037