15

 O    1.8862472900    4.2133320178    0.2485335357
 C    1.0647055105    3.3393161305    0.1819067329
 N    1.2780548565    1.9816769977    0.0164864283
 C    2.4694990535    1.2539050325   -0.1171767270
 N    3.6275484636    1.9051286085   -0.0900671924
 C    4.7443001541    1.1848040475   -0.2197312405
 C    4.7682920427   -0.1951692617   -0.3801481574
 C    3.5464380077   -0.8658659298   -0.4068462418
 C    2.3754029344   -0.1391924313   -0.2742231907
 H   -0.0278877134    3.5281184679    0.2491246444
 H    0.4354675781    1.4277862522   -0.0122467628
 H    5.6716326677    1.7523298827   -0.1927424695
 H    5.7083039104   -0.7243554201   -0.4803190479
 H    3.5063251928   -1.9431249961   -0.5296441823
 H    1.4079274315   -0.6309160581   -0.2908790790