19

 N    0.1128522527   -1.1641156170    0.0388952212
 C    0.0561096956   -0.0103891105    0.0194129593
 C   -0.0268811520    1.4547513645    0.0355167754
 C   -0.8353464129    1.9520206360    1.2557791637
 C   -1.0123515589    3.4735625534    1.1465913909
 C    0.2670625410    4.2017116737    0.7684738486
 C    1.5553586283    4.0277464213    1.5288059852
 C    1.4163035160    3.4432385448    0.1374188104
 N    1.3253288537    2.0110396421   -0.0404283964
 H   -0.5682659663    1.7562665107   -0.8733208901
 H   -1.8122595009    1.4598635925    1.2925971376
 H   -0.2992241122    1.6719787638    2.1698203845
 H   -1.7630957164    3.6758170428    0.3713530610
 H   -1.4190753077    3.8741693092    2.0821449721
 H    0.0998720118    5.1974260016    0.3685344620
 H    2.1921759246    4.8948135753    1.6660027418
 H    1.5760231214    3.3241500837    2.3551681095
 H    1.9582690086    3.9473819090   -0.6593343019
 H    1.9412298934    1.5181471031    0.5950104155