16

 C   -0.0339346797    1.5330057520    0.0060209104
 C   -0.0454990139    0.0324345210    0.0030473987
 C   -1.1800443876   -0.7128494397   -0.0785696539
 O   -2.3878934483   -0.0963651942   -0.1635481621
 C   -1.1186819941   -2.1536819244   -0.0762120880
 C    0.0857395546   -2.7381970837    0.0085056253
 O    1.2325049072   -2.0464521840    0.0908868169
 C    1.2381090092   -0.6392880061    0.0932185481
 N    2.3486869428   -0.0251151322    0.1728895543
 H    0.5649130987    1.9128415203   -0.8283543582
 H   -1.0454247396    1.9338358727   -0.0648748259
 H    0.4415368342    1.9102989752    0.9174248748
 H   -3.0837047440   -0.7587038416   -0.2134398424
 H   -2.0145112591   -2.7596231203   -0.1406924499
 H    0.2547748651   -3.8079944808    0.0190211947
 H    3.1237059345   -0.6849363243    0.2270023371