17

 O    0.0460439346   -0.0038566687    0.4166243923
 C   -0.0147999634    1.1202357607    0.0051231162
 C   -1.3174302825    1.9087373283   -0.0803115072
 C   -1.2219442665    3.1209326648   -0.9780952971
 C   -1.7573160303    3.1185888414   -2.3887684426
 C   -2.3997729228    3.9699743526   -1.3071107900
 O   -0.0139629105    3.8101073247   -0.7415903620
 C    1.0676351639    3.0046304605   -1.0711918593
 O    1.1256099337    1.7798744282   -0.3249354436
 H   -2.1085621903    1.2205137357   -0.3841406226
 H   -1.5409183099    2.2265195140    0.9463878544
 H   -1.1762538305    3.6371628060   -3.1431004696
 H   -2.2847839493    2.2397319459   -2.7429347614
 H   -3.3683400288    3.6766413883   -0.9169713241
 H   -2.2289192168    5.0394321090   -1.3515402501
 H    1.0539504798    2.7395321235   -2.1383781029
 H    1.9785689996    3.5501528752   -0.8213037804