25

 C   -0.1187497201    1.6802937332    0.2918093121
 C    0.0205944880    0.1615077027    0.1381188889
 C   -1.3180074117   -0.5582969234   -0.0524291025
 C   -2.0617671801   -0.2115510695   -1.3739582135
 C   -2.9248280702   -1.4535189753   -1.7148139376
 C   -2.6830561459   -2.4566598204   -0.5627432542
 O   -2.9027406326   -3.8128814623   -0.9030364515
 C   -1.2704041097   -2.1046436339   -0.0328058178
 C   -0.1574517480   -2.7234388403   -0.8881644272
 H    0.8560140547    2.1533333030    0.4466757530
 H   -0.5692015298    2.1351537715   -0.5965054022
 H   -0.7517264015    1.9340045677    1.1497627607
 H    0.6788381510   -0.0559254913   -0.7125515633
 H    0.5231830701   -0.2448069023    1.0258636107
 H   -1.9707350508   -0.2589782034    0.7809417984
 H   -2.6641828190    0.6944470682   -1.2691412538
 H   -1.3389981210   -0.0110409496   -2.1729281019
 H   -3.9868078361   -1.2235294463   -1.8312346127
 H   -2.6015066262   -1.9070857972   -2.6598356723
 H   -3.4012271744   -2.2602556930    0.2419508160
 H   -2.3854216137   -4.0075313312   -1.6914656116
 H   -1.1530680405   -2.4726549907    0.9929060736
 H   -0.1809090794   -2.3718386045   -1.9263956471
 H    0.8311610488   -2.4850735424   -0.4868062975
 H   -0.2501886220   -3.8142825291   -0.8982112266