16

 C   -0.0515871019    1.4174458439    0.0686765059
 N    0.0123209131   -0.0344541067    0.0656310042
 C    0.5853151310   -0.6172527155   -0.8987169481
 N    1.1937091611   -0.0933665234   -2.0439048828
 C    1.6076519233   -1.0661315214   -2.9516125136
 O    2.1669189646   -0.8693390397   -3.9932645659
 N    1.2388095945   -2.3539371754   -2.4231460722
 C    2.0439284522   -2.6897427324   -1.2273357358
 C    0.6869589024   -2.0985775876   -1.0747683493
 H    0.8860179280    1.8529179963    0.4409656029
 H   -0.2548552973    1.8507487004   -0.9232651131
 H   -0.8489921680    1.7406329868    0.7423301665
 H    1.3690890404    0.8830745774   -2.2168352529
 H    2.1779443172   -3.7534704075   -1.0625118105
 H    2.9093033006   -2.0708449315   -1.0069215503
 H   -0.1470145310   -2.7068302236   -0.7466877248