19

 C    0.1604149564    1.4617064572    0.0662973912
 N   -0.1487608515    0.0586179445   -0.1521855430
 C    0.5089193891   -0.6933589672   -1.0887902930
 C    0.6531838013   -2.0347948371   -1.1590284320
 C    0.1949444578   -3.0875592010   -0.2018042076
 C    1.3634850678   -2.3462951917   -2.3927224941
 N    1.6930381348   -3.4952903659   -2.8180902267
 O    1.6498057899   -1.1648346821   -3.0566389850
 C    1.1492409801   -0.0688766796   -2.3033956407
 H    1.1604960339    1.6327694542    0.4925119391
 H    0.0916678282    2.0135673015   -0.8756517649
 H   -0.5801537150    1.8858735674    0.7482077995
 H   -0.4260117883   -0.4498744406    0.6743573808
 H   -0.8282051840   -3.4228358872   -0.4129447900
 H    0.8437776861   -3.9632209050   -0.2828896387
 H    0.2181428406   -2.7358001139    0.8371831279
 H    2.1954314713   -3.4197578320   -3.7025670373
 H    0.4292801495    0.4975149106   -2.9105240772
 H    1.9780050019    0.6060044980   -2.0486688182