19

 O   -0.0790185406   -0.0320871907    0.1913711208
 C   -0.0524442994    1.1771280755    0.1475597253
 C   -1.2436911587    2.1404466611    0.1565812266
 C   -0.6259946399    3.5194635456    0.4296475045
 C    0.8228107269    3.3757295321   -0.0982185531
 N    1.0738150851    1.9560075460    0.0646672234
 N   -1.3289659827    4.6007119754   -0.2414265782
 C   -2.4541184487    5.1858319193    0.4829319698
 C   -1.1760130406    5.9337096497    0.3405844102
 H   -1.7050566464    2.1273005621   -0.8375641800
 H   -1.9953786763    1.8260822445    0.8819735021
 H   -0.5801560849    3.6811764477    1.5213772579
 H    0.8646211838    3.6941170737   -1.1489517822
 H    1.5356172219    3.9792243263    0.4724733441
 H    1.9718696818    1.5276735927   -0.0951181632
 H   -3.3180299623    5.4470661853   -0.1206369461
 H   -2.6890900928    4.7873446132    1.4685542321
 H   -0.5583335098    6.0351920838    1.2316537021
 H   -1.0890961865    6.7506846167   -0.3693327160