20

 C   -1.2264728172    0.5341267150    0.1017020463
 C    0.2393460099    0.1095715349   -0.0249259542
 C    0.8744468887    0.6893558736   -1.2803700182
 C    2.1569015476    0.6930302121   -1.6478021625
 C    3.3386687039    0.0982422505   -0.9289824999
 C    2.9908219049   -0.7317054475    0.3109475152
 N    2.2849189135    0.0174107388    1.3362609662
 C    1.0171797465    0.5215662063    1.2377881764
 O    0.5428293080    1.2342108588    2.1016561454
 H   -1.3038176832    1.6195092625    0.2020036530
 H   -1.7880699718    0.2197970628   -0.7834816060
 H   -1.6878402910    0.0899204961    0.9859304883
 H    0.2745478637   -0.9874876706   -0.0834640808
 H    0.1656522068    1.1804735081   -1.9440870726
 H    2.4050601589    1.1895149558   -2.5842791435
 H    3.9011961039   -0.5370503520   -1.6279864165
 H    4.0305953857    0.9045579438   -0.6439872926
 H    2.3982690350   -1.6053147780    0.0146251322
 H    3.9073399410   -1.1211178748    0.7624295140
 H    2.8016936852    0.3552678838    2.1344204996