17

 C   -0.3506211924    1.6190702616   -0.2271608734
 C   -0.0066104883    0.1562804601   -0.0195564085
 C    0.7173592031   -0.6046345871   -1.2024254271
 C    1.8702302982   -0.7734689438   -0.2295914679
 C    3.0699722518   -1.1679160785    0.3102608823
 O    4.0763778387   -1.8660258507   -0.2648289535
 N    3.1444713928   -0.7379045877    1.6075645541
 C    2.0101350827   -0.0960378385    1.8792272221
 N    1.2271349770   -0.0994174283    0.7781228824
 H    0.5063420383    2.1668562918   -0.6299132212
 H   -1.1842886121    1.7101387410   -0.9308664737
 H   -0.6509027738    2.0907213006    0.7137954310
 H   -0.8593781790   -0.3965284464    0.3857396709
 H    0.2165471392   -1.5210404776   -1.5254711661
 H    0.9102750392    0.0225960373   -2.0776901033
 H    4.7558368837   -1.9574767908    0.4141616511
 H    1.7573573609    0.3636400670    2.8208667410