19

 O   -0.5498176181    1.3078318828    1.1713407026
 C   -0.1470576093    1.3033567021    0.0372264648
 C    1.2888416221    1.5586389783   -0.3735437518
 C    1.3840268647    2.7175240536   -1.3507540347
 C    1.3581635983    4.1604770412   -0.8515005742
 C    2.6082124324    3.5763430520   -1.4219716870
 C    3.9892695966    3.3879722226   -0.8021123134
 C    4.4922308238    3.8657968972   -2.1818891033
 O    3.1385524898    4.0092688247   -2.6742133119
 H   -0.8398596996    1.1161202661   -0.8167618399
 H    1.8746834916    1.7445266844    0.5316976658
 H    1.6731338268    0.6432822686   -0.8472900870
 H    0.8991141546    2.5555271718   -2.3106059081
 H    0.8289182128    4.8909507429   -1.4538432125
 H    1.3114823259    4.3311550953    0.2203243285
 H    4.2201380517    4.0475365733    0.0361910548
 H    4.2506778585    2.3611965294   -0.5380038692
 H    5.0275629224    4.8215181972   -2.1879354634
 H    5.0585854348    3.1303655565   -2.7638922502