23

 C   -0.1312163062    1.6115136011    0.0236886423
 C    0.0181209880    0.0814381260    0.0319810465
 C    0.7324817466   -0.4592565045   -1.2272162425
 C    2.2413906508   -0.1649989051   -1.2317325732
 C    2.9146747861   -0.7068126048    0.0377097877
 C    2.2425537752   -0.1514684507    1.3044312340
 C    0.7487143059   -0.4173197421    1.2740215979
 C    0.0079879094   -0.6543744048    2.5183196915
 O    0.3813938566   -1.7515065005    1.6790983801
 H    0.8336059277    2.1257143815   -0.0229572589
 H   -0.7158467428    1.9322625708   -0.8446809348
 H   -0.6476983579    1.9610965328    0.9235578235
 H   -0.9874938033   -0.3540899958    0.0651374602
 H    0.5864238783   -1.5460689170   -1.2630749691
 H    0.2586485326   -0.0473712737   -2.1258488677
 H    2.7005408935   -0.6099271874   -2.1214970199
 H    2.4152075747    0.9165493521   -1.3062382828
 H    2.8360517029   -1.8012563457    0.0510131004
 H    3.9829176552   -0.4645357129    0.0414028345
 H    2.6705078619   -0.6068322208    2.2028737962
 H    2.4190793946    0.9300028652    1.3744243448
 H    0.5250118618   -0.6016723707    3.4763693756
 H   -1.0607040717   -0.4436962230    2.5613203237