19

 C   -0.0065327677    1.5108814238   -0.1217614210
 C   -0.0219952977    0.0177451214    0.0733304531
 O    1.2479463072   -0.6639469840   -0.0142501426
 C    0.5666215222   -0.6435135914    1.2363624290
 C    1.2061559842    0.0021390126    2.4815653471
 C    0.9398255077   -1.1848317647    3.4343089575
 C    1.3597237938   -2.4304805836    2.6206769427
 C    0.1046701886   -1.9661299004    1.8508036083
 O   -0.4583437293   -1.5029206181    3.1201600036
 H    0.8159411335    1.9711864975    0.4309865060
 H    0.1116976911    1.7585056485   -1.1817069806
 H   -0.9494017386    1.9494045366    0.2227858793
 H   -0.8280222051   -0.5066361040   -0.4446744350
 H    2.2658034377    0.2245410336    2.3316435321
 H    0.6888915126    0.9048946667    2.8146206300
 H    1.1432059250   -1.0640831352    4.4975953178
 H    2.3241338040   -2.4374451941    2.1074700785
 H    1.1810028027   -3.3557821444    3.1687376467
 H   -0.5406993618   -2.6230353707    1.2692807675