24

 C   -2.1758220039    1.5156721093    0.3566047116
 C   -2.0083624546    0.0040757718    0.5292944340
 C   -2.2772693652   -0.7803924660   -0.7640985358
 C   -2.0332613149   -2.2658932736   -0.5788224622
 C   -3.0727042984   -3.2092612123   -0.0545799012
 C   -4.4674119518   -2.7582551857    0.3146940318
 O   -4.4183401046   -2.3400451061    1.6757952443
 N   -2.5949859398   -3.3153095915   -1.4331075468
 C   -3.4557995887   -2.9934906731   -2.5616188564
 H   -1.9803487346    2.0476388245    1.2930103604
 H   -1.4873844330    1.9099621729   -0.3996432806
 H   -3.1935756413    1.7687765992    0.0378636788
 H   -0.9899178501   -0.2139513899    0.8769700453
 H   -2.6851478894   -0.3675010760    1.3066007062
 H   -3.2997320459   -0.5786708815   -1.0985848680
 H   -1.6198361783   -0.4103453041   -1.5633723356
 H   -1.0030673415   -2.4811000144   -0.2902438087
 H   -2.7371467097   -4.0267247845    0.5838047897
 H   -4.8206454468   -1.9467534417   -0.3339272647
 H   -5.1655174264   -3.6016846964    0.1906463941
 H   -5.3158486809   -2.1448475670    1.9617199193
 H   -4.1120281635   -2.1201854359   -2.4399283726
 H   -2.8252260349   -2.8139927295   -3.4386773648
 H   -4.0874742917   -3.8610248383   -2.7799749382