15

 N   -0.1557405264    1.3048360580   -0.5493907986
 C   -0.0522420166   -0.0352226516   -0.1656310626
 C   -1.0298334164   -0.9719790944    0.0157021471
 C   -2.5187418388   -0.9786987253   -0.1560918105
 C   -2.9761168163   -0.1361395772   -1.2594272920
 C   -3.3507783612    0.5672149858   -2.1593829449
 O   -0.4801995624   -2.1203951084    0.4839638014
 N    0.8850298688   -1.9575573795    0.6129527697
 C    1.1287326176   -0.7275815091    0.2323618806
 H    0.6452375427    1.6221753713   -1.0798075505
 H   -1.0059488985    1.4922577359   -1.0676941835
 H   -2.8383093598   -2.0140857857   -0.3252316878
 H   -3.0144589437   -0.6580698696    0.7718788098
 H   -3.7012913109    1.1682877631   -2.9620205305
 H    2.1454882619   -0.3592982534    0.2485367222