19

 C   -0.0251851926    1.6357633993    0.0175950420
 C   -0.0267930356    0.1196791736   -0.0023219877
 C    1.2085949169   -0.6272291227   -0.5667797345
 O    1.9960929206   -0.2000478603    0.6054104149
 C    0.6889280328   -0.6500047196    1.1551342308
 C    0.4739837515   -0.5977133305    2.6337121998
 C    0.8129624107   -1.9115691027    0.2253459215
 C   -0.3413151900   -2.7078208933   -0.1263645641
 C   -1.2954419817   -3.3843645939   -0.4086244230
 H    0.9537712444    2.0164382999    0.3163664508
 H   -0.2683588883    2.0370721000   -0.9720895136
 H   -0.7774655097    2.0173868439    0.7166782810
 H   -0.9919123856   -0.2996622601   -0.2989252121
 H    1.6844254106   -0.5605773534   -1.5453831717
 H    0.4888689937    0.4366818938    2.9905283649
 H   -0.4957351560   -1.0388709190    2.8841400735
 H    1.2565089812   -1.1568428681    3.1552576988
 H    1.6847634817   -2.5185482956    0.4797117514
 H   -2.1372537146   -3.9802611915   -0.6614608827