15

 O   -0.1311268174    0.1078509398   -0.1213592158
 C   -0.0020951953    1.2777048709    0.0232481267
 O   -1.0125026899    2.2189458858    0.2367628877
 C   -0.0401666284    3.2865981116    0.0508941823
 C    0.9727968985    3.2824116174    1.1248882429
 C    1.1125399999    2.2963042925   -0.0408482280
 C    1.9130915935    2.6993756324   -1.2584227329
 O    1.4265637060    4.0155778852   -1.5914607108
 C    0.0540106868    4.1284691973   -1.1949443074
 H    1.7005315986    4.0876447391    1.1166704782
 H    0.6977498934    2.9055104638    2.1027249744
 H    2.9897735904    2.7973967299   -1.1010118146
 H    1.7388816752    1.9855468062   -2.0754743357
 H   -0.6373186528    3.7211823697   -1.9477841841
 H   -0.1473845186    5.1941260283   -1.0622308030