20

 C   -0.2396971751    1.4902954246    0.0018842055
 C    0.0591435681   -0.0041263075   -0.0205921115
 O    0.8455147856   -0.2592329324   -1.1808339663
 C    0.7851114431   -0.5066104581    1.2308480714
 C    2.0126076694    0.2759735218    1.6535825413
 C   -0.0654392440   -1.1853046694    2.2927279323
 C    0.8281141467   -2.0008471069    1.3899238158
 O    0.2818724586   -2.7630065133    0.3445119308
 H    0.6842128630    2.0749451312    0.0122698814
 H   -0.8020750292    1.7674110698   -0.8936231951
 H   -0.8316201749    1.7550026483    0.8833673612
 H   -0.8923958558   -0.5479406881   -0.0965619281
 H    0.9118952896   -1.2191523739   -1.2486531060
 H    1.7476334188    1.2598546352    2.0542298380
 H    2.5716714216   -0.2547240000    2.4306615344
 H    2.6764710611    0.4235711060    0.7958120874
 H    0.2115445703   -1.0820357283    3.3370089554
 H   -1.1344253454   -1.2405618313    2.1112131329
 H    1.7293191235   -2.4302888241    1.8276089686
 H   -0.1792633651   -3.5197585835    0.7198380203