19

 O   -0.1704607084    1.2955077234   -0.2776159255
 C   -0.0782880008   -0.0493089357   -0.0079471807
 C   -0.3410939238   -1.0666008350   -1.0511400649
 C   -1.3635360692   -0.9664276133    0.0912614989
 C   -1.1776756006   -1.9042057982    1.2705721838
 C    0.3309227610   -1.8150309831    1.6218582588
 C    0.7912409896   -0.4096682772    1.1794598925
 C   -2.6197933731   -0.2776248504   -0.1803497587
 O   -2.7544562060    0.5728378515   -1.0471716608
 H   -0.9462825745    1.4242543866   -0.8501980084
 H   -0.6940358910   -0.6927526269   -2.0067137712
 H    0.2478660041   -1.9769356197   -1.1010784342
 H   -1.7913875066   -1.5561101759    2.1104003952
 H   -1.4797827401   -2.9354656800    1.0565076804
 H    0.5197362966   -1.9947961479    2.6827745232
 H    0.8864476469   -2.5816907542    1.0727723994
 H    1.8589211275   -0.3749934046    0.9395811879
 H    0.6056209243    0.3372094452    1.9587889589
 H   -3.4649037358   -0.5217296446    0.4979293154