17

 C   -0.0158398745    1.4651631685    0.0731080619
 C   -0.0178370838   -0.0246808533   -0.0068041915
 C    0.0426292296   -0.7845652148   -1.1200094598
 C   -0.0108437460   -2.2132357279   -0.7580753855
 O   -0.1440339858   -3.1929641406   -1.4620190138
 C    0.0312361428   -2.2905937170    0.7544817418
 O   -0.6365971533   -3.3566554393    1.3269906501
 C    1.2525159729   -1.6893991806    1.4232365188
 C   -0.0290416334   -0.8738953190    1.2338834307
 H    0.8323725776    1.8164338385    0.6735868606
 H    0.0376093037    1.9282366898   -0.9146522902
 H   -0.9212072879    1.8244106230    0.5776962288
 H    0.1024806380   -0.4301336077   -2.1405994031
 H   -0.6906111883   -4.0211267288    0.6234006963
 H    1.4426894501   -2.0671410034    2.4230254881
 H    2.1304562963   -1.4227269264    0.8437002160
 H   -0.5939540479   -0.5712747308    2.1074998309