17

 C   -0.0471456313    1.5369521714    0.0678759721
 C   -0.0198644151    0.0109822419   -0.0334296158
 C    0.7401871774   -0.4998224548   -1.2627194700
 C    0.8098234219   -2.0495411447   -1.3647906632
 O    0.2643205942   -2.3517735829   -2.6756573246
 C   -0.1200684421   -1.1539522389   -3.1751147632
 N    0.0801237635   -0.0867271521   -2.5191315667
 C   -0.7477088633   -1.2033079791   -4.4674708292
 N   -1.2514943079   -1.2445006849   -5.5058469502
 H    0.9662465783    1.9446528277    0.1519957562
 H   -0.5116118697    1.9753428270   -0.8187411159
 H   -0.6105702068    1.8591197943    0.9481834321
 H    0.4531363113   -0.4192349952    0.8588749404
 H   -1.0422312916   -0.3859513333   -0.0686452227
 H    1.7458270069   -0.0608882503   -1.2616010780
 H    1.8234841399   -2.4527460070   -1.3228956837
 H    0.1879748343   -2.5543243592   -0.6189033576