18

 O   -0.1299786423    1.4963177826   -0.1031050097
 C   -0.0407350808    0.0917342346   -0.3459591345
 C   -1.4049492321   -0.4766474467    0.0161691477
 O   -1.7583155909   -0.1097880794    1.3191319010
 C   -2.4784668138   -0.2967373000   -1.0972770498
 N   -2.1502561498   -1.6607586266   -1.5802114659
 C   -1.5507333742   -2.0064018733   -0.2624432353
 C   -0.3785397412   -2.8657028192   -0.2851494365
 C    0.5946182400   -3.5722922488   -0.2891869073
 H    0.7566699451    1.8664068245   -0.1160045493
 H    0.1961700824   -0.1285350999   -1.3943651787
 H    0.7231586150   -0.3731072551    0.2915511731
 H   -1.4103375628    0.7840259134    1.4429278093
 H   -3.4716222270   -0.1937028564   -0.6417352188
 H   -2.3254757897    0.4963438109   -1.8351126959
 H   -2.9429848167   -2.2358792395   -1.8435647082
 H   -2.2787565174   -2.3964960946    0.4641386461
 H    1.4498460061   -4.2017621266   -0.2993759673