21

 C    0.0186868814    1.5642988512    0.0376273554
 C    0.0386394346    0.0637207197   -0.0064116513
 C   -0.9346988351   -0.8006167708    0.7424168922
 C    0.5388962649   -0.9529464425    1.0297451284
 C    1.2411355492   -1.7610425794   -0.0681526701
 C    0.9181977348   -3.2590899703   -0.1907001793
 C    1.5484121396   -3.8768588004   -1.3516137498
 C    2.0816232024   -4.3557338591   -2.3170878783
 C    0.6730491578   -0.7674286528   -1.1361873527
 H    1.0096288429    1.9845011202   -0.1707090758
 H   -0.6757622251    1.9744323285   -0.7062373713
 H   -0.2997516940    1.9285993256    1.0201514840
 H   -1.4962579291   -0.2960674175    1.5231183508
 H   -1.4977808738   -1.5812257267    0.2350040961
 H    0.9373951983   -0.7746890718    2.0226689997
 H    2.3260024401   -1.6453412012    0.0033915519
 H    1.2456208237   -3.7735478989    0.7227557657
 H   -0.1678315870   -3.4035072401   -0.2467968846
 H    2.5464704651   -4.7916608608   -3.1661047709
 H   -0.0249110832   -1.1878112238   -1.8683205032
 H    1.4622299425   -0.2395069191   -1.6763910771