18

 C    0.0440852177    1.5161906069   -0.2594842305
 N    0.0523857865    0.0662772186   -0.0684875665
 C   -1.0265254285   -0.4927843788    0.7996894047
 C   -0.1271856430   -1.7072133668    1.2009107698
 C   -0.4454800994   -1.5324590288    2.6941884336
 O    0.4816342790   -1.9368091731    3.6763889540
 C   -0.3915284744   -0.0856199052    2.1769742593
 O   -0.6319902557    1.0702133045    2.8860967154
 C    0.7785085943   -0.4359501737    1.1333676287
 H    1.0073262623    1.8223870969   -0.6820901086
 H   -0.7317541514    1.7730643214   -0.9886146357
 H   -0.1347323855    2.0920474365    0.6600683482
 H   -2.0809970231   -0.5127340362    0.5213190261
 H    0.0069219902   -2.6078384768    0.6087321569
 H   -1.4243325810   -1.8876921303    3.0296849116
 H    1.3704651484   -1.7950418773    3.3325720027
 H   -0.2707487774    0.9510892719    3.7730740277
 H    1.8629253712   -0.3620654397    1.2405140726