21

 O   -0.1034080852    1.4549225653   -0.1064125032
 C    0.0019576618    0.0549994621    0.0465972480
 C    0.2684956299   -0.5365866537    1.4817886824
 C   -1.0607743899   -1.3030042463    1.3669594742
 C   -2.1913344219   -0.3338693873    1.1768451423
 C   -1.3350969171   -0.6817310378   -0.0103629460
 C   -1.7879635095   -1.7700858869   -0.9597364520
 C   -2.1870890967   -2.9456799788   -0.0122140694
 C   -1.3184513186   -2.7923340903    1.2745690266
 H    0.7708289061    1.8368234897    0.0232968744
 H    0.7081902299   -0.3679744613   -0.6823345847
 H    1.1506984695   -1.1813986299    1.5160785781
 H    0.3306933972    0.1960291843    2.2934975583
 H   -3.1971193748   -0.7389290311    1.1765492674
 H   -2.1154138346    0.6617066573    1.6022370191
 H   -2.6126390058   -1.4926087361   -1.6253064751
 H   -0.9466117898   -2.0659916864   -1.5985610665
 H   -3.2486737419   -2.8704323484    0.2451642614
 H   -2.0549072760   -3.9227319821   -0.4857230923
 H   -0.3613628412   -3.3142402732    1.1513635910
 H   -1.8110717415   -3.2328478091    2.1487195061