16

 C   -0.0188693137    1.4779178214    0.0249678848
 O    1.1772663429    0.6947539325   -0.0845298105
 C   -0.0803857660    0.0162424145   -0.0128297133
 C   -0.3544204278   -0.8553272681    1.2132996285
 O   -0.3582213951   -2.2068489857    0.7547734973
 C   -0.6028354772   -2.2116723367   -0.6295849841
 C   -1.8222519045   -1.5003559493   -1.1445665563
 C   -0.4568367917   -0.8249553926   -1.1953599864
 H   -0.1463796113    2.0052254435    0.9706240425
 H   -0.2872154725    2.0522628942   -0.8608391480
 H    0.4263829727   -0.7386329602    1.9694752450
 H   -1.3238736462   -0.6024991292    1.6661619320
 H   -0.2266027831   -3.1076463708   -1.1075034955
 H   -2.2290566959   -1.8339920651   -2.0928672271
 H   -2.5652714527   -1.1423134464   -0.4398172117
 H    0.0185963022   -0.6087990519   -2.1434968171