16

 O    0.0989690950    0.1001771200    0.1161856139
 C   -0.0050764293    1.2888502509    0.0181564421
 C   -1.2491951558    2.1916234411    0.0690424076
 C   -0.4768122573    3.4952254980   -0.0656195951
 O    0.6419562438    3.2872928447    0.9363457921
 C    1.1216598847    2.3353094078   -0.1271344713
 C    2.1989083599    1.8745811368   -1.1433903312
 N    1.1174527393    2.2724298874   -2.1719584421
 C    0.6528908665    3.2739204051   -1.1544716932
 H   -1.9424864408    1.9756891291   -0.7486599870
 H   -1.7741126790    2.1132146440    1.0233168367
 H   -0.9761811806    4.4534165064    0.0681110741
 H    3.0911628984    2.5053240394   -1.1930292900
 H    2.4461058591    0.8114118150   -1.1432223846
 H    1.4915781296    2.6858813049   -3.0226738286
 H    1.2657684464    4.1820546295   -1.1597958332