19

 C    0.0161844264    1.1218050751    0.3071947394
 N   -0.2487557823   -0.1865826923   -0.2855908224
 C    0.6659083805   -0.5760925866   -1.3182851431
 C    2.1191768787   -0.9718082864   -0.9793280249
 C    1.1359596331   -2.0344240739   -1.3289287236
 O    0.6915776730   -2.8551672804   -0.3057739233
 C   -0.4858761894   -3.5789403926   -0.6523625985
 C    0.4404790510    0.0529153623   -2.5981921227
 N    0.2822227833    0.5506204290   -3.6308124849
 H    1.0297129359    1.2254289661    0.7287604256
 H   -0.1134470475    1.8989990183   -0.4523906436
 H   -0.7119761471    1.3052837395    1.1015233985
 H   -0.2584063560   -0.9142295231    0.4206109829
 H    2.9109088948   -0.7479567739   -1.6846134812
 H    2.3825332075   -0.8756875642    0.0682279247
 H    1.2158550325   -2.5156856045   -2.3030774645
 H   -0.7336398444   -4.2055450871    0.2063567430
 H   -1.3218796866   -2.9023950295   -0.8686911206
 H   -0.3094822035   -4.2194720260   -1.5270489509