16

 N    0.0160432449    1.4865522713   -0.0595388823
 C   -0.0394198341    0.0790212469   -0.0777282371
 C   -1.0891454802   -0.8225961136    0.0352751979
 C   -0.5953612333   -2.1591225330   -0.1657329490
 C    0.7570639837   -2.0169247951   -0.3399468026
 C    2.1449339085   -2.4023604535   -0.8293460832
 C    2.4290965043   -0.8513223899   -0.8343070647
 N    1.0765652051   -0.6839634353   -0.2751008926
 H    0.5250793449    1.8431551500    0.7444446378
 H   -0.9191099949    1.8739590896   -0.0289917238
 H   -2.1069735796   -0.5533575949    0.2792382108
 H   -1.1811215596   -3.0649729848   -0.1643704688
 H    2.7675235343   -2.9769587962   -0.1373957560
 H    2.1935172853   -2.8682831605   -1.8170450408
 H    3.2327016967   -0.4991090765   -0.1812234103
 H    2.5455442641   -0.4132895146   -1.8295673252