20

 C   -0.1670573641    1.4321528161    0.2986690832
 C    0.0409885140   -0.0404182675   -0.0443630265
 C    0.7894050324   -0.2311797243   -1.3641966980
 O    1.1696875039    0.6804737594   -2.0518100989
 N    0.9817033084   -1.5848832990   -1.6814018826
 C    1.6217652695   -2.1321439664   -2.8043145662
 O    2.1138693185   -1.4744759503   -3.6839998468
 C    1.6256306712   -3.6612559422   -2.7878386510
 C    2.3220985370   -4.2542763290   -4.0095902221
 H    0.7910109972    1.9501160424    0.3835912946
 H   -0.7406217389    1.9355880527   -0.4829785279
 H   -0.7039274544    1.5327171446    1.2458855824
 H    0.6037800086   -0.5513121367    0.7487561721
 H   -0.9212728195   -0.5657855212   -0.1138961628
 H    0.6120627834   -2.2494470341   -1.0178185896
 H    2.1103718635   -3.9954330799   -1.8603994501
 H    0.5854448383   -4.0085809236   -2.7233008084
 H    1.8293439295   -3.9345833608   -4.9306692467
 H    3.3610027688   -3.9209661425   -4.0641299440
 H    2.3073181431   -5.3467370078   -3.9663247705