19

 C   -0.1040136428    1.5650098979    0.0450760060
 C    0.0090747192    0.0527634915   -0.0077818058
 C   -1.1859873854   -0.6744285622    0.5804241572
 C    0.6719160177   -0.6281765706   -1.2038915487
 C    1.2309748727    0.1317634352   -2.3476809685
 O    1.1038372341   -0.2182046310   -3.4967998049
 C    1.3621039994   -0.6009045613    0.1771147574
 C    2.5546664004    0.1652375183    0.3971407557
 C    3.5577333463    0.7944262332    0.6105623183
 H    0.8111709515    2.0670288363   -0.2718560744
 H   -0.9278272093    1.9131538797   -0.5869152171
 H   -0.3132544313    1.8841742693    1.0718602544
 H   -2.1008450899   -0.4209289221    0.0337005240
 H   -1.0603162107   -1.7604096129    0.5391164041
 H   -1.3320394028   -0.3893846812    1.6283363482
 H    0.2541976860   -1.5842344900   -1.5025852127
 H    1.7904933392    1.0539215223   -2.0887062163
 H    1.3548743036   -1.5626643840    0.6834173168
 H    4.4462982720    1.3462575317    0.7940739562