17

 C   -0.0251552483    1.4409606349    0.0787560763
 C   -0.0784927136   -0.0453291536   -0.1042965467
 N   -1.0120565818   -0.7565377974    0.3789316075
 C   -1.0218301271   -2.1578309368    0.0910449371
 C   -1.0760061140   -2.6123658531   -1.3573737639
 C    0.1853831243   -2.7884016310   -0.5564206551
 C    1.3562657126   -1.8572376511   -0.7549772025
 O    0.9685594732   -0.4792094212   -0.8689670144
 H    0.8857055618    1.7275458147    0.6148751068
 H    0.0047786216    1.9410117520   -0.8950253463
 H   -0.9011215906    1.7733569205    0.6345713499
 H   -1.5925168964   -2.7351939225    0.8101805355
 H   -1.6586145826   -3.4956700863   -1.5946613189
 H   -1.1028197873   -1.8335076628   -2.1121996433
 H    0.4638394696   -3.7954813888   -0.2596797743
 H    2.0473451893   -1.9520516813    0.0942700297
 H    1.9143864691   -2.0750115664   -1.6710717572