16

 C    0.0351182477    1.4884076106    0.0640129333
 C   -0.0315277093    0.0004746078   -0.0497091352
 C    0.5766552440   -0.9608635873   -1.1142472106
 C    0.0520114283   -1.8237463470    0.0576867240
 O    0.6196927302   -0.8352269766    1.0030055434
 C   -1.2246827082   -0.9730021587    0.0619069360
 C   -2.5113833788   -0.9911627831    0.7255385909
 O   -2.3781525999   -1.0664360545   -0.7239571536
 H    1.0710607309    1.8355579224    0.0111927778
 H   -0.5285071773    1.9500020254   -0.7526886205
 H   -0.3947492725    1.8198683636    1.0141053748
 H    0.0712605671   -1.0410267494   -2.0798329492
 H    1.6641551019   -0.9169739975   -1.1918124254
 H    0.2060451224   -2.8794727364    0.2740605105
 H   -2.8704014249   -1.9024254106    1.1998185410
 H   -2.9517454117   -0.0673305489    1.0959990028