18

 O    0.0107224354    1.4152482317   -0.0535127144
 C    0.0469084002    0.0018111641   -0.0703313496
 C    0.7422919005   -0.6238359962    1.1699741859
 C    0.0668115561   -1.9899793985    1.4057586278
 C   -1.3345301901   -1.8221729115    0.8199341893
 N   -1.9754695087   -0.5374744854    1.2406054839
 C   -1.3335909568   -0.6371305379   -0.0850700607
 C   -2.1636499621   -2.9670469637    0.5929708455
 C   -2.8475721604   -3.9432811867    0.4283664751
 H   -0.5462596431    1.6605965505    0.6957882353
 H    0.5769949702   -0.2655708564   -0.9911863413
 H    1.8229388536   -0.7040817736    1.0348395938
 H    0.5667105261    0.0348410310    2.0242317701
 H    0.5752881973   -2.7898414846    0.8571665666
 H    0.0407206263   -2.2767071583    2.4608817376
 H   -2.9822800728   -0.6366343915    1.1320904221
 H   -1.9481705567   -0.5994178676   -0.9778767764
 H   -3.4532789449   -4.8019440053    0.2754198594