19

 C   -0.0113065761    1.5707956534    0.1036523202
 C    0.0882974507    0.0620150461    0.0836994238
 O   -1.0830971547   -0.5669329787   -0.3867451195
 C    1.3367295199   -0.7241619389   -0.2290219482
 C    2.6015384237   -0.0679679766    0.3435805211
 C    1.9385418157   -0.1381141020    1.7352796221
 C    2.5745347801   -0.3559683710    3.0325406665
 O    1.9623771114    0.9002180809    2.7065789775
 C    0.6892757920   -0.7725684859    1.1813606154
 H    0.8544446587    2.0413185661    0.5723416489
 H   -0.1032567650    1.9642933557   -0.9168561454
 H   -0.9023643903    1.8698678193    0.6635966312
 H   -1.1937429242   -0.3209702845   -1.3119076406
 H    1.3181227597   -1.5035757052   -0.9800803420
 H    3.4857582680   -0.7069138914    0.2723896068
 H    2.8551383257    0.9297906715   -0.0260360070
 H    2.0620306534   -0.9381788312    3.7980010466
 H    3.6615084964   -0.3424562248    3.1107087317
 H    0.1061446449   -1.5597018329    1.6431651508