17

 C    0.1176939006    1.5761130298   -0.2421308308
 C    0.0259479578    0.0676787984   -0.0213062110
 N    0.6066446059   -0.6811144147   -1.1531443269
 C    1.4353425408   -1.5269384214   -0.6899663432
 N    1.5814404235   -1.6436225865    0.7077353860
 C    2.8685669938   -1.1186603487    1.2741024229
 C    2.0941759621    0.1388133357    1.7360521558
 O    2.4001312341    1.1629030823    2.2654406358
 C    0.7792576339   -0.4857996940    1.2286390815
 H    1.1581503976    1.8954678896   -0.3470401421
 H   -0.4189834559    1.8496126447   -1.1539696509
 H   -0.3206138805    2.1200816723    0.5999040292
 H   -1.0312082978   -0.2125041368    0.0593327539
 H    2.0289954050   -2.1821158466   -1.3226172121
 H    3.2589605325   -1.7258754167    2.0963097349
 H    3.6632225605   -0.9451016520    0.5404878171
 H    0.1041098562   -0.7520325654    2.0467447896