21

 C   -0.3719881096    1.3075842601    0.1470247965
 O   -0.0911191309   -0.0974899072    0.1606825888
 C    0.7677573234   -0.5041245394    1.1197829620
 O    1.2603912506    0.2403846344    1.9292967716
 C    1.0388947600   -1.9934400495    1.0045122723
 C    1.4866351317   -2.5948327538    2.3184348013
 C    0.4918032088   -3.2423676219    3.2529304855
 C    1.5309714577   -4.0870691864    2.5532071240
 C    1.1367184688   -5.1003794345    1.4997017293
 H    0.5421780752    1.8834897358   -0.0189275917
 H   -1.0743595612    1.4624196582   -0.6722027441
 H   -0.8147415538    1.6215775402    1.0956124361
 H    0.1475039153   -2.4793445098    0.6008828399
 H    1.8194192095   -2.1076501387    0.2382162429
 H    2.2708746278   -2.0159450861    2.7950635054
 H    0.5815538321   -3.0631375710    4.3185579217
 H   -0.5335038696   -3.3325807997    2.9047269604
 H    2.3574601493   -4.4151503917    3.1790439648
 H    0.2714659785   -4.7712898897    0.9166775003
 H    1.9569237618   -5.2905394696    0.7979785269
 H    0.8702187545   -6.0563435299    1.9636831461