15

 N    0.5422681897   -0.1323216371    0.7372590164
 C   -0.1751337791    0.2933061324   -0.3268894866
 O    0.1684723163    1.1668013678   -1.0998397811
 C   -1.5467126633   -0.3883263501   -0.4914000725
 C   -1.7869776779   -0.8457283160   -1.9437787622
 N   -1.4440186649   -2.2490664963   -1.8129922728
 C   -1.5235114319   -2.6895905346   -0.5174961505
 O   -1.4784473277   -3.8086479616   -0.0939203285
 O   -1.6539099043   -1.5804923842    0.2981644884
 H    1.4517374264    0.2659100423    0.9019452992
 H    0.2158386797   -0.9010172579    1.2985849680
 H   -2.3076774456    0.3176572797   -0.1501216353
 H   -2.8299990688   -0.6969188521   -2.2504439880
 H   -1.1303163578   -0.3043356283   -2.6270648232
 H   -1.5751826710   -2.9196354739   -2.5515093812