19

 C    0.0386979820    1.4459441442    0.1195472661
 C   -0.1934976134   -0.0302251729   -0.1842094495
 N    0.7725860622   -0.5044655314   -1.1699578303
 C    0.8984884566   -1.8315515250   -1.4648170254
 N    1.3912139477   -2.3551849336   -2.5484721614
 C    1.3618240232   -3.7313438932   -2.3013674394
 C    1.8536210579   -4.7126723281   -3.3096551368
 C    0.8381878751   -3.9504868543   -1.0762859162
 O    0.5276242111   -2.7181868770   -0.5159712219
 H    1.0501341481    1.6103544455    0.5015758407
 H   -0.0900858663    2.0609208391   -0.7785950477
 H   -0.6786566134    1.7976260866    0.8660923963
 H   -0.0632737179   -0.6276351464    0.7218684451
 H   -1.2297006814   -0.1878857608   -0.5228908347
 H    0.8883701110    0.0742353956   -1.9894586736
 H    2.9102039304   -4.5382940163   -3.5400926620
 H    1.7441224893   -5.7384651256   -2.9482668729
 H    1.2997744720   -4.6160026581   -4.2497591061
 H    0.6127435457   -4.8145809785   -0.4773462303