16

 O   -0.1832353526    1.4736261391    0.0102482702
 C   -0.0168834757    0.0904097283    0.0188734768
 C   -0.4289190652   -0.6964751810   -1.2031912460
 C   -1.2738801478   -0.8214209337    0.0484043730
 N   -0.9900591565   -2.0469798387    0.7943233303
 C    0.1485156778   -1.8155293119    1.2981962152
 O    1.2339962087   -2.5889700377    1.6153634447
 C    2.0877721294   -1.5049017596    1.0687710167
 C    0.8667156671   -0.5241639133    1.0835280173
 H    0.4516888190    1.8501788312   -0.6089480334
 H   -0.8347910920   -0.0877653981   -2.0046782482
 H    0.1277454269   -1.5715633828   -1.5237290427
 H   -2.2787440847   -0.4182744526    0.0715518208
 H    2.9090541434   -1.2772635844    1.7491732530
 H    2.4511937944   -1.7905744575    0.0786833970
 H    0.9071793978    0.1320667227    1.9565852653