22

 C   -0.3864845895    1.3361677308   -0.1989135144
 C    0.4485509377    0.0740693135   -0.1968065025
 C    1.9089932745    0.1076279491    0.1040229752
 N    0.9763939361   -0.5345610957    1.0257650760
 C    0.7397288060    0.0979613290    2.3182257895
 C    1.5920892020   -0.5617338556    3.3908862271
 C    1.3336499958   -2.0285001234    3.6403630169
 C    2.8935349602    0.0338882100    3.7292419079
 O    1.7534727342    0.2459828216    4.5665386558
 H    0.0198443456    2.1085686861    0.4584234477
 H   -0.4280441958    1.7512659579   -1.2114462898
 H   -1.4160810456    1.1301137676    0.1142800851
 H    0.1051763250   -0.6738927754   -0.9111129362
 H    2.6077691101   -0.5474676462   -0.4100161859
 H    2.3254479610    1.0719568975    0.3963780194
 H    0.9452150853    1.1791242110    2.3353370220
 H   -0.3183722527   -0.0383251596    2.5766076005
 H    1.4619846871   -2.5934853537    2.7136208125
 H    2.0109977983   -2.4203180106    4.4029960665
 H    0.3048207576   -2.1785050038    3.9867222062
 H    3.6763267621   -0.5918287396    4.1562633115
 H    3.2490934649    0.9136471895    3.1932727189