16

 C   -0.0226848135    1.5433836751    0.0472158079
 C   -0.0123311042    0.0148028493    0.0311230063
 O    0.7311344289   -0.5070404461    1.1339065405
 C   -1.4256747379   -0.5748152527   -0.0238316816
 C   -1.4364513705   -2.0955462993   -0.1056188396
 O   -2.7923755079   -2.5207993194   -0.1214657391
 H    0.9987141287    1.9286345818    0.1077912106
 H   -0.4960448649    1.9475720010   -0.8533426900
 H   -0.5826633292    1.9180192031    0.9134416357
 H    0.5480856309   -0.3258938822   -0.8493270530
 H    0.3050553978   -0.1965708120    1.9410543949
 H   -1.9881580602   -0.2647643236    0.8681033770
 H   -1.9634781285   -0.1664953550   -0.8878549109
 H   -0.9067263378   -2.4194573023   -1.0171018491
 H   -0.8901649266   -2.5103090276    0.7527063706
 H   -2.8029259551   -3.4821917300   -0.1227744402