14

 N    0.1788118484    1.3406090919   -0.1455995263
 C   -0.0065640722   -0.0258849014   -0.0631013188
 C   -1.1412039077   -0.7948338406   -0.0409443889
 O   -2.4118135620   -0.2801613918    0.0449183152
 C   -0.7071178616   -2.1510565872   -0.0285568021
 C    0.6616657360   -2.1262676694   -0.0427890315
 O    1.0912921864   -0.8055653350   -0.0609118348
 C    1.6370170029   -3.1294680334   -0.0314973576
 C    2.4704251105   -4.0016916031   -0.0229230824
 H    0.9533786409    1.6785688247    0.4123558712
 H   -0.6739658937    1.8402279182    0.0703767846
 H   -2.9348877285   -0.6065174999   -0.6948371498
 H   -1.3224363401   -3.0364623829    0.0005625588
 H    3.2025815209   -4.7701083100   -0.0130926477