20

 C   -0.1264355251    0.5701008716    0.7475089109
 O   -1.3862527819    0.3439964045    0.1502462961
 C   -1.3622507576   -0.6382006106   -0.8570162569
 C   -1.0956057599   -2.0312792400   -0.3467123076
 N   -0.2749580925   -2.8567147428   -0.8549737373
 C   -0.3975971970   -4.1088947171   -0.0827409338
 C    0.9612277472   -4.5978229244    0.4135459311
 C   -1.3953799543   -3.7475547132    1.0522604174
 O   -1.8389495364   -2.4122184856    0.7257770752
 H   -0.2591037715    1.3764351427    1.4722130672
 H    0.2487246815   -0.3199072300    1.2728030332
 H    0.6253828305    0.8757012797    0.0038243450
 H   -2.3558035977   -0.6185789295   -1.3185534488
 H   -0.6122852320   -0.4237441757   -1.6307576847
 H   -0.8247553934   -4.8732333448   -0.7445660225
 H    1.4237863213   -3.8512141760    1.0675892941
 H    0.8577000860   -5.5319864295    0.9758819773
 H    1.6338294529   -4.7747932140   -0.4295936357
 H   -2.2720166754   -4.3978771270    1.0992425919
 H   -0.9198497648   -3.7204815384    2.0393341977