16

 C    0.2539231984    1.5173163491   -0.4714605965
 N    0.0675744992    0.1170802899   -0.1045184008
 C    1.2551439139   -0.7115612099    0.0192408989
 C    0.4741355632   -0.3399447615    1.2372372612
 C    1.0410836223    0.5542737030    2.2626614622
 C    0.6030238323    0.8170345475    3.5249821040
 O    1.4295645414    1.6781200962    4.1108511996
 N    2.4425562364    1.9732992545    3.1475215148
 N    2.1896079728    1.3117043809    2.1102653738
 H    1.1890754997    1.9634398513   -0.1070131671
 H    0.2418242945    1.5847816801   -1.5634972521
 H   -0.5867466811    2.1032987794   -0.0869351129
 H    1.1826187091   -1.7198305206   -0.3804592047
 H    2.2276956100   -0.2361545689   -0.0949949779
 H   -0.2139507109   -1.0713262262    1.6552509296
 H   -0.2383670713    0.4690573552    4.1015241778