19

 C   -0.0768964419    1.5803237241    0.0161463826
 C   -0.0601261547    0.0517711536   -0.0058493840
 O   -1.4039180950   -0.2898532736   -0.1784232326
 C    1.0561338003   -0.5896684187   -0.9211709045
 C    2.0517561805   -0.2612628523    0.2522803433
 C    0.7999931080   -0.6217654574    1.1348717663
 C    0.7563329991   -2.1280492853    0.7998660046
 O   -0.2996677334   -2.5908220907   -0.0768669733
 C    0.9372976976   -2.1052699358   -0.6537953809
 H    0.8963017838    2.0520319256    0.1453391076
 H   -0.5141033738    1.9356077428   -0.9214083108
 H   -0.7327545433    1.9078811585    0.8279532658
 H   -1.4352761489   -1.2577416890   -0.1974460532
 H    1.2231694652   -0.2622860083   -1.9472098142
 H    2.9118777008   -0.9283616485    0.3490757050
 H    2.3834516572    0.7730061193    0.3097279664
 H    0.7090655863   -0.3267535773    2.1801320059
 H    1.1576109586   -2.8791566051    1.4711890682
 H    1.4934085433   -2.8372662619   -1.2289100122