21

 C   -0.3648514482    1.4416111479   -0.1399967081
 C    0.0774114056   -0.0123780075   -0.0707242703
 C    1.4207200498   -0.3977861992   -0.7255022934
 O    1.9015906187   -1.0043168790    0.4901013223
 C    0.7196656706   -0.5877811102    1.2338154241
 C    1.0938845641    0.4081192301    2.3255183952
 C   -0.0011393428   -1.8177040682    1.8091047044
 C    0.8650371224   -2.6063327021    2.7693025924
 O    0.5302495466   -2.9374310121    3.8789047143
 H    0.4355741038    2.1293532189    0.1482916498
 H   -0.6653258412    1.6972475133   -1.1618847100
 H   -1.2245636317    1.6309633249    0.5113445922
 H   -0.7394446733   -0.6556738945   -0.4108900831
 H    1.3793400883   -1.1130453627   -1.5550690998
 H    2.0423136082    0.4563567522   -1.0272366392
 H    1.6525911565    1.2519597974    1.9147368472
 H    0.2016722945    0.7917139884    2.8313285207
 H    1.7247776216   -0.0750775242    3.0782083529
 H   -0.9274535109   -1.5317493584    2.3173519138
 H   -0.2524718458   -2.4871880598    0.9753960950
 H    1.8635185332   -2.8752127350    2.3623990894