15

 O   -0.1229885380    1.3839547975    0.0943471106
 C    0.0516937957    0.0260305528    0.0117250036
 C    0.0514521971   -0.8739030178   -1.1490975427
 O    1.1252897763   -1.7744143103   -1.1716351650
 C    1.8329569828   -1.6226497687    0.0716856773
 C    0.8417885725   -0.9049269269    0.9942511566
 C   -0.4767864173   -1.7183816534    1.1092990004
 O   -0.8962882370   -2.4762500901    1.9372143476
 C   -1.0699850363   -1.0485161695   -0.0837929430
 H    0.6138606444    1.8199389217   -0.3491154633
 H   -0.2897200915   -0.5643100535   -2.1296481033
 H    2.1168365999   -2.6173422863    0.4261236617
 H    2.7436681796   -1.0251178127   -0.0815366355
 H    1.2454573629   -0.4890927100    1.9156473987
 H   -2.1131340511   -0.9500906628   -0.3592649237