19

 C   -0.1039290638    1.4616016671   -0.0930584732
 O   -0.0650225807    0.1107066802    0.3073574624
 C   -1.2966128537   -0.5849945407    0.1045137449
 C   -1.6738585503   -0.7322096820   -1.3479421770
 C   -0.9278570754   -1.3805627827   -2.2696543951
 C    0.2149576123   -2.2174185524   -2.0341927321
 C    0.4912857049   -2.8905605758   -0.8851295529
 C   -0.3025471503   -2.8923381802    0.3114985360
 C   -1.1681351155   -1.9438361937    0.7280221216
 H    0.8624927804    1.8995657441    0.1686579843
 H   -0.2603251877    1.5739015733   -1.1750766422
 H   -0.8980073213    2.0194765387    0.4308072498
 H   -2.0981276259   -0.0288936285    0.6156301753
 H   -2.5815916540   -0.2320587499   -1.6761483584
 H   -1.2345648121   -1.2905855350   -3.3105419352
 H    0.8465375909   -2.4203706669   -2.8955865143
 H    1.3266086718   -3.5862989434   -0.9043023638
 H   -0.1995688919   -3.7770539408    0.9374710552
 H   -1.7747293178   -2.1399399112    1.6073057548