21

 C   -0.0067702457    1.6492324118    0.0180567943
 C   -0.1833259949    0.1301807021   -0.0791844977
 C    0.6855664974   -0.4970238429   -1.1668698762
 C    2.2400976340   -0.5996795106   -0.9916821250
 C    2.1811329489   -2.0889547932   -1.3546215018
 C    1.3164184089   -2.8241955446   -0.3641121924
 O    1.2383671422   -2.4965324100    0.9973127490
 C    0.6382422991   -2.0109422224   -1.4156466181
 O   -0.2058360675   -2.5914558694   -2.3506730649
 H    1.0308922729    1.9139454374    0.2500407973
 H   -0.2689857147    2.1422253237   -0.9251971069
 H   -0.6396140501    2.0749207571    0.8031721627
 H    0.0476389649   -0.3402292245    0.8808620853
 H   -1.2359075959   -0.0994958001   -0.2953874411
 H    0.4798661743   -0.0083676320   -2.1266432807
 H    2.7993964307    0.0043454801   -1.7078562641
 H    2.6089489874   -0.3869651056    0.0160355294
 H    2.8753599555   -2.6135284533   -2.0004743306
 H    1.2461111268   -3.8934396972   -0.5728983246
 H    2.0849012820   -2.7135856338    1.4028853895
 H   -0.9672379362   -2.9562082725   -1.8868338732