17

 O    0.1380162903    1.4153021847    0.1231107433
 C   -0.0002242544    0.0369302779   -0.0052726398
 C    0.2723777053   -0.6956181403    1.3318609172
 O   -1.0699952898   -1.2688551788    1.3610052441
 C   -1.3318657537   -0.7692736294    0.0729276502
 C   -2.6211528441   -0.3473002489   -0.5903791988
 O   -2.0318323024   -0.6913505327   -1.8791817116
 C   -0.9428592254   -1.4418216867   -1.2722459998
 C    0.4034560409   -0.6828298963   -1.3268015365
 H   -0.0876820227    1.8232348164   -0.7198577092
 H    1.0475487781   -1.4689361943    1.3191667516
 H    0.4290839070   -0.0104265671    2.1694564460
 H   -3.4874811310   -0.9817546613   -0.3600443827
 H   -2.9087929879    0.7084215433   -0.5281858536
 H   -0.9890662260   -2.5105676673   -1.4946472817
 H    0.4770529476   -0.0180407908   -2.1928194839
 H    1.3050638283   -1.3002833885   -1.2738095144