20

 O   -0.0469174992    1.3749825701   -0.3457662322
 C   -0.0755941523   -0.0197565561   -0.1107184917
 C    0.3285696549   -0.5296220551    1.3278298020
 C   -1.0194978740   -1.2522457385    1.4188571842
 C   -2.1278183133   -0.2493501281    1.3275425290
 C   -1.4450885006   -0.6907681310    0.0569280651
 C    0.7477177521   -0.6748178871   -1.2009293172
 C    0.7323932945   -0.1479195055   -2.5858403892
 N    1.9355067801   -0.0028734711   -1.7403195805
 H   -0.7462936801    1.7822095461    0.1735726441
 H    1.2002786966   -1.1865692298    1.3073066087
 H    0.4948438615    0.2556326780    2.0724687259
 H   -1.1747939493   -2.2506676857    1.8064016308
 H   -3.1354436412   -0.6321599812    1.4526893364
 H   -1.9926756188    0.7524647887    1.7344720921
 H   -1.9985183935   -1.1671823502   -0.7440881333
 H    0.8727498293   -1.7458090031   -1.0547393523
 H    0.8406998365   -0.8279355589   -3.4261590145
 H    0.1364310795    0.7387794649   -2.7754889402
 H    1.9504501773    0.9482222536   -1.3771037372