22

 C    1.1174523214   -0.6674992086   -0.9444019595
 C    0.0272747976   -1.3359130271   -0.1105460613
 C   -0.7946938909   -2.3552209251   -0.8892353836
 O   -0.5841282377   -2.5873587711   -2.0578623379
 C   -1.9118441020   -3.0797217936   -0.1307207339
 C   -3.0685860183   -2.1647261169    0.2615885801
 C   -3.7607258067   -1.4661149832   -0.8916852180
 C   -3.8562850741   -2.5170428025    1.4708081226
 N   -2.9502705644   -1.3500408891    1.4899273022
 H    1.6823104384    0.0478567910   -0.3403105097
 H    1.8126224025   -1.4092104779   -1.3456811567
 H    0.6849415576   -0.1359936241   -1.7957991130
 H    0.4558488035   -1.8489404882    0.7625954589
 H   -0.6657211721   -0.5931496956    0.3068486876
 H   -2.2720461505   -3.8790786132   -0.7857502111
 H   -1.4947561099   -3.5413987799    0.7735491231
 H   -4.2040148303   -2.1965930377   -1.5768746695
 H   -4.5501784357   -0.8107090263   -0.5174209620
 H   -3.0589446260   -0.8550004137   -1.4690434967
 H   -4.9145569695   -2.2743226248    1.5152292435
 H   -3.5737486510   -3.4038578531    2.0324406366
 H   -2.1015796920   -1.5947401493    1.9946775582