23

 O    0.0248219600    1.3264702251    0.4958675033
 C    0.0002312905    0.0194343037   -0.0683288065
 C   -1.4135425174   -0.5051229826   -0.0028272859
 C   -1.8356342123   -1.1587025618    1.2884615545
 C   -1.5850066599   -2.0140248783    0.0661502874
 C   -2.7501637534   -2.7068684857   -0.6438114303
 C   -3.4933615946   -1.8018271320   -1.6401715818
 C   -3.7488083616   -0.4088232808   -1.0559454352
 C   -2.4224826962    0.3180471496   -0.7951228227
 H    0.8958846551    1.7029595057    0.3403946647
 H    0.3369038677    0.0421940627   -1.1185479196
 H    0.6746116236   -0.6589790538    0.4792180365
 H   -1.1178283015   -1.1884001951    2.1016514451
 H   -2.8645163844   -1.0407023712    1.6143463841
 H   -0.6630527595   -2.5891081913    0.0874840896
 H   -2.3775918183   -3.5934029700   -1.1680105641
 H   -3.4617947265   -3.0776709653    0.1052040404
 H   -2.8942647817   -1.6929312525   -2.5545502858
 H   -4.4340001866   -2.2780824534   -1.9381630948
 H   -4.3575879437    0.1893207551   -1.7427224785
 H   -4.3311432284   -0.4958115190   -0.1291072181
 H   -2.5913699947    1.2736072569   -0.2880447332
 H   -1.9711147060    0.5639883739   -1.7674545189