13

 C   -0.0602029351    1.5047047536    0.0505186829
 C   -0.0058135287    0.0193560755   -0.0340999421
 C   -0.0271547212   -0.8539963174   -1.0831085601
 N    0.0485999332   -2.1724816092   -0.6510017222
 C    0.1143576079   -2.0801796136    0.6466597796
 O    0.2018773343   -3.0917142682    1.5287160252
 N    0.0871694665   -0.7985475713    1.0947350376
 H    0.8351927230    1.9298091313    0.5219697507
 H   -0.1333176391    1.9254081587   -0.9552167509
 H   -0.9283511025    1.8594618025    0.6207384173
 H   -0.0929349295   -0.6164797523   -2.1341313852
 H    0.2062042932   -3.9031008039    1.0056084272
 H    0.1271558180   -0.5078807357    2.0568135301