19

 C    0.3940145063    1.5267977283    0.1973036528
 O    1.2369851659    0.4363670268   -0.1931218363
 C   -0.1281429339    0.1597631054    0.1113868585
 C   -0.4021091110   -0.6983381462    1.3277935397
 C    0.1158298563   -2.1321832485    1.1391404095
 C    0.0710852739   -2.8772062290    2.4465352267
 C   -0.0602343536   -2.2373986968    3.6052941166
 C   -0.1258519726   -0.7374787216    3.6790562948
 O    0.2061111269   -0.1006079488    2.4599258266
 H    0.6073226720    1.9433094881    1.1771831898
 H    0.1615251312    2.2415526996   -0.5910955891
 H   -0.7327538495   -0.1136110958   -0.7560196955
 H   -1.4973365002   -0.7322490940    1.4709682592
 H   -0.4900332587   -2.6476506160    0.3829534967
 H    1.1401908352   -2.0918937532    0.7468216138
 H    0.1429795748   -3.9609920621    2.4170109867
 H   -0.1249481739   -2.7738711462    4.5480385149
 H   -1.1299149207   -0.4204879921    4.0187667273
 H    0.5892854717   -0.3584182479    4.4190431671