21

 C    0.0663348973    1.5032486808   -0.0972656813
 C    0.0116779617   -0.0127624680    0.1137799907
 O    0.7230688467   -0.3958027622    1.2910424124
 C   -1.4060215163   -0.5292008749    0.1178181962
 C   -2.4341109796   -0.2582879574    1.2309935196
 C   -2.9635408112   -1.7190273555    1.0898465480
 C   -1.9473946376   -1.9755401975   -0.0272588503
 C   -2.1120504337   -0.9611354276   -1.1235794466
 O   -3.3438062264   -0.3854865696   -1.4619738834
 H    1.1033452145    1.8499630442   -0.0879940256
 H   -0.3936822609    1.7848380161   -1.0493193441
 H   -0.4775714857    2.0250893294    0.6999039053
 H    0.5552154923   -0.5066513946   -0.7012515936
 H    0.3740973373    0.1228382605    2.0236644936
 H   -1.9642885598   -0.0907581436    2.2037523356
 H   -3.1483002782    0.5442959941    1.0344631267
 H   -2.7706096628   -2.3193857313    1.9806414556
 H   -4.0160097078   -1.8254287506    0.8112538297
 H   -1.3980379641   -2.8973889190   -0.1840117566
 H   -1.4467523323   -1.1202697282   -1.9745227316
 H   -3.8811516030   -1.0625641552   -1.8865988203