16

 O    0.4968492980    0.1496345241    0.3683664068
 C    0.5306986591    1.3400815395    0.3668383562
 O    0.7989491963    2.0519450871   -0.7555994055
 C    0.8867588714    3.4549724955   -0.6196591295
 C    2.1401135421    3.9005549147    0.1325347892
 O    2.8265283370    3.1101344645    0.7422264834
 C    2.4486674858    5.3598149846    0.1005395878
 C    2.7741457329    5.9962426827    1.4224326623
 N    3.8208091063    5.7656247039    0.4427569434
 H    0.3215585161    1.9796069006    1.2439367478
 H    0.8921248095    3.8656886554   -1.6330944900
 H    0.0076048846    3.8747979084   -0.1063854676
 H    1.9615051128    5.9548895621   -0.6664817290
 H    2.4948363832    7.0342196679    1.5773715633
 H    2.7266477140    5.3552901891    2.2983826588
 H    4.3276925109    4.9165217499    0.6965199027