18

 C    0.1868116516    1.5860469351   -0.0280762157
 C   -0.0450365910    0.0576353767    0.0148805475
 C    0.6786910632   -0.5230455644    1.1603739699
 N    1.2623612854   -0.9480110373    2.0619238684
 N   -1.4381187442   -0.3972212510    0.0452592739
 C   -2.2180046849    0.0445903511    1.1980580869
 C   -2.1204942020   -0.1930345530   -1.2234659975
 C   -3.3170096871   -1.0385055590   -1.3332911916
 N   -4.2679963237   -1.6866436285   -1.4282098429
 H    1.2561598851    1.8012874255   -0.0964336798
 H   -0.3046958690    2.0197822951   -0.9033723120
 H   -0.2007100971    2.0720437269    0.8699362736
 H    0.4055176944   -0.3806243151   -0.8849822457
 H   -2.4538944588    1.1218886046    1.1844822124
 H   -3.1600253897   -0.5091046106    1.2223246289
 H   -1.6696690208   -0.1831524162    2.1149382863
 H   -2.4370040574    0.8518479526   -1.3989276765
 H   -1.4442613041   -0.4617476626   -2.0430152160