27

 C    0.4525418362    1.7860743805    0.0607301062
 C    0.2558704871    0.2663245298    0.0212602619
 C    0.6988989176   -0.4256369892   -1.2922909410
 C    0.5992181716   -1.9629924069   -1.1484253096
 C   -0.8169529390   -2.5414802232   -1.0358084856
 C   -0.1192989767    0.1040664800   -2.4883748283
 C    0.2182528546   -0.5344235206   -3.8397155019
 O    2.0494104143   -0.0482174785   -1.6271390667
 C    3.0975199384   -0.4693009287   -0.7843762389
 H    1.4791800761    2.0551342712   -0.2010767927
 H   -0.2131825034    2.3043657113   -0.6355275691
 H    0.2413882373    2.1730825025    1.0625008533
 H    0.8020193583   -0.1877896392    0.8576192480
 H   -0.7992903113    0.0286208920    0.1970886911
 H    1.1080023283   -2.4139128958   -2.0074481756
 H    1.1669687004   -2.2678580206   -0.2619686098
 H   -1.3541347803   -2.1468352072   -0.1681410143
 H   -1.4185791711   -2.3308153562   -1.9247248953
 H   -0.7710348819   -3.6291991135   -0.9222014871
 H   -1.1860517649   -0.0151487983   -2.2681045620
 H    0.0662121292    1.1801241681   -2.5548392175
 H    1.2900589670   -0.4596776414   -4.0384889359
 H   -0.0615269653   -1.5919112063   -3.8809018914
 H   -0.3157048006   -0.0239782673   -4.6473386678
 H    2.9619736153   -0.1549259949    0.2602357119
 H    3.2482808760   -1.5573308009   -0.7999626587
 H    4.0061836269    0.0051830232   -1.1658309331