17

 C   -0.1354287128    1.2124901457    0.2563645712
 C   -0.2419479138   -0.2913422878    0.2064551007
 O    0.3416015540   -1.0548674813    0.9381619181
 O   -1.0807942199   -0.6759443445   -0.7773421861
 C   -1.2603489540   -2.1003129446   -0.9581949390
 C   -2.3603725149   -2.6456868105   -0.0890197616
 C   -2.2511733555   -4.0416906239    0.4109585936
 N   -2.1204279817   -2.9111545731    1.3361805162
 H    0.5770352301    1.5011914452    1.0278390725
 H    0.1805632755    1.6012324782   -0.7153905109
 H   -1.1164111483    1.6437360444    0.4760519504
 H   -1.5094243096   -2.2099107270   -2.0171488842
 H   -0.3133936228   -2.6056414189   -0.7507461599
 H   -3.3484132217   -2.2421780018   -0.3019088344
 H   -3.1480973527   -4.6420524204    0.5337354624
 H   -1.3623307010   -4.6093208523    0.1443871702
 H   -1.1408851408   -2.7313919174    1.5466756607