15

 O    0.0090839732    0.0430313846   -0.4175486427
 C   -0.0344994009    1.1835111817   -0.0756945471
 C   -1.1354222367    2.1082579802    0.4755569198
 C   -0.0878651836    3.2366185837    0.5915074926
 O    0.5910833424    3.2223072791    1.8557820630
 C    1.6923943117    2.4546001607    1.3330892911
 C    1.0249855460    2.3315394376   -0.0701761973
 C    1.7860825588    2.5960403155   -1.2524052861
 C    2.4150931105    2.8084372878   -2.2555073767
 H   -1.8904082758    2.2988443778   -0.2961161137
 H   -1.6304958585    1.8036024212    1.4000408923
 H   -0.3461948472    4.2387079344    0.2479238378
 H    2.6168665869    3.0406740742    1.3033989360
 H    1.8618099327    1.5197784464    1.8780258152
 H    2.9720094605    2.9947364552   -3.1404446244