25

 C    0.3032990645    1.5489938157   -0.1629683044
 C   -0.0173280597    0.0524496640    0.0310666642
 C   -1.5372983424   -0.1306782431    0.0763950084
 C    0.6287811100   -0.7903087681   -1.0951599686
 C    2.1245418892   -0.8995568144   -0.7285598884
 C    2.1855154455   -0.7381709333    0.8174195438
 C    0.7401935701   -0.4811737930    1.2653081803
 C    0.4515562483   -0.0206509629    2.6660889102
 C    0.1055499067   -1.4324126014    2.2537897471
 H    1.3801532346    1.7350010074   -0.2157863057
 H   -0.1454994520    1.9250903255   -1.0891144147
 H   -0.0920082736    2.1433971318    0.6672708885
 H   -1.9964560587    0.2802535715   -0.8293543526
 H   -1.8157464191   -1.1866816898    0.1379451924
 H   -1.9856262214    0.3904054031    0.9304229108
 H    0.1709901809   -1.7866322192   -1.0961630993
 H    0.4641573695   -0.3591403516   -2.0882089153
 H    2.5529336906   -1.8483790914   -1.0622764579
 H    2.7017997509   -0.1101199061   -1.2188875404
 H    2.6009783887   -1.6232264486    1.3084946929
 H    2.8337644609    0.1012265505    1.0917703707
 H    1.2903378834    0.1325669041    3.3382081540
 H   -0.3706647812    0.6703981587    2.8261625463
 H   -0.9443653843   -1.6838244761    2.1571192776
 H    0.7193655385   -2.2417140836    2.6369152600