18

 C    0.0262768761    1.4620165380    0.2326908757
 O    1.4109903152    1.5979760233   -0.2414786740
 C    1.2724822517    0.3098065816   -0.8229166234
 C    2.0640558116   -0.9782447615   -0.9314423117
 N    0.9431755287   -1.7260639507   -1.6336470523
 C    0.9339908889   -0.9661508128   -2.9497498275
 C    0.3755376613    0.2016098963   -2.1693679669
 C   -0.3422692792   -0.8069890671   -1.2525860948
 C    0.0445852578   -0.0835544938    0.0120233750
 H   -0.0574636607    1.7709042733    1.2766833788
 H   -0.6658574751    2.0415401084   -0.3860658795
 H    2.9532464648   -0.9856979787   -1.5650166091
 H    2.3027762547   -1.4191654806    0.0382907766
 H    1.9073671059   -0.8946125358   -3.4450462456
 H    0.2086859391   -1.4156813174   -3.6350422145
 H   -0.0509683221    1.1200282857   -2.5722230750
 H   -1.2630257081   -1.3460119186   -1.4729875382
 H    0.1733378392   -0.6511651396    0.9350562264