22

 C    0.1316423743    1.4649528632    0.5320795986
 C    0.1328788588   -0.0232828073    0.1540715698
 C    1.0096838396   -0.8304511839    1.1240129467
 C   -1.2929833470   -0.5885064275    0.1335306639
 C   -2.3218023021   -0.2119178395   -0.9798228333
 C   -1.8977832197    0.5706399065   -2.2045823098
 O   -2.4698399400   -1.6399957606   -1.3038953557
 C   -1.5160663411   -1.9993126910   -0.3807981862
 N   -1.0368897998   -3.1288654297   -0.1119182119
 H    1.1511759761    1.8635864239    0.5308045072
 H   -0.4622998247    2.0706332762   -0.1585481959
 H   -0.2778597263    1.6077256026    1.5392011863
 H    0.5610255986   -0.1274412886   -0.8511401504
 H    0.6469398341   -0.7234256794    2.1535146310
 H    0.9998798421   -1.8936142540    0.8748440324
 H    2.0426039012   -0.4684382525    1.0970149478
 H   -1.7341085705   -0.4709512093    1.1302943646
 H   -3.2720963429    0.1646410163   -0.5887740806
 H   -0.9356142936    0.2252052613   -2.5915231020
 H   -2.6462655889    0.4434366425   -2.9926749248
 H   -1.8237536802    1.6387380045   -1.9802888933
 H   -1.4548283279   -3.8545919738   -0.6973615745