20

 O    0.0353747579   -0.0056366562   -0.3471127614
 C   -0.0012977175    1.1775442939   -0.0935299697
 C   -1.3408632393    1.8934849955    0.0689639932
 C   -1.4824654773    2.8200186997    1.2963673536
 C   -0.7384937185    4.1303319308    1.1319964075
 C    0.0914772461    4.7129506938    2.2499455090
 C    0.7693001164    4.1015077787    1.0501253300
 N    1.3739491986    2.8110938712    1.2026570791
 C    1.3088569790    1.9724769598    0.0051221477
 H   -1.5043123275    2.4863591315   -0.8434488147
 H   -2.1011086009    1.1079059819    0.0793490444
 H   -2.5477260513    3.0276020500    1.4490922543
 H   -1.1358184790    2.2956282561    2.1907503878
 H   -1.2268688953    4.8446969270    0.4742208969
 H    0.1269456488    5.7904934535    2.3653350218
 H    0.1442666607    4.1519545416    3.1765600603
 H    1.2314077414    4.7888175365    0.3349304612
 H    2.3302046061    2.8890571346    1.5255748615
 H    2.1094315142    1.2300949696    0.0321297132
 H    1.4280675574    2.5542132604   -0.9291243857