18

 N   -0.0134735339    1.3957512759    0.0777514600
 C    0.0833734898    0.0128844419   -0.0382309227
 O    1.1480700905   -0.5631185348   -0.1589889038
 N   -1.1320858636   -0.6367769132    0.0267136949
 C   -1.2103392954   -2.0742586152    0.0648963789
 C   -1.6033519843   -2.8458311353    1.3633346713
 N   -2.6773373238   -3.6140850952    0.6374119859
 C   -3.6445753464   -2.5960275985    0.2059540850
 C   -2.4076885099   -2.7505045059   -0.5895183543
 H    0.8433943153    1.8589027383   -0.1857243185
 H   -0.8429871407    1.8391857506   -0.2884639895
 H   -1.9341850239   -0.1145173945    0.3413015204
 H   -0.2617185745   -2.4395776361   -0.3260396447
 H   -0.8258599230   -3.5167070094    1.7316574598
 H   -1.9848822135   -2.2426113570    2.1946246401
 H   -4.5541720833   -3.0169127626   -0.2115920522
 H   -3.8064665215   -1.7211947167    0.8351252260
 H   -2.4211314680   -3.1635246422   -1.5932550864