19

 C   -0.0773530617    1.5444454560    0.0121308560
 C    0.0502174133    0.0195965823   -0.0209174848
 N    0.8384020771   -0.4587097990   -1.1619511263
 C    1.7997599187   -1.1549541870   -0.6816874189
 C    2.8489252147   -1.8306781076   -1.5009770263
 N    1.8205177448   -1.2578098554    0.7179419035
 C    2.7771346610   -1.9510426383    1.5533713362
 C    0.7478205001   -0.5329993874    1.2264324163
 O    0.4768573662   -0.3936803902    2.3969998212
 H    0.9108192145    2.0135512372    0.0301567540
 H   -0.6075558611    1.8966102179   -0.8755843938
 H   -0.6244103358    1.8506596664    0.9075618134
 H   -0.9542659917   -0.4209416166   -0.0737405119
 H    2.6607642610   -1.6230489214   -2.5542242957
 H    3.8495877325   -1.4720129939   -1.2361438636
 H    2.8384071634   -2.9144465288   -1.3407547992
 H    3.7893532940   -1.5540651453    1.4235234913
 H    2.4626530390   -1.7927676643    2.5872650390
 H    2.7899353800   -3.0256027447    1.3441126097