23

 C    0.1306407335    1.5380920943   -0.0152676290
 C    0.0712190563    0.0328057542    0.0217855849
 C    0.0356301012   -0.6955634207   -1.1001882169
 C   -0.0423410841   -2.2016213312   -1.1825994316
 C   -1.4244234739   -2.8092012571   -0.8646053594
 O   -1.7968285382   -2.7357799948    0.4985855792
 C   -2.3602278789   -1.5085334383    0.9401827526
 C   -1.4393802342   -0.7701925375    1.9171484955
 C    0.0040093531   -0.5998587768    1.3930286567
 H    1.0375718296    1.9073966406    0.4813365729
 H    0.1234004134    1.9217965179   -1.0390736708
 H   -0.7162731161    1.9868972598    0.5202489804
 H    0.0452231898   -0.1674749949   -2.0523268887
 H    0.2264421752   -2.5214307239   -2.1966499877
 H    0.6847188483   -2.6710354650   -0.5083375732
 H   -2.1934936336   -2.3418420075   -1.4988302759
 H   -1.4024091493   -3.8784150456   -1.1055017710
 H   -2.5894416600   -0.8674720462    0.0801738491
 H   -3.3097194456   -1.7378859964    1.4429536868
 H   -1.8929971758    0.2054782824    2.1362543157
 H   -1.4000410008   -1.3179193021    2.8657353210
 H    0.4662165107   -1.5909427810    1.3719395726
 H    0.5702221594    0.0021923999    2.1135018468