15

 C   -0.0031317761    1.4326283196   -0.1380140938
 N    0.0038042392   -0.0194905415   -0.1727054672
 C   -1.0504265855   -0.6386226075    0.1253237562
 O   -2.2049779082    0.0375993997    0.4820911078
 C   -3.3473015350   -0.6440034231    0.8051762560
 C   -3.4078673963   -1.9734186509    0.7934381753
 N   -2.2826211895   -2.7148643442    0.4437129552
 C   -1.0713417712   -2.1561842997    0.0973110568
 O   -0.1104725861   -2.8240743124   -0.2025123324
 H    0.9843655193    1.8014271760   -0.4216323053
 H   -0.7478274322    1.8497668862   -0.8283971071
 H   -0.2480526200    1.8118618039    0.8626849854
 H   -4.1653471812    0.0111266622    1.0620584438
 H   -4.3053721782   -2.5174821210    1.0471424680
 H   -2.3124362189   -3.7233091172    0.4295676213