17

 O    0.3397586215    1.2905370154    0.0904440473
 C    0.0218817634   -0.0561597919   -0.0104057665
 C    0.3934641274   -0.8567009634   -1.2842438821
 C   -0.9749947010   -1.6048577095   -1.2102140525
 C   -1.3970416675   -0.7308587960   -0.0019934326
 O   -1.1309804171   -1.3702309910    1.2607659696
 C    0.1799105183   -0.8044855252    1.3501308735
 C    1.3117022923   -1.7964132438    1.4359292537
 O    1.2082305364   -2.9820124060    1.2564301504
 H    0.3204504203    1.6805824708   -0.7897977799
 H    0.4552530100   -0.1908076970   -2.1521944794
 H    1.3017578515   -1.4625420918   -1.2558243605
 H   -1.5978132953   -1.4914328959   -2.0999474336
 H   -0.9050388851   -2.6601188322   -0.9443398411
 H   -2.3567092401   -0.2101399726   -0.0174050309
 H    0.2627222500   -0.0811267865    2.1741265453
 H    2.2961967150   -1.3187866437    1.6533144093