15

 N    0.0663244105    1.3118556844    0.2788920501
 C    0.0765607737    0.0632873281    0.0205467434
 N    1.0972675448   -0.7781429733   -0.3651387754
 C    0.6972761375   -2.1429595966   -0.6819618261
 C   -0.7841726553   -2.1503055143   -0.3402095509
 O   -1.0482901791   -1.8642865002    1.0165280507
 C   -1.1654518566   -0.7788472586    0.0715292896
 C   -2.5339533385   -0.2004400324   -0.1232951219
 O   -3.5375599919   -0.8596553466   -0.0324651623
 H    0.9892607950    1.7337683922    0.1610148691
 H    2.0634136860   -0.5139160734   -0.2696530330
 H    0.8460096260   -2.3798883195   -1.7438759601
 H    1.2432139444   -2.8826578884   -0.0835732807
 H   -1.4799601569   -2.8185100610   -0.8379358895
 H   -2.5421062695    0.8790756895   -0.3652050630