13

 N    0.1187286364    1.3436612208   -0.0918851977
 C   -0.0413384833   -0.0123966787   -0.0429086323
 C   -1.1077476107   -0.8803422424   -0.0327746131
 C   -2.5083761366   -0.5326360090    0.0332342229
 O   -3.4432582330   -1.3030864374    0.0426880936
 N   -0.5994852724   -2.1989608469   -0.0815307714
 C    0.6661783522   -2.0377968825   -0.1078851666
 O    1.6484142620   -2.9318753421   -0.1453045067
 O    1.1090207907   -0.7426598791   -0.0894446053
 H    0.9751215949    1.6881764566    0.3190570380
 H   -0.6947521737    1.8806777792    0.1675361365
 H   -2.6815090280    0.5718828579    0.0815935734
 H    1.2310166915   -3.8033872965   -0.1495747713