15

 O   -0.6039184229    1.4183808552    0.0721723806
 C   -0.2718558305    0.0741521660   -0.0051926442
 C   -1.3610236429   -0.9477425653   -0.0133062026
 C   -0.4742936594   -0.7672077955   -1.2616758589
 C   -1.7119800346   -0.2892565131   -1.9729078530
 N   -1.9452859660    0.1179266371   -3.1367543524
 N   -2.5027443574   -0.4650776099   -0.7920884684
 C   -3.5980062355    0.2582685525   -0.3842583383
 O   -4.3228357851    0.8594922554   -1.1421743148
 H   -0.1281945738    1.8977494594   -0.6148757983
 H    0.6120847510   -0.2215455205    0.5629643861
 H   -1.4542496019   -1.7922898424    0.6560869044
 H    0.2927667373   -1.4086486916   -1.6707231887
 H   -2.9248361550    0.3926517858   -3.2288985575
 H   -3.7625317633    0.1940308668    0.7085588759