14

 O    0.3052100215    1.5235367615   -0.0389295220
 C   -0.0507058391    0.1812084983    0.0057772415
 C    0.0626518554   -0.4736307984   -1.3143039053
 N    0.1507547611   -1.0147033149   -2.3314188512
 C    0.8388634919   -0.5805495901    1.0244113292
 O    1.6682108217    0.0471185960    1.6357513857
 C    0.6146232396   -2.0493181081    1.1858709854
 C    1.7955024832   -2.9299803931    1.3442186057
 O    0.9785031245   -2.5944314414    2.4491312247
 H    1.0721954179    1.6032161762    0.5554535222
 H   -1.0963325325    0.0651676916    0.3374168918
 H   -0.2891167826   -2.4572053103    0.7368244633
 H    1.7240511047   -3.9553604774    0.9872210556
 H    2.7833393127   -2.4747081500    1.3401429335