18

 C    0.0674158080    1.5881805155    0.0097914343
 C    0.0573125807    0.0883955861    0.0330122569
 C   -0.9435971601   -0.7669155897    0.8249527460
 C   -1.8301347720   -1.8283337422    0.2245958726
 O   -2.0955690127   -2.7879475494    1.2398297883
 C    0.5289827350   -0.9317450571    1.0632259589
 N    1.1882694074   -1.7003053271    0.0049180371
 C    0.7089355610   -0.8368629271   -0.9975839959
 O    0.8047756476   -0.8660227523   -2.1924420209
 H    1.0780271768    1.9742029110   -0.1573630591
 H   -0.5701533395    1.9669888070   -0.7960284760
 H   -0.3036844999    2.0020308600    0.9523027522
 H   -1.4383173567   -0.1898101450    1.6053890419
 H   -2.7577048063   -1.3581499539   -0.1361189877
 H   -1.3460244956   -2.2920375722   -0.6467274630
 H   -2.7535083220   -3.4041829077    0.9038089599
 H    1.0268966432   -0.7566883953    2.0078466732
 H    1.1404811051   -2.7107547004   -0.0691604687