18

 C   -0.0134507438    1.6011865017    0.1422261277
 C    0.0250627476    0.0966372219    0.0157306779
 C   -0.8185549495   -0.7415971907    0.9515729208
 C    0.6804852934   -0.8237776833    1.0999330374
 N    1.2302693409   -2.0312863219    0.4862649458
 C    1.1010778122   -1.8045409781   -0.7525619627
 O    0.8514576775   -2.5840912920   -1.8527957735
 C   -0.0708822936   -1.5184709096   -2.3183818703
 C    0.5343709272   -0.5241685023   -1.2691819824
 H    0.9052493595    2.0568959733   -0.2447056146
 H   -0.8569305251    2.0280395529   -0.4135203872
 H   -0.1215635714    1.9096917397    1.1866999782
 H   -1.3722356678   -0.1848236694    1.7011664516
 H   -1.3247047740   -1.6335199226    0.5951518086
 H    1.1743174189   -0.4337552439    1.9824010248
 H    0.1011218279   -1.2892379044   -3.3706955251
 H   -1.1039408136   -1.8235834019   -2.1358148240
 H    1.2658548938    0.1247565706   -1.7599984231