15

 O    0.0640117691    1.4186360144    0.0152096761
 C    0.0182452333    0.0079871213    0.0752966192
 C   -1.4257874540   -0.4947931750   -0.0630905520
 O   -2.5962677829    0.3746337947   -0.1591356650
 C   -2.9649764179   -0.2211783393   -1.4446059922
 C   -1.5739821330   -0.7864971641   -1.5187021122
 C   -0.4339571937   -0.8441794806   -2.2087468616
 C    0.6708398396   -0.5422558088   -1.2510232552
 O    1.8580971050   -0.5065677656   -1.4664581576
 H    0.9852720177    1.6577088920   -0.1460029627
 H    0.5349363512   -0.3806512156    0.9624896665
 H   -1.6312207285   -1.3221691079    0.6274145029
 H   -3.7784167083   -0.9486286871   -1.3287469395
 H   -3.2342002592    0.5249694915   -2.1984260234
 H   -0.2789610784   -0.9015480899   -3.2779120333