21

 O    0.1200665148    1.3338695048    0.1602110670
 C    0.0505721594   -0.0704445996    0.0322112275
 C   -1.3879263635   -0.5552872037   -0.0992666162
 C   -1.5109915584   -2.0873413639   -0.2534463469
 C   -2.8172014620   -2.5798235690    0.3896637706
 C   -3.9125657929   -1.4798679543    0.2414606140
 C   -3.2135075521   -0.8030596350    1.4525458827
 C   -2.7813213782   -2.2216851329    1.9037280957
 O   -2.0710849959   -0.0517757262    1.0611624430
 H   -0.5107865806    1.5626548234    0.8534208640
 H    0.6170767388   -0.3431584121   -0.8651366232
 H    0.5149124445   -0.5796878404    0.8934345821
 H   -1.8291913836   -0.0690185924   -0.9809061722
 H   -1.4820743276   -2.3324149577   -1.3210175565
 H   -0.6600459838   -2.5959512889    0.2178784694
 H   -3.0560074359   -3.6051512701    0.0994802266
 H   -3.9911958371   -0.9236298515   -0.6955964820
 H   -4.8998650366   -1.8517498008    0.5254309857
 H   -3.7871386957   -0.1654262558    2.1279361246
 H   -3.5672404337   -2.7302503944    2.4684411669
 H   -1.8278646999   -2.2986824395    2.4331537671