19

 O   -0.0002924020   -0.0090527111   -0.1555427875
 C   -0.0133179499    1.1686999724    0.0493102216
 C   -1.1311898617    2.1955344992    0.2940594107
 C   -0.0306942897    3.2024697642    0.7674371237
 C    1.0828567676    2.2254348053    0.2629465755
 C   -0.0578293687    4.5935016658    0.1698855977
 C   -1.1000182829    5.5932937562    0.7274238683
 O   -0.0695341756    6.5085551310    1.1480032046
 C    0.9726840894    5.6210039345    0.6979694151
 H   -1.6141057807    2.4925693608   -0.6445127702
 H   -1.9082026489    1.9027567958    1.0044615472
 H   -0.0162566828    3.2699757833    1.8601232926
 H    1.8871744416    1.9540308764    0.9510958297
 H    1.5309717539    2.5350460971   -0.6887325968
 H   -0.0724972745    4.5284889578   -0.9229899137
 H   -1.7784681369    6.0462582958   -0.0055153052
 H   -1.6923112254    5.2221831818    1.5752106044
 H    1.5985242106    5.2661769236    1.5284500811
 H    1.6176929566    6.0916649501   -0.0537699587