14

 O    0.3532756576    1.2504414105    0.2636390546
 C    0.1231704888   -0.0497784826    0.0332070111
 N   -0.3045612097   -0.5897767728   -1.0759864277
 C   -0.3575884642   -1.9459897012   -0.8013778651
 C    0.0356594612   -2.2037988550    0.4791508603
 C    0.1079220688   -3.4722295048    1.2697507696
 C    1.3877534170   -3.6419238806    1.9683384360
 N    2.3885998484   -3.7343797308    2.5382009063
 N    0.3398050320   -0.9550479976    1.0206887516
 H    0.1526274883    1.7127077067   -0.5602012246
 H   -0.6831505604   -2.6558004998   -1.5466937161
 H   -0.6906345966   -3.5335520552    2.0228417659
 H   -0.0415527762   -4.3177758573    0.5910618801
 H    0.7388978851   -0.7631655895    1.9249435380