21

 O   -0.0511467009    1.3913716019   -0.0370802540
 C    0.0253593961   -0.0206001221    0.0173813471
 C    0.5669633159   -0.5580906921    1.3632377668
 O   -0.0487872466   -1.8334310249    1.5591007268
 C   -1.0148323067   -2.0443582969    0.5095373276
 C   -1.3795389559   -0.6319827690    0.0478638065
 C   -0.3705350410   -2.8284135225   -0.6447873043
 C    0.9337473260   -2.1396809731   -1.0905628743
 C    0.7986030028   -0.6046663795   -1.1804480141
 H    0.8378482994    1.7350503643   -0.1757486731
 H    1.6587088054   -0.6753991007    1.3731648248
 H    0.2829323081    0.1317141440    2.1692195023
 H   -1.8537517591   -2.5956266852    0.9434962242
 H   -1.9985090478   -0.1123151149    0.7849283961
 H   -1.8812572366   -0.6030854667   -0.9221724371
 H   -0.1558307698   -3.8544152792   -0.3287528777
 H   -1.0895661877   -2.8907096891   -1.4717671662
 H    1.7123860145   -2.3844176483   -0.3606796414
 H    1.2734014682   -2.5425799673   -2.0500612108
 H    0.2715695117   -0.3089268841   -2.0954179170
 H    1.7989702739   -0.1524192547   -1.2304337923