19

 C    0.1950912098    1.6977379308    0.0305744939
 C   -0.1881795238    0.2158328533    0.1184677048
 C    0.5659029917   -0.4970800960    1.2431048638
 C    0.4921528538   -2.0321545093    1.4366857378
 C   -0.1906823065   -2.9071263981    0.4036404738
 O    0.1276908093   -4.2685849836    0.6097277955
 O    1.9571731684   -2.1202744388    1.2667538948
 C    2.0576737648   -0.7701128668    1.0279205636
 O    3.0359786846   -0.1565208128    0.7440317049
 H    1.2706257264    1.8109445693   -0.1304940572
 H   -0.3307428346    2.1868984838   -0.7941449538
 H   -0.0630510811    2.2268713646    0.9543592555
 H   -1.2659045110    0.1157914017    0.2949761591
 H    0.0180542370   -0.2724401510   -0.8401684281
 H    0.4107167922    0.0353531090    2.1874442080
 H    0.2305037917   -2.3641061812    2.4446685227
 H   -1.2777751333   -2.8172538144    0.5036734940
 H    0.0835631989   -2.5765054358   -0.6090722465
 H    1.0879043416   -4.3426830849    0.5581311832