12

 N   -0.1013346070    1.2442006795    0.2690228669
 C   -0.0335681913    0.0170547072   -0.0137060213
 O    1.1157202787   -0.6782746402   -0.2833702063
 C    0.8272280220   -1.9775216470   -0.8318328081
 C   -0.6594807899   -2.1811239920   -0.6352351944
 O   -1.0351574493   -2.0638121644    0.7327764391
 C   -1.1935818156   -0.9144759027   -0.1220834423
 H    0.8258592917    1.6729034666    0.2465803245
 H    1.0950385596   -1.9886284784   -1.8950241848
 H    1.4312546003   -2.7167390379   -0.2978330337
 H   -1.2228185202   -2.8792835289   -1.2465151513
 H   -2.1990194591   -0.5384448819   -0.2638335884