16

 C    0.0183887883    1.4969188279    0.0039398379
 C   -0.0247040990   -0.0022001780   -0.0018895484
 C   -1.1819000077   -0.7036768643   -0.0988125775
 C   -1.1933698017   -2.1509378318   -0.1017978029
 N   -2.2583033393   -2.8565209469   -0.1914346002
 N    0.1147452661   -2.6848238218    0.0062516415
 C    1.2154444463   -1.9008008732    0.0979923204
 O    2.3567734375   -2.5992780110    0.1915906804
 N    1.2207870006   -0.6112662546    0.1001946037
 H    0.6347277251    1.8593964561   -0.8260471115
 H   -0.9798069579    1.9309239396   -0.0786458416
 H    0.4886608714    1.8567578341    0.9256627552
 H   -2.1421246549   -0.2124229707   -0.1778251896
 H   -2.0563838913   -3.8570470187   -0.1761386243
 H    0.2394004078   -3.6869841794    0.0148850047
 H    3.0632887888   -1.9407097073    0.2513029622