17

 O   -0.1320953452    1.4256190711    0.0155024114
 C   -0.0102530648    0.0161593841    0.0375956069
 C    0.4928392090   -0.5897963614    1.3938914079
 C   -0.7943376636   -1.3551995323    1.7461087756
 O   -1.1161947370   -1.9840416337    0.4650454477
 C   -1.4140499773   -0.6242054075    0.0460380098
 C   -1.9276001183   -0.3132250662    1.4828832880
 C   -3.2689488634   -0.7679788644    1.7761829483
 C   -4.3884852515   -1.1185295711    2.0383174537
 H    0.7496752323    1.8072815382   -0.0257933198
 H    0.5705587393   -0.3483497330   -0.8178192079
 H    1.3363880858   -1.2723039463    1.2725998389
 H    0.7552860593    0.1913305518    2.1126347318
 H   -0.8127661530   -2.0331078068    2.5980096169
 H   -2.0407869599   -0.5408176760   -0.8397194010
 H   -1.7546501872    0.7041420317    1.8420978561
 H   -5.3763861745   -1.4358346382    2.2630455057