16

 C   -0.0283617329    1.4579199772   -0.0224711585
 N   -0.0076333190   -0.0021696195   -0.0285434417
 C   -0.0241020381   -0.6544070732    1.2021904773
 O   -0.0679960948   -0.0776473334    2.2645412654
 C    0.0339457577   -0.7462973318   -1.2192801719
 N   -0.0166288995   -2.0164021359   -1.2014929512
 C    0.1530720663    0.0727070327   -2.5079764377
 O    0.0742354864   -0.7405212630   -3.6562390874
 H    0.8253389672    1.8744517922   -0.5643401822
 H   -0.9536441695    1.8520192983   -0.4550322869
 H    0.0280814917    1.7647329739    1.0213486962
 H    0.0098758799   -1.7440007549    1.0853547538
 H    0.0776507592   -2.3577275157   -2.1583254813
 H   -0.6003419136    0.8716721517   -2.5232021139
 H    1.1337623400    0.5611638932   -2.5406070271
 H   -0.8451512512   -1.0009132118   -3.7774320028