21

 C    0.1682564366    1.6355075638    0.0546214828
 C    0.0563667564    0.0970750037    0.0432971933
 C    0.6168554145   -0.5495687834   -1.2491916670
 C   -0.1174598631   -0.1513739446   -2.5171673933
 O   -1.5018179075   -0.4096860911   -2.4939460204
 C    0.3506739865    1.0111985196   -3.3609418910
 C    0.5255576772   -0.4146139230   -3.8450928776
 C    0.7146435664   -0.4734759355    1.2169454411
 C    1.2808046651   -0.9354024110    2.1718525669
 H    1.2150243485    1.9463175606   -0.0178848623
 H   -0.3745920249    2.0747292418   -0.7869450946
 H   -0.2411469363    2.0443921543    0.9818949070
 H   -1.0080659788   -0.1708842377    0.0983887509
 H    1.6790464629   -0.2983266497   -1.3465774879
 H    0.5544799478   -1.6377610577   -1.1378670043
 H   -1.9330475008    0.3078687913   -2.0179912265
 H   -0.4138463733    1.6075943224   -3.8470857796
 H    1.2295901510    1.5644715244   -3.0483229649
 H    1.5237628406   -0.8384480565   -3.8610493303
 H   -0.1309988485   -0.7550706168   -4.6369411545
 H    1.7677230296   -1.3470637550    3.0207801320