14

 C   -0.0527849164    1.5938879467    0.0725161385
 C    0.0237039522    0.0775834593   -0.0179483000
 C    1.1095913961   -0.5932051311   -0.9217933173
 O    1.3140962602   -0.6017822807   -2.0948800584
 C    1.7110772004   -1.3335519403    0.2790570730
 O    2.0366330121   -0.2885310867    1.2155395762
 C    0.6738182194   -0.7028551774    1.1483672092
 C    0.0435115492   -1.2347171964    2.3157130318
 N   -0.5098770580   -1.6444007162    3.2444325415
 H    0.8972874903    2.0078609366    0.4180475692
 H   -0.2728291668    2.0123796930   -0.9136599115
 H   -0.8440023799    1.9079513208    0.7594620922
 H   -0.9431026135   -0.3625903163   -0.2914936818
 H    2.2336022846   -2.2780902814    0.3734799372