18

 C   -0.1221654315    1.5101596836    0.0618848170
 C   -0.0518380034    0.0178919203   -0.0469804498
 C   -0.1324926222   -0.6566040414   -1.2031971186
 C   -0.0645021267   -2.1388947774   -1.2984226119
 O    0.5033716545   -2.7164286979   -2.1873936988
 O   -0.6745401407   -2.8733058834   -0.3162817094
 C   -1.6629848545   -2.2544955114    0.5166697911
 C   -1.0255075271   -1.4337516747    1.6502899687
 N    0.1488090351   -0.6708897024    1.2025631722
 H    0.8130505609    1.9040849019    0.4752481087
 H   -0.3179217356    1.9845816285   -0.9022279320
 H   -0.9129153368    1.7979219339    0.7654210269
 H   -0.1622652990   -0.1395520185   -2.1563888197
 H   -2.3137224795   -1.6240801016   -0.0965641679
 H   -2.2636841769   -3.0747628758    0.9181304212
 H   -1.7815662590   -0.7568942852    2.0666853625
 H   -0.6923311864   -2.0873908831    2.4615817592
 H    0.9000022489   -1.3417163557    1.0744596305