17

 C   -0.0608111419    1.5757445736   -0.0749778382
 C    0.0322102769    0.0721149200    0.0671251620
 C    1.2744194890   -0.7323403643   -0.1784815880
 O    2.4391353189   -0.0255084047    0.2752296771
 C    1.9759385918   -0.0860246266    1.6453480565
 C    1.9933401265    1.1945589614    2.3556053169
 N    2.0005577308    2.1887004262    2.9452136193
 C    0.6376958187   -0.7112809511    1.2170603739
 N   -0.0664443578   -1.6083178813    2.0515604540
 H    0.9040850592    2.0535107883    0.1019448046
 H   -0.3790470892    1.8334224021   -1.0903492479
 H   -0.7856816192    2.0006726724    0.6256961377
 H   -0.8436381535   -0.4675805997   -0.2958623561
 H    1.4190577922   -1.5008586841   -0.9284374650
 H    2.5799914644   -0.8058901918    2.2120872081
 H   -1.0588357737   -1.6311176388    1.8622776866
 H    0.3014550070   -2.5521259217    2.0390336884