18

 C    0.0231249641    1.5394086636    0.0215838098
 C   -0.0902663822    0.0456993351    0.0015966407
 C    0.0549203669   -0.8333477975    1.2140139249
 C   -0.7613514882   -2.1124774644    1.3721146705
 C   -0.3031272870   -2.9658999707    0.1626843539
 C    0.3707131655   -1.9328070767   -0.7383534202
 N    1.0907651403   -0.9447213631    0.1834555138
 C   -0.5607074989   -0.7822580091   -1.1485857300
 O   -1.1966375915   -0.5285518612   -2.1350880511
 H    0.7132266846    1.8668534395    0.8039387766
 H    0.3827647144    1.9146196217   -0.9409156464
 H   -0.9547439001    1.9926837646    0.2156753182
 H    0.3722126138   -0.3020487266    2.1078553807
 H   -0.5314376222   -2.5984194494    2.3239030125
 H   -1.8363499594   -1.9118663491    1.3581889072
 H    0.4233764127   -3.7242299352    0.4704139214
 H   -1.1271477830   -3.4743278949   -0.3440320067
 H    1.0051848901   -2.3245381368   -1.5332885658