21

 C    0.1543859749    1.4357089812    0.2185313704
 C   -0.1461279528   -0.0519256191    0.0172403563
 N   -1.5752849341   -0.3410531265   -0.0829536891
 C   -2.1870565625   -0.2842745017   -1.3982409096
 C   -2.2598723738   -0.5867760306    1.0721410688
 O   -1.7459360200   -0.5238810270    2.1769449911
 N   -3.6400517697   -0.8854319801    0.8741136445
 C   -4.0188473636   -2.2989448096    0.7219508295
 C   -4.3188952325   -1.5500599912    1.9726230179
 H    1.2355185281    1.6041393325    0.2547734502
 H   -0.2535902714    2.0434688290   -0.5958457584
 H   -0.2804582851    1.7787947632    1.1604502830
 H    0.3313030051   -0.4214837608   -0.8974683952
 H    0.2486308833   -0.6233458262    0.8595494610
 H   -3.2680979185   -0.2056753955   -1.2971910348
 H   -1.8233673250    0.5954083792   -1.9412117555
 H   -1.9476944405   -1.1735633156   -1.9978066958
 H   -4.7954725736   -2.5005962309   -0.0105088147
 H   -3.2217051697   -3.0373015504    0.7637732848
 H   -3.7151001224   -1.7641046776    2.8487832440
 H   -5.3292040663   -1.2018900323    2.1648171116