19

 C    0.0931585210    1.4778327079   -0.1380748547
 O    1.2237999460    0.5954329259   -0.0623421173
 C   -0.0710521634    0.0288869878   -0.0024067419
 C   -0.6240041093   -0.7784749127    1.1737621780
 C   -1.4576351231   -1.5925147408    0.1374693432
 C   -0.6146646704   -0.9838409834   -1.0148979410
 C   -1.1739858074   -0.6337477737   -2.4036172835
 O   -0.2114826012   -1.4748784110   -3.0658313133
 C    0.3876221529   -1.8518120185   -1.8090010968
 H   -0.0567552139    2.1189061295    0.7301109444
 H   -0.0549295637    1.9608644182   -1.1028758452
 H    0.1571266397   -1.3767595798    1.6510563343
 H   -1.1714265212   -0.2325662019    1.9451746463
 H   -1.4275683798   -2.6804018187    0.2302116248
 H   -2.5026261949   -1.2732475383    0.0944443801
 H   -2.2068342744   -0.9612820520   -2.5843775328
 H   -1.0786103749    0.4182962482   -2.7046835704
 H    1.4323333673   -1.5269513699   -1.7375550557
 H    0.3226534306   -2.9327501070   -1.6284513982