21

 C    0.0748082545    1.4893197872    0.0370657526
 C    0.0832514283   -0.0227131836    0.0133541811
 O    0.7600949590   -0.4498305108   -1.1489485099
 C    0.7954371727   -1.8707189834   -1.2449232766
 C    1.4943292587   -2.4614980276   -0.0078688708
 C    1.5064381716   -3.9825555408   -0.0316789709
 O    2.8493349686   -2.0296272114    0.0154774368
 C    0.7652151985   -1.9097221481    1.2297655347
 O    0.7316550895   -0.4865051614    1.1778091675
 H    1.1021333582    1.8617055091    0.0546029449
 H   -0.4269233996    1.8731299658   -0.8538063330
 H   -0.4471923164    1.8450089197    0.9279600318
 H   -0.9449308134   -0.4354013192   -0.0057286043
 H   -0.2268964049   -2.2707945987   -1.3440003119
 H    1.3605308832   -2.1101328834   -2.1490339297
 H    2.0425470650   -4.3405304219   -0.9154519704
 H    2.0218912430   -4.3682790847    0.8527035494
 H    0.4908846404   -4.3893328126   -0.0499431298
 H    2.8213630467   -1.0649098503    0.0301616850
 H   -0.2590799635   -2.3123329765    1.2911711740
 H    1.3081423898   -2.1777372671    2.1394154496