14

 C   -0.0568299698    1.5930513848   -0.0097519974
 C   -0.0424697049    0.0728537721   -0.0213504161
 O   -1.3319682717   -0.4802559656    0.1473915350
 C    0.7198680406   -0.6189684134   -1.1934889637
 N    1.6866150105   -1.0966851456   -0.1944697716
 C    1.0231872509   -0.6023672767    0.8967970306
 O    1.1807798955   -0.6962896879    2.0861075739
 H    0.9384272605    2.0023840158   -0.2092526823
 H   -0.7539421664    1.9682136664   -0.7649925436
 H   -0.3800014294    1.9571689880    0.9710173998
 H   -1.5498391843   -0.4148120248    1.0848694752
 H    0.1322471438   -1.4095830230   -1.6670491709
 H    1.1472321603    0.0477174017   -1.9479990434
 H    2.4471149644   -1.7570407519   -0.2648656655