19

 C   -0.0620956589    1.5644244327    0.0700505291
 C    1.4928759428    1.4871714340   -0.0540692852
 C    2.1826879259    1.6072677301    1.3151096930
 O    1.3239357206    1.2742706663    2.3994490401
 C    0.9146453144   -0.0766174570    2.5019303163
 C    0.5797749744   -0.7706219546    1.1879582498
 O    1.7948080051   -0.9718004961    0.4038274273
 C    1.3379790264   -0.0020848139   -0.5430641514
 C   -0.0977644575    0.0228172663    0.0163499684
 H   -0.4670672431    2.0714970080    0.9455297531
 H   -0.5200234885    1.9775050412   -0.8333170286
 H    1.9611491124    2.1700252690   -0.7675895989
 H    3.0979561836    0.9992566070    1.3353519743
 H    2.4546816796    2.6513968645    1.4960799555
 H    1.6979132413   -0.6828282114    2.9866872327
 H    0.0370853271   -0.0735254564    3.1594383488
 H    0.1068285294   -1.7344781277    1.4101327013
 H    1.6212074506   -0.2322091295   -1.5718750320
 H   -0.9417398554   -0.4884520226   -0.4467094635