17

 C   -0.1965087717    1.5501602914    0.6240478551
 C    0.0742263377    0.2260426960   -0.0573232728
 O    1.1682562369   -0.0818265867   -0.4756393706
 C   -1.0919994479   -0.7592610373   -0.1760360440
 O   -2.3539064539   -0.1836173084    0.1008088308
 C   -1.0727523059   -1.6662728922   -1.4493339838
 C   -1.2558234779   -2.8752938895   -0.5232853297
 O   -1.5900110929   -4.0089185956   -0.6917017212
 C   -0.9312136437   -2.0344834761    0.7218941608
 H    0.7420872736    2.0897956588    0.7524480418
 H   -0.8857707012    2.1530921503    0.0222256113
 H   -0.6912599411    1.3949238809    1.5875058787
 H   -2.6347084676    0.3267229040   -0.6662035772
 H   -1.8430242408   -1.4878157234   -2.2039304513
 H   -0.0811471980   -1.6685233870   -1.9126646414
 H    0.0984621884   -2.1904118147    1.0563258371
 H   -1.6208365440   -2.1019833505    1.5650815664