19

 C   -0.0069047414    1.4841757132    0.0336454911
 C    0.0161509245   -0.0179832775   -0.0281423534
 C    0.2196400973   -0.7722325271   -1.3505410390
 C    0.1355441862   -2.2107670497   -0.7848291115
 C    1.1480168721   -2.1561852876    0.3855811734
 C    0.5961333665   -0.8909721647    1.0487618617
 C   -0.9209075519   -0.8845525181    0.8257090821
 C   -1.1929183616   -2.1034425962   -0.0010897255
 O   -2.1689099145   -2.8030488289   -0.0561392088
 H    0.9342035883    1.9033782108   -0.3415961864
 H   -0.8197807456    1.8954572393   -0.5750537856
 H   -0.1447020018    1.8404415970    1.0592838918
 H   -0.5665940701   -0.5614099829   -2.0835295718
 H    1.1909205923   -0.5499375272   -1.8072460802
 H    0.2022776074   -3.0418949441   -1.4818331502
 H    1.0914835567   -3.0387755280    1.0309803381
 H    2.1822373950   -2.0360504018    0.0460828188
 H    1.0121264617   -0.4736286705    1.9569313581
 H   -1.6258782710   -0.4714690264    1.5329563473