16

 O   -0.4525040320    0.5227426406   -0.6609317873
 C    0.0725998621    1.0643253379    0.2777736744
 C    1.2567755104    2.0001545428    0.1649256181
 C    1.3090180712    3.1408906411   -0.9199064000
 C   -0.1029396375    3.6528746363   -1.0670690294
 C   -0.4737516817    4.2302512319    0.0836613295
 C    0.6780647298    4.2494321207    1.0189975688
 C    1.9093810359    3.9640821229    0.2600623529
 N    1.4861976071    2.9538091057    1.2849343943
 H   -0.2635284190    0.8857867614    1.3251001276
 H    2.1625432101    1.3841310636    0.1017293518
 H    1.8819072999    2.9531178261   -1.8245183366
 H   -0.7438256255    3.4025156580   -1.9020172908
 H   -1.4624144019    4.5839604488    0.3453477819
 H    0.6946305515    4.8726625130    1.9039317990
 H    2.8548344196    4.4944738193    0.3061715958