17

 C   -0.1908446959    1.5740714077   -0.0236661020
 C    0.0416931958    0.0630396390    0.0498154651
 C    0.8894900070   -0.4924426505   -1.1552837791
 N    1.7584883515   -1.5953018660   -0.6182419923
 C    1.8119738100   -1.3258798110    0.7424243105
 C    0.8808693514   -0.4320046290    1.1949553989
 N    0.9561985507   -0.3520177229    2.5438293811
 N    1.9053185459   -1.1425444113    2.9604270223
 N    2.4370243685   -1.7697942950    1.8432654008
 H    0.7606853123    2.1154615742   -0.0337163248
 H   -0.7515217422    1.8448289428   -0.9248054287
 H   -0.7613295452    1.9150973295    0.8446531557
 H   -0.9356701371   -0.4390763478    0.0564768682
 H    0.2648730435   -0.8764537853   -1.9649435242
 H    1.5144621260    0.3167656072   -1.5561760377
 H    2.6461040250   -1.6792784883   -1.0982702393
 H    3.1928645630   -2.4222988731    1.9648387754