13

 O    0.0291010670    1.3707986627   -0.2203495297
 C    1.2975251972    0.7766682936    0.0367045697
 C    0.0519946922   -0.0284092672    0.0396680833
 C    0.4552120057   -0.7397347106   -1.2816825079
 N   -0.2643994349   -0.3267024809   -2.4787321701
 C    0.4488804060    0.5893572629   -2.9942220316
 O    1.6598307864    0.9186295440   -2.4553613170
 C    1.7667222474    0.1145452806   -1.2748432740
 H    1.8894581261    1.1848579219    0.8475455508
 H   -0.5547709657   -0.3958444924    0.8586387244
 H    0.5513620246   -1.8232249921   -1.1925576984
 H    0.2005368039    1.1530250128   -3.8863068028
 H    2.7370821840   -0.3812623354   -1.2442688268