16

 O    0.0431354826   -0.0043077824   -0.0263087518
 C   -0.0045497599    1.1858533137    0.0273973354
 C   -1.1081867097    2.2705099416    0.0229170598
 C   -0.8009411602    3.0039978943    1.3418863641
 C    0.7014129416    3.0658114866    1.3061338851
 C    1.0048568861    2.3574417818   -0.0273637143
 C   -0.1042592093    3.0948817012   -0.8623688718
 C   -0.1506480463    4.5273561311   -0.3351435095
 N   -0.1062638258    4.2841959756    1.1098229744
 H   -2.1414183571    2.0753879247   -0.2520151724
 H   -1.4030314099    2.8907281093    2.2327710785
 H    1.3523937562    3.0041047688    2.1671996932
 H    2.0363942581    2.2472637027   -0.3514304899
 H   -0.1219219631    2.9049874734   -1.9330036699
 H    0.7107931265    5.1270179800   -0.6443887241
 H   -1.0721212297    5.0536651675   -0.6019647671