19

 C    0.3398977882    1.1756038386   -0.4741215820
 C    0.1490873151   -0.1486326458    0.2295713835
 O    0.9950341097   -0.6377964054    0.9427181699
 C   -1.1954420048   -0.8496011280    0.0122585132
 C   -1.0397509251   -2.3701480414   -0.0294836853
 C   -2.3657111023   -3.1340073989    0.1569536230
 O   -2.1864802542   -4.5382918478    0.2135273570
 C   -0.3456616562   -2.8012851390   -1.3085164513
 O    0.1492394040   -2.0316226536   -2.0964203024
 H    1.2591163980    1.6561268877   -0.1375229957
 H    0.3946334744    0.9856660918   -1.5521275378
 H   -0.5178179596    1.8361626441   -0.3053389583
 H   -1.8395928188   -0.5624379583    0.8549846464
 H   -1.6734329722   -0.4787377397   -0.8988056977
 H   -0.3667372358   -2.6603900755    0.7927095124
 H   -2.8768552533   -2.7525986318    1.0536756628
 H   -3.0326918871   -2.9546332561   -0.6937629044
 H   -1.7039731379   -4.7454998960    1.0206896528
 H   -0.3262085121   -3.8961111251   -1.4816352062