17

 C   -0.0280908809    1.4324672565    0.1585364434
 N   -0.0306696441    0.0299087276   -0.2161163300
 C   -1.1689082774   -0.7324807063   -0.0790457135
 C   -1.3314594607   -2.1240696105   -0.0185807085
 C   -0.2818794384   -3.1092594317   -0.0181225199
 O   -0.4364433022   -4.3153679462    0.0360086738
 C   -2.7475980295   -2.3695779444    0.0536222873
 C   -3.3832918582   -1.1698978964    0.0399277981
 N   -2.4084682321   -0.1705879056   -0.0357684918
 H    0.9880883715    1.8191528171    0.0639378480
 H   -0.6564061865    2.0155079353   -0.5258003305
 H   -0.3754469709    1.6123846019    1.1875794952
 H    0.8143975078   -0.4701536503    0.0093890050
 H    0.7542006832   -2.6875455805   -0.0719313550
 H   -3.1983488281   -3.3469714159    0.1121652976
 H   -4.4266768128   -0.9053613945    0.0828578449
 H   -2.5979138107    0.8146990640   -0.0832325541