14

 C   -0.0491019503    1.4247114339   -0.0284078873
 N    0.0194163213   -0.0150739828    0.0066921938
 N    0.1127969631   -0.7461639614   -1.1642541722
 C    0.1202153921   -1.9746009536   -0.6951127069
 O    0.1889841422   -3.0346356453   -1.5138294182
 N    0.0624301112   -2.1149221394    0.6584162324
 C    0.0048902071   -0.8521391925    1.0606979957
 N   -0.1336568015   -0.4326596769    2.3725277091
 H    0.9450613745    1.8801360272   -0.1065969477
 H   -0.6395754825    1.7240118521   -0.8959574147
 H   -0.5424277011    1.7814330721    0.8792301439
 H    0.1830398147   -3.8151398940   -0.9475220848
 H   -0.0306292507   -1.2110397906    3.0095644182
 H    0.4687394600    0.3348100211    2.6381598188