15

 O   -0.0567405569   -0.0434518330    0.0806753992
 C    0.0182516164    1.1590988834    0.0069759397
 C    1.3038413377    1.9082255207    0.0047193921
 C    2.7384780264    1.4101396299    0.0875985138
 N    2.9765146078    2.9177791370   -0.0009556605
 C    1.7721180306    3.0494174536   -0.9723947336
 C    1.1722529351    4.1888388148   -0.1465341513
 C    1.7072893063    3.1670631264    0.8583876274
 H   -0.8984916905    1.7897763951   -0.0656329943
 H    3.0755660515    0.9699786175    1.0301884166
 H    3.1391721593    0.8545181183   -0.7647835067
 H    1.9167964246    2.9548926183   -2.0500017755
 H    1.7121320892    5.1380255320   -0.1884042801
 H    0.0911216461    4.3339751515   -0.1941365152
 H    1.7752806064    3.2117599946    1.9467293083