19

 O    0.5247056214    0.6428189297   -0.8652922826
 C    0.0243392771   -0.3706461588   -0.0076133423
 C    0.7217740088   -0.3138329747    1.3444859851
 N    0.5805202944    0.9591359023    2.0752412582
 C   -0.0224486565   -0.2630685846    2.6310165721
 C   -1.5356974939   -0.3552911346    2.6885752411
 C   -2.2393147969   -0.2541221881    1.3482668000
 N   -2.0505530012    0.9697519983    0.5528131833
 C   -1.4950958814   -0.3048923189    0.0617349191
 H    0.2749783833    1.4688442073   -0.4279918469
 H    0.2957144630   -1.3206156157   -0.4832283700
 H    1.7047991282   -0.7796169957    1.3506356766
 H    1.4447043487    1.1763785154    2.5636891174
 H    0.4759378953   -0.7011319857    3.4945175323
 H   -1.7935189384   -1.3279721089    3.1273607724
 H   -1.9264066023    0.4112139212    3.3691500106
 H   -3.2389523750   -0.6861367058    1.3449663824
 H   -2.9033512425    1.1939198458    0.0477647720
 H   -1.9931021822   -0.7647024286   -0.7890852609