12

 N    0.1536442063   -3.6885334352   -0.0195619560
 C    0.0830879163   -2.5278871037   -0.0122960726
 C    0.0105817289   -1.1679236766   -0.0039145733
 C   -0.0509181997    0.0421875347    0.0035320771
 C   -0.0929154629    1.4467315597    0.0118445384
 N   -1.1784721094    2.2097036983    0.0301364624
 C   -0.7222677315    3.4931499839    0.0313225524
 C    0.6558258091    3.5234813809    0.0135869030
 N    1.0467154444    2.2159342865    0.0012903492
 H   -1.4019051464    4.3312743633    0.0447753976
 H    1.3665799161    4.3330620599    0.0088170301
 H    1.9921582389    1.8691102884   -0.0128627684