18

 C   -0.3211722140    1.4362498617    0.2997521114
 N   -0.1729023071    0.0901222560   -0.2420673432
 C   -1.2091530890   -0.8114194918   -0.0993107856
 C   -1.2546554597   -2.1754983070   -0.0254574922
 C   -2.6483229967   -2.5123538206    0.0131337211
 C   -3.3505542692   -1.3533971668   -0.0363015859
 C   -4.7871521886   -0.9866512031    0.0155040355
 O   -5.1953359601   -0.4036153857    1.2545380480
 O   -2.4593771319   -0.2910074493   -0.1080683889
 H    0.5758410529    2.0096536344    0.0558568856
 H   -1.1758545627    1.9258595844   -0.1711457514
 H   -0.4699973859    1.4591382520    1.3899953552
 H    0.7194941601   -0.3338844176   -0.0352976130
 H   -0.4117860825   -2.8472616347   -0.0033722240
 H   -3.0730726145   -3.5025561346    0.0781617107
 H   -5.0359784615   -0.3144829538   -0.8211063533
 H   -5.3829250691   -1.8956372048   -0.1030331122
 H   -4.6200372704    0.3523952314    1.4104059621