18

 O   -0.8189602002    0.9568085402    0.3877811478
 C    0.2868099498    0.7275381055   -0.0309522510
 C    1.4469677286    1.6971664963    0.0113615292
 C    1.4012505635    2.8238229429    1.0704764686
 C    2.0342800042    1.7485338341    1.9936776368
 N    2.6001152389    1.0687622912    0.7627139365
 C    3.8437389210    1.7696492992    0.3703631267
 C    3.6909832246    3.2813779771    0.3770307861
 C    2.5085685860    3.7991222378    0.7131735601
 H    0.5480933631   -0.2514712405   -0.4930179752
 H    1.6906835141    1.9859028046   -1.0196293698
 H    0.4447897910    3.2784690040    1.3266796746
 H    2.7786995267    2.0801339553    2.7204878267
 H    1.3060181077    1.0893731232    2.4724028659
 H    4.6419228731    1.4565941824    1.0561492693
 H    4.1405940497    1.4123422710   -0.6246505415
 H    4.5475054137    3.8949422045    0.1130466168
 H    2.3225518945    4.8675429211    0.7422419926