18

 C   -0.1054944415    1.5554495542   -0.0179176572
 C    0.0571590088    0.0506516689   -0.0001798889
 C    1.3571145685   -0.6683272816   -0.2337512664
 C    2.6309176718    0.1306436227   -0.0292522117
 O    2.6052697750    0.6227470857    1.3257829508
 C    1.5932965825    0.0519011441    2.0427535076
 O    1.5008691988    0.1731381115    3.2316854200
 C    0.6965214137   -0.7415706176    1.1304050037
 N    0.0128818328   -1.8972709956    1.6239137975
 H    0.7521369094    2.0759206433    0.4152787474
 H   -0.2307380992    1.9131109106   -1.0456711653
 H   -0.9941280673    1.8541776193    0.5472535662
 H   -0.7944306077   -0.4965162594   -0.3965183568
 H    1.3831247667   -1.5321211317   -0.8860797603
 H    3.5232578904   -0.4931045400   -0.1485878473
 H    2.7197482243    0.9953485359   -0.6943471898
 H    0.6644390603   -2.5113763607    2.1057311828
 H   -0.6670576371   -1.6116984797    2.3241036480