18

 C    0.0946641207    1.5823440032   -0.1552971143
 C    0.0970975898    0.0875431707   -0.0126660270
 N   -1.1826800633   -0.5219002792   -0.5426656282
 H   -1.3846048189   -0.1966396002   -1.4934177683
 H   -1.1054710841   -1.5419048828   -0.5604816440
 H   -1.9804986671   -0.2810761809    0.0559518760
 C    1.3340227303   -0.7889724426   -0.1807426965
 O    2.5419681376   -0.2017733520   -0.3867342567
 C    0.6576305782   -0.6656922316    1.1760670240
 C    1.3603975882    0.1544657908    2.3051725967
 O    2.3591276763    0.8266921102    1.8953325854
 O    0.8641233515    0.0644015911    3.4205284329
 H    1.0226279709    1.9534553913    0.2829245232
 H    0.0531087831    1.8915842290   -1.2074053911
 H   -0.7369852585    2.0464833014    0.3895166684
 H    1.1896306625   -1.7181050102   -0.7418463226
 H    2.7100861593    0.2875686807    0.5024510407
 H    0.0731192935   -1.5052701490    1.5461238913