15

 O   -0.0321237292    1.2994663161    0.1646132423
 N   -0.0000341463   -0.0772452278    0.0905856297
 C   -1.1531919461   -0.6266760626    0.0278377519
 C   -1.2951068593   -2.0944608760   -0.1211262158
 C   -2.1555624628   -2.8100624156    0.9246107563
 C   -2.7693736614   -2.2979458768   -0.3373890404
 O   -3.4257091065   -1.0465908956   -0.2485929842
 C   -2.5250277531   -0.0340927261    0.0065022746
 N   -2.8544359390    1.1706522819    0.1940629587
 H    0.9056302747    1.5235001853    0.1890727228
 H   -0.5308671898   -2.6482451604   -0.6490206789
 H   -2.0044743491   -3.8801483656    1.0121687591
 H   -2.3872164282   -2.2972118019    1.8517510525
 H   -3.2012263311   -2.9441295625   -1.0907435420
 H   -3.8703877227    1.2674792176    0.1309070136