18

 C   -0.0636272778    1.5239484174    0.0081488548
 C    0.0372317881    0.0255121930    0.0244737128
 C   -0.8322531505   -0.8474160855    0.8965316646
 C    0.6598887159   -0.9279896131    1.0502165985
 C    1.2407139449   -1.7958240333   -0.0706258699
 C    0.6554600309   -0.7961325047   -1.1346451277
 C   -0.2717721259   -1.3316942942   -2.1915049473
 O   -0.1235638262   -1.1721471748   -3.3779435868
 H    0.8830654742    1.9845638958   -0.2961252862
 H   -0.8372168661    1.8643090856   -0.6906483146
 H   -0.3216874927    1.9099912368    0.9997528621
 H   -1.3522853938   -0.3081939535    1.6824485138
 H   -1.3937332812   -1.6913602252    0.5042007847
 H    1.1556177625   -0.6941477501    1.9847345349
 H    2.3309343567   -1.8171094333   -0.1075044411
 H    0.8707678923   -2.8262997146   -0.1132533596
 H    1.4518540950   -0.2410091347   -1.6359280280
 H   -1.1436752761   -1.9073990217   -1.8039172751