17

 C    0.0499168535   -1.2142188561   -0.0551154569
 C    0.0304519507   -0.0103036538   -0.0285846584
 C   -0.0097594895    1.4090987114    0.0340013210
 C    0.2875570378    2.2882371429   -1.1630102726
 C    1.1680849102    2.4358725413    0.0329851274
 C    0.4479642463    3.2271239952    1.1434811329
 O   -0.4535637699    4.2770839606    0.7108652569
 C   -1.6035029650    3.3944701107    0.8275214740
 C   -0.6960801212    2.2023062664    1.1842518095
 H    0.0696431636   -2.2751357435   -0.0854749324
 H    0.7284207865    1.7549051089   -1.9976079035
 H   -0.3834179231    3.0930670793   -1.4408879517
 H    2.2303209560    2.2267690744    0.0019841052
 H    1.0501035428    3.5109519930    2.0086972309
 H   -2.2621121416    3.7141127710    1.6439191553
 H   -2.1818936331    3.3336688900   -0.1013503578
 H   -0.9216627438    1.6085070783    2.0668450300