20

 C   -0.0261828531    1.3337071017   -0.1424622068
 O   -0.0797286795    0.1197199764    0.5718171154
 C    0.9379018158   -0.7867288532    0.2002784803
 C    0.6879348174   -2.1119472546    0.8705718644
 C    1.8480951396   -2.9821109887    1.2470333177
 C    1.0274727456   -2.3097528544    2.3256542723
 O   -0.4178368729   -2.8164003902    0.3487566146
 C   -1.6474170792   -2.4298843194    0.7713845135
 N   -2.6689992834   -2.9718008081    0.2659070570
 H   -0.1334647885    1.1732386586   -1.2260805080
 H   -0.8536317488    1.9548650028    0.2078456422
 H    0.9199632344    1.8687984545    0.0348768357
 H    0.9454912088   -0.9302527733   -0.8922698681
 H    1.9281252612   -0.4019804440    0.4949349899
 H    1.7072228063   -4.0465870245    1.1030920706
 H    2.8509561289   -2.6209227329    1.0489825283
 H    1.4546606443   -1.4731891958    2.8668835161
 H    0.3627915657   -2.9367316432    2.9082283526
 H   -1.6193695649   -1.6583846767    1.5455924318
 H   -3.5067023577   -2.5880030951    0.6991028602