17

 C   -0.0581919817    1.4648278410    0.0370807972
 C   -0.0145699798    0.0112666839    0.0009518279
 C    0.0109525759   -1.1938592209   -0.0319102586
 C    0.0855133150   -2.6161689509   -0.0516915220
 C   -0.4136557151   -3.4533481193   -1.1712117145
 N   -1.1357818507   -3.5568728797    0.1021943599
 C   -0.2771918244   -4.4393146762    0.9695311496
 C    0.9286658580   -3.4705987691    0.9039053015
 H    0.6817856753    1.8655309880    0.7387422278
 H    0.1482430216    1.8985404103   -0.9477843261
 H   -1.0434439310    1.8217723578    0.3575242389
 H   -0.9845191735   -2.9477487125   -1.9432774474
 H    0.1806361427   -4.2986064330   -1.5179326151
 H   -0.7189202862   -4.5257641040    1.9635185644
 H   -0.1344080481   -5.4426632315    0.5539012496
 H    1.8761297810   -3.8429546889    0.5038091037
 H    1.1168889811   -2.9689391649    1.8538061532