17

 C   -0.0301007993    1.5125272304    0.0041353314
 C   -0.0070728667    0.0612773087    0.0091993834
 C    0.0130985661   -1.1489347114    0.0139484477
 C    0.0363647207   -2.5081946905    0.0194339709
 C    0.0518288993   -3.7196048917    0.0319501316
 C    0.0891445493   -5.1739736709    0.0009307449
 C   -1.3297625219   -5.7945858625   -0.0347022617
 C    0.8594014696   -5.6422626415   -1.2413547950
 O    1.7259282559   -6.4724193445   -1.2200976345
 H    0.9851736289    1.9248825194    0.0037471361
 H   -0.5469604920    1.8972149973   -0.8822783683
 H   -0.5482099380    1.9027207877    0.8874404733
 H    0.6323095361   -5.5615047714    0.8705343520
 H   -1.9064511053   -5.4587904696    0.8300193102
 H   -1.8642979999   -5.4893964264   -0.9389791445
 H   -1.2622942950   -6.8857364998   -0.0149565532
 H    0.5266212822   -5.1573230131   -2.1857383942