16

 O   -0.0299991253    0.0414720557    0.6397951245
 C   -0.0459338080    1.0956279914    0.0680604777
 C   -1.2537747183    2.0142749915    0.0232134763
 C   -1.7763893116    2.2732879254   -1.4038440235
 C   -0.6757058201    2.8480541026   -2.3185549169
 O    0.2816071104    3.5522693167   -1.5301151779
 C    1.3592481960    2.7778910721   -1.1153734704
 O    1.0603664526    1.4578758597   -0.6496946711
 H   -2.0234900320    1.5409138692    0.6342661249
 H   -0.9915299369    2.9717776135    0.4830028808
 H   -2.1760598945    1.3501840027   -1.8369170939
 H   -2.6108608665    2.9776784669   -1.3315020229
 H   -0.1824371805    2.0532400013   -2.8912813722
 H   -1.0874066279    3.5690503142   -3.0294620887
 H    2.0629613462    2.5923018780   -1.9383881639
 H    1.8541837564    3.3430428489   -0.3180922527