19

 C   -0.0830472216    1.3552707035    0.0008607214
 O    0.0875723557   -0.0580640059   -0.0040191355
 C    0.6769772725   -0.5341640652   -1.1377575139
 C    2.1665605208   -0.3580265585   -1.6490729421
 C    1.5227572168   -1.3288374644   -2.6999877500
 C    2.1647770411   -1.9529069334   -3.9033561173
 C    0.8489740108   -2.0444745006   -1.4684585854
 C    0.3090538077   -0.3825834348   -2.6294657087
 O   -0.4677950006    0.1687706294   -3.3500816411
 H    0.8859354861    1.8730094951    0.0003323546
 H   -0.6672854828    1.6868247536   -0.8653629191
 H   -0.6182462326    1.6034646197    0.9189713654
 H    2.4844570100    0.6255210149   -2.0009677021
 H    2.9114080835   -0.8269912162   -1.0017193744
 H    3.0130157110   -2.5858417558   -3.6238996399
 H    1.4456903717   -2.5719880943   -4.4493262220
 H    2.5293193083   -1.1826203210   -4.5905216099
 H    1.5520925702   -2.5691106198   -0.8169296057
 H   -0.0562428987   -2.6267135163   -1.6515546945