14

 N   -0.0449065191    1.2016370760    0.3761937454
 C   -0.0092770336   -0.0035257918    0.0096486736
 O    1.1117096021   -0.6779371087   -0.4019531766
 C    0.7692126322   -1.9390117643   -1.0313935249
 C    1.6514560649   -2.9984157004   -0.5669361779
 C    2.3663880758   -3.8952346024   -0.2132705640
 C   -0.7057407945   -2.1550882430   -0.7002622333
 O   -0.9514496829   -2.1304682698    0.6946452259
 C   -1.1797780194   -0.9243562343   -0.0623942690
 H    0.8796705782    1.6310580940    0.3072749148
 H    0.8792421318   -1.8101172960   -2.1168178516
 H    2.9986334066   -4.6846819169    0.1119029846
 H   -1.3137340366   -2.8170980425   -1.3083100123
 H   -2.1916175655   -0.5398669799   -0.0889307747