21

 C   -0.5268347332    1.1396932804   -0.1183713096
 C    0.3442654596   -0.1108657250    0.0253252245
 C    0.6245944537   -0.7743969451   -1.3145156508
 O    1.4421713503   -1.9189145091   -1.0916082792
 C    1.8063861957   -2.5767117760   -2.2531166271
 C    2.1706903026   -4.0022370135   -2.1317397314
 C    0.8748259521   -3.6354689961   -2.8665041779
 C   -0.4076251936   -3.9527404739   -2.2041607780
 O   -1.4169080524   -4.2691320192   -2.7884339370
 H   -0.0437387005    1.8928161164   -0.7505137487
 H   -1.4968000037    0.9015171953   -0.5681673326
 H   -0.7169129738    1.5975888068    0.8562922666
 H    1.3008681626    0.1420996546    0.4964129032
 H   -0.1442939196   -0.8408017761    0.6808238874
 H   -0.3146171122   -1.0733350876   -1.8059743463
 H    1.1398490521   -0.0753495073   -1.9933170059
 H    2.3411095238   -1.9615268831   -2.9785293734
 H    2.9872264421   -4.3991634383   -2.7227886551
 H    2.0541956942   -4.4469970550   -1.1488142443
 H    0.8579192765   -3.7206731211   -3.9474162140
 H   -0.3813469362   -3.8818802172   -1.0942638605