21

 C   -0.0256763607    1.5807976258    0.1334693656
 C   -0.0087278764    0.0544036972    0.0055740232
 C    0.7102356066   -0.4530666278   -1.2613649558
 C    0.8378092811   -1.9901726184   -1.2531093405
 C    1.7155571523   -2.5370177563   -2.3988702842
 C    1.8345836804   -3.9890944594   -2.3645718842
 C    1.9147674337   -5.1871420229   -2.3101594707
 C   -0.0653090478   -0.0242263745   -2.4921450069
 O    0.3668780627    0.6260671695   -3.4083343334
 H    0.9917993798    1.9839594274    0.1708180810
 H   -0.5333264392    2.0536852770   -0.7137592763
 H   -0.5426977313    1.8903941535    1.0464435659
 H    0.4846764175   -0.3854176132    0.8800487718
 H   -1.0368846234   -0.3326589668    0.0120242280
 H    1.7066193495    0.0002432083   -1.3293267703
 H    1.2636771200   -2.3059100885   -0.2949910560
 H   -0.1582546220   -2.4464419101   -1.3117863957
 H    1.3064733400   -2.2248661803   -3.3680533784
 H    2.7139190062   -2.0847642659   -2.3380786968
 H    1.9945727980   -6.2452855379   -2.2759765539
 H   -1.1247217469   -0.3830837466   -2.4938222424