21

 C    0.0070431780    1.5435647148    0.0733655335
 C   -0.0121256880    0.0281588151   -0.0091615140
 C    0.2173948171   -0.6663883847   -1.3863145295
 C   -0.7188136659   -1.8068853911   -0.8848893855
 C    0.0753261890   -2.7094642008    0.0319118305
 C    0.8482043052   -2.1383254062    0.9604214740
 C    0.8956153741   -0.6296602753    1.0533139281
 C   -1.3975128080   -0.7039357659   -0.0071323168
 O   -2.0361635661   -1.0309301604    1.1925569526
 H    1.0196084190    1.9417111078   -0.0642023438
 H   -0.6342975408    1.9878058170   -0.6954705896
 H   -0.3545204762    1.8858030478    1.0501239178
 H   -0.2330670420   -0.0926285870   -2.2015699726
 H    1.2382310014   -0.9491311524   -1.6528135308
 H   -1.3285846528   -2.3515095101   -1.6066040113
 H    0.0016942746   -3.7875640482   -0.0720888710
 H    1.4507624502   -2.7230043841    1.6499650060
 H    1.9289181297   -0.2734155504    0.9357211720
 H    0.5821856813   -0.3024935782    2.0554636197
 H   -2.1203079241   -0.1340062711   -0.5991232290
 H   -1.4974176659   -1.7079201065    1.6225123497