21

 C    0.0319617520    1.4859928782    0.2009778895
 O    0.3037271724    0.1193363269   -0.0099124296
 C    0.7082111762   -0.6061857159    1.1440175811
 C   -0.4000466914   -0.7516507879    2.1864078740
 C    1.1791499355   -1.9847646923    0.6354848358
 O    0.1055410291   -2.8096642445    0.2849714517
 C    2.1259657708   -1.8358010093   -0.5651057252
 C    3.3671936198   -0.9910792921   -0.4127094883
 O    1.8507215045   -2.4111712081   -1.5954474398
 H    0.8701340724    1.9955732391    0.7032257546
 H   -0.1141344268    1.9370694137   -0.7836261064
 H   -0.8767620425    1.6489932450    0.7960428697
 H    1.5747304090   -0.0977733199    1.6031852473
 H   -0.0427659232   -1.3444087895    3.0344013767
 H   -0.7162470437    0.2208436520    2.5724039233
 H   -1.2562708289   -1.2632298695    1.7432296003
 H    1.7582516698   -2.4499881364    1.4528653107
 H    0.2303055612   -2.9893015728   -0.6621060379
 H    3.8514695128   -1.1562907973    0.5544268486
 H    4.0624915608   -1.2078679320   -1.2246593844
 H    3.0790800402    0.0644014025   -0.4640982617