21

 O    0.2347209016    1.3257038414   -0.1032037916
 C    0.1149314516   -0.0710235066    0.0716198574
 C    0.1924079508   -0.6629596954    1.5232709080
 C   -1.2344963148   -1.1832323334    1.3436740310
 C   -2.1508259729   -0.0280713935    1.0521731543
 C   -1.3194813122   -0.5841737804   -0.0736181136
 C   -1.8488466149   -1.1291234230   -1.3525072993
 C   -3.3201911687   -1.1725830415   -1.6873150037
 C   -2.4225036714   -0.1946572138   -2.3974754638
 H    1.1597815841    1.5660565665    0.0108510319
 H    0.7917102119   -0.6099499409   -0.6063142502
 H    0.9505167933   -1.4440810193    1.6203359675
 H    0.3310621990    0.0743724408    2.3211141364
 H   -1.6102847785   -2.1397827237    1.6858356628
 H   -3.2061419021   -0.2747799681    1.0123882145
 H   -1.9346934284    0.9584609342    1.4531329483
 H   -1.2639980194   -1.9557849325   -1.7514806169
 H   -3.6852878366   -2.0326809691   -2.2378583267
 H   -4.0281502972   -0.7759985079   -0.9687431219
 H   -2.5057402964    0.8523932435   -2.1288646585
 H   -2.1775559388   -0.3741941273   -3.4384105662