25

 C    0.0119360239    1.4702516209   -0.2009043834
 C    0.0151883854   -0.0336869510    0.0315081685
 C   -1.2159282679   -0.6860977169   -0.5805263333
 C    1.3366345100   -0.7702329926   -0.0445936726
 C    0.6496847140   -0.6097301721    1.3002599992
 C    1.2732597735    0.3368442927    2.3170408255
 C    0.0381688111   -1.8497217751    1.9442529821
 C    1.0463329279   -2.7413849624    2.6677144027
 O    0.3566502187   -3.9198138390    3.0648254113
 H    0.9352396191    1.9564478401    0.1185408802
 H   -0.1106191019    1.6816897091   -1.2696981181
 H   -0.8210028769    1.9535380986    0.3242809418
 H   -1.3004338533   -0.4026428332   -1.6363077001
 H   -1.1906123102   -1.7763859936   -0.5426039892
 H   -2.1337785497   -0.3544328952   -0.0798198577
 H    1.3450300112   -1.7563864507   -0.5003015271
 H    2.2369968268   -0.1925103387   -0.2331663533
 H    1.7262899529    1.2142195383    1.8534537600
 H    0.5251542215    0.6891179114    3.0378122005
 H    2.0642085722   -0.1632820088    2.8860441212
 H   -0.7422558690   -1.5571499842    2.6589162735
 H   -0.4487983606   -2.4805698189    1.1974831244
 H    1.8820044956   -2.9774242973    1.9888810435
 H    1.4698909931   -2.2250279428    3.5417910980
 H    0.9701242725   -4.4750992886    3.5544821125