16

 O   -0.8936197106    1.1425006090    0.2166828717
 C    0.2247227726    0.7531883750    0.0083246238
 C    1.4453009055    1.6605546681    0.0112771111
 C    1.3140425883    2.8163663335    0.9978737816
 N    2.5860132187    3.5192212914    1.0611820605
 C    3.8039362943    2.9791102337    0.7683997292
 O    4.8523390038    3.5758202342    0.9153807321
 C    3.7825941964    1.5707882182    0.1708008587
 O    2.5638997325    0.8617310515    0.3301604091
 H    0.4616137884   -0.3084878846   -0.2162461686
 H    1.5477158082    2.0678686343   -1.0135127751
 H    0.5234830948    3.4947846013    0.6654331122
 H    1.0226504349    2.4214653902    1.9803535562
 H    2.6223901100    4.4305312599    1.4953731505
 H    4.0444179783    1.6641382823   -0.8955376755
 H    4.5651425340    0.9864395219    0.6578884825