21

 C   -0.1796510308    1.4848605598   -0.1176541409
 C    0.0127486120   -0.0215797386   -0.0383195918
 C    1.2733868475   -0.5541831893   -0.8400901048
 C    1.9739430335   -0.5907433230    0.4980129090
 C    3.0182670837   -0.1702659884    1.2034546148
 C    2.5905835882    0.1086637832    2.6452176870
 C    1.0301139153    0.2024526080    2.5600960240
 C    0.6848108954   -0.5782023416    1.2743739942
 O    0.1085099897   -1.8620722928    1.5086321164
 H    0.7517034560    2.0175007461    0.1058668063
 H   -0.4977650626    1.7814085345   -1.1226371368
 H   -0.9425034503    1.8282097621    0.5890888722
 H   -0.9153820518   -0.5503065452   -0.2686754948
 H    1.0845183637   -1.5425365743   -1.2671223616
 H    1.6944084219    0.0973357424   -1.6104226993
 H    4.0178136016    0.0453123689    0.8406444794
 H    2.9239391637   -0.6745822334    3.3405646786
 H    3.0314695414    1.0417170174    3.0127201950
 H    0.5185694372   -0.2109450405    3.4334826345
 H    0.7368860960    1.2530276806    2.4729378222
 H    0.7532581986   -2.3875990760    1.9955564462