16

 O   -0.0511873122    1.3143743166    0.0441966972
 C    0.0542235138   -0.0606335152    0.0572364103
 C    0.7683269403   -0.9733233781    1.0808633588
 C    0.0797849099   -1.9200035172    0.0706830746
 O    0.1265418017   -3.2964324278   -0.0013225580
 C   -1.1875629809   -0.9899920003   -0.0802292073
 C   -1.0948354253   -1.0184639876   -1.6206672151
 C    0.3782040305   -1.0135062814   -1.1597018458
 H    0.8322965239    1.6872690836   -0.0469585795
 H    1.8639394330   -0.9676730676    1.0774213528
 H    0.3757418552   -0.9619357394    2.1036824589
 H   -0.2668988531   -3.6574514060    0.8004086683
 H   -2.0625239355   -0.9765458124    0.5721947164
 H   -1.4464174290   -1.9278901637   -2.1144779375
 H   -1.4455611219   -0.1260522378   -2.1451752205
 H    1.2991559695   -1.0258410359   -1.7454403637