21

 O    0.1635712794    1.3528695536    0.1582690005
 C    0.0945077859   -0.0588649870   -0.0184807572
 C    0.1530015672   -0.3659317346   -1.5604905121
 C   -1.4460979916   -0.2807399361   -1.5056272814
 C   -1.2984258162   -0.6764655663   -0.0043909390
 C   -1.3701578718   -0.2472272205    1.5048181854
 C    0.1891739485   -0.6530858618    1.4343704253
 C    0.1098190869   -2.1648784091    1.2404305106
 C   -1.0263321407   -2.1971914035    0.1724230686
 H   -0.1328043786    1.7866304491   -0.6480814641
 H    0.6833508004    0.3716037960   -2.1707990324
 H    0.5035534379   -1.3587349678   -1.8398538939
 H   -1.7987271072    0.7404479097   -1.6741578562
 H   -2.0127994311   -0.9518512394   -2.1560084870
 H   -1.5075233971    0.8168132393    1.6696769798
 H   -1.9990902031   -0.8392514729    2.1769366537
 H    0.9027640461   -0.2534404764    2.1567711006
 H    1.0476935679   -2.5935476675    0.8746837381
 H   -0.1574995823   -2.6842079477    2.1648669617
 H   -1.9284784588   -2.7001757164    0.5341388787
 H   -0.7284847516   -2.7018363607   -0.7488268699