19

 C   -0.0792642352    1.5228635380   -0.0732918190
 C    0.0200381483    0.0166495164    0.0095837953
 C    1.3243246721   -0.6901136667   -0.2126239081
 C    0.7171633573   -0.6654644803    1.1826634292
 C    1.3434435039    0.0805368786    2.3560955411
 C    1.0812950234   -0.8252653189    3.5783588206
 O    1.4288705469   -0.5931028418    4.7132608616
 C    0.3356849198   -2.0029872822    3.0852796330
 C    0.1451507272   -1.9021602816    1.7606129554
 H    0.8416975149    2.0062241962    0.2660520037
 H   -0.2563183173    1.8399685185   -1.1066980599
 H   -0.9037285205    1.9050876212    0.5384533616
 H   -0.8622279063   -0.5059434069   -0.3532361168
 H    1.3322555471   -1.6314631758   -0.7522336293
 H    2.2101690140   -0.0808366413   -0.3642639922
 H    2.4209903187    0.2360118587    2.2469901366
 H    0.8938819736    1.0613580170    2.5395720153
 H    0.0134218396   -2.8066714713    3.7339185856
 H   -0.3700485776   -2.6300311778    1.1408504662