19

 O   -0.6176879231    1.5193853446   -0.6818270104
 C   -0.5139222445    0.1184237888   -0.8787882470
 C   -1.5325441296   -0.5394052250    0.0500667029
 C   -1.5903238684   -2.0493981635   -0.0826966423
 C   -0.3713282593   -2.8178346490    0.4167259498
 C   -0.4332452024   -4.3167211481    0.1963620461
 O   -0.1269857978   -5.1325197371    1.0281871667
 C   -2.9010479072   -2.7154210555   -0.1346245861
 O   -2.1349424535   -2.5182984854   -1.3284901023
 H   -0.0123148565    1.9548173898   -1.2888843657
 H   -0.7399793149   -0.1641087829   -1.9177470438
 H    0.5042531224   -0.2359379420   -0.6519534634
 H   -1.3011695224   -0.2668014724    1.0866406800
 H   -2.5161783795   -0.1198429636   -0.1821303026
 H    0.5168022894   -2.4615302876   -0.1257908473
 H   -0.2009367212   -2.6252008313    1.4803347570
 H   -0.7653848209   -4.6188209474   -0.8190756740
 H   -3.0011232499   -3.7511145889    0.1900033437
 H   -3.8106076807   -2.1217927034   -0.0611812512