17

 C    0.3040753824    0.4374026235    1.2205624717
 C   -0.2267950211   -0.4690892652    0.1019521025
 C    0.7521420373   -0.5977443727   -1.0397461720
 O    1.9975990472   -1.2671659076   -0.7860610556
 C    1.0891951913   -1.9108739479   -1.6783680822
 C    0.4644544338   -3.1341857918   -1.2585861821
 C   -0.0577384732   -4.1712487293   -0.9480485210
 C    0.9207887471    0.5851065795   -1.9536164431
 O    0.1669615246    1.5222224434   -1.9946828823
 H    1.2471848993    0.0501234853    1.6170875432
 H    0.4732700260    1.4550913705    0.8578316664
 H   -0.4152498149    0.4892116969    2.0424005025
 H   -0.4493062224   -1.4656239080    0.4916198330
 H   -1.1558316626   -0.0567964167   -0.3056706740
 H    1.4142199065   -1.8998913517   -2.7196162597
 H   -0.5164546612   -5.0873952591   -0.6667169700
 H    1.8240831900    0.5152222810   -2.6001885773