18

 C    0.0837754563    1.5192349400    0.0635080901
 N    0.1902444543    0.0699146866   -0.0402333458
 C    0.5329938862   -0.5917477796    0.9618770158
 O    0.8479178697   -0.1910085699    2.2526304840
 C    1.0470646209   -1.5740877496    2.6744161721
 C    0.7364378652   -2.0721382615    1.2427125189
 C   -0.4605000665   -2.9609659724    1.0472326979
 C   -0.6028068620   -3.8095321128   -0.1395927808
 O   -0.2225727731   -4.3686498257    1.1205801559
 H    0.8007055916    1.9807101801   -0.6246517876
 H   -0.9151529901    1.8269613235   -0.2636182456
 H    0.2626201524    1.9113204560    1.0712709018
 H    2.0657524967   -1.7338730316    3.0339883232
 H    0.3233410365   -1.8574508921    3.4435592771
 H    1.6007448988   -2.4964874171    0.7263151093
 H   -1.3699220888   -2.6336342732    1.5539041603
 H   -1.5968369389   -4.0788134653   -0.4917226021
 H    0.1745910908   -3.7983479053   -0.9017667945