19

 C   -0.0091519895    1.5107188727   -0.1565444566
 C    1.5587100928    1.4961998909    0.0792769690
 C    1.3862220237    0.1507766284    0.8623124311
 C    1.0462693228    0.2198330891    2.3451825010
 O    0.0097375936   -0.7768545436    2.4492277266
 C   -0.1177201198   -1.2133119356    1.1236682605
 C    1.3210415327   -1.3693547765    0.4538710066
 C    0.7089056740   -0.9821780776   -0.8962453129
 C    0.0367445827   -0.0164111268    0.1133383585
 H   -0.5345353916    2.0752620211    0.6175777949
 H   -0.3718649274    1.8333410370   -1.1358742107
 H    2.1193053450    1.4112743713   -0.8523334802
 H    1.9802283511    2.3224633979    0.6561740979
 H    1.8814920077   -0.0497824301    3.0030907084
 H    0.6555222058    1.1959020479    2.6601786590
 H   -0.8786358621   -1.9914427601    1.0422830807
 H    2.0296201108   -2.1744269084    0.6714516925
 H    1.3856610993   -0.5372462131   -1.6276988321
 H    0.0567740183   -1.7168849944   -1.3776300840