12

 N   -0.0336666113    1.2325442868    0.4165923522
 C   -0.0440126509    0.0400002750    0.0016678485
 O    1.1132143955   -0.5597690025   -0.4894075760
 N    1.1789874363   -1.8615127565   -0.9610406575
 C    0.0896029499   -2.5470820960   -0.9363552686
 C   -1.1772323450   -2.0621206916   -0.4588321765
 C   -1.2488076976   -0.7942185328    0.0023654993
 C   -2.4655639958   -0.2357440734    0.4934564446
 N   -3.4756060174    0.1731421141    0.8819658523
 H    0.8940556258    1.6502199328    0.3374103941
 H    0.1925013177   -3.5584008566   -1.3153508668
 H   -2.0453707172   -2.7092736094   -0.4744480657