20

 C   -0.0845731407    1.3920813171    0.0076372680
 O    0.0897388682   -0.0034649063    0.0425551147
 C    0.6801711264   -0.5547021674   -1.1331708150
 C    1.3175211443   -1.8874435569   -0.7401702693
 C    1.7307641802   -2.6830566786   -1.9829383167
 C    0.5131537051   -3.0086251172   -2.8616617517
 C   -0.4218921829   -1.8344495665   -2.9879548945
 C   -0.3420687296   -0.7404051158   -2.2316312486
 H    0.8711785014    1.9179397374   -0.1488689244
 H   -0.7832945947    1.7173452750   -0.7779423075
 H   -0.4951667713    1.6905306256    0.9758334312
 H    1.4693906021    0.1366642992   -1.4815904192
 H    2.1723544691   -1.7040946017   -0.0819181871
 H    0.5780508137   -2.4511637853   -0.1586162129
 H    2.4497862777   -2.0940337546   -2.5673318970
 H    2.2464232121   -3.6039770483   -1.6915746424
 H    0.8364758076   -3.3370099262   -3.8577144476
 H   -0.0398048725   -3.8618743481   -2.4403032774
 H   -1.2035747748   -1.9092908444   -3.7413216202
 H   -1.0468276312    0.0737300631   -2.3807339225