18

 O   -0.0240617648    1.4540665452    0.1831668743
 C    0.0906773151    0.0726583902   -0.1125515804
 C   -1.2762652432   -0.5825361750   -0.0995107332
 C   -1.4832698374   -2.0836577963    0.1184893395
 C   -1.2004141107   -1.9090553147    1.6403625769
 C   -2.5247924726   -2.5608794495    2.0634945424
 O   -3.1099445761   -2.1796029901    3.2719159401
 C   -2.8484263323   -1.7604845240    0.7954723201
 N   -1.9478919567   -0.5814409334    1.2785968543
 H   -0.5701412181    1.5184572521    0.9760557747
 H    0.5377820237   -0.0008669161   -1.1101452949
 H    0.7722113274   -0.4340177239    0.5891281078
 H   -1.9204251997   -0.1088631900   -0.8507317088
 H   -1.2368012093   -2.9391022440   -0.5176044648
 H   -0.2412265965   -1.8880935449    2.1580250538
 H   -2.5835392221   -3.6493488650    1.9860863883
 H   -3.0552226938   -1.2159098570    3.3143133895
 H   -3.8017871728   -1.5509776736    0.3067232402