21

 C    0.1159562465    1.4407299843   -0.3826913196
 C    1.5300989078    1.4867092939    0.2944523713
 C    1.3780558167   -0.0195199147    0.6519323357
 C    0.7837159763   -0.4053511588    2.0271731835
 C   -0.6461449568   -0.3881924762    1.3793723787
 C   -0.0136920646   -0.0654288680   -0.0095451719
 C    0.1143924943   -1.1325692954   -1.0927658713
 C    1.6575660440   -1.2435414387   -1.2512180822
 O    2.2266406807   -0.9544525128    0.0325907676
 H   -0.6396481832    2.0919606497    0.0644371898
 H    0.1332233959    1.6315362990   -1.4597300508
 H    2.3534870779    1.6745486816   -0.3987001429
 H    1.6314488784    2.1666500030    1.1445459725
 H    1.1114764577   -1.3970440463    2.3448137128
 H    0.9522109410    0.3021819319    2.8429474802
 H   -1.1763786780   -1.3427705443    1.4250117637
 H   -1.3124771339    0.3890358039    1.7626176906
 H   -0.2963362603   -2.0879826961   -0.7509347225
 H   -0.3714625615   -0.8775956181   -2.0395596641
 H    1.9990612166   -2.2381369712   -1.5507198476
 H    2.0180577945   -0.5215455167   -2.0006166534