19

 O   -0.5941394708    1.2504140552   -0.6428022789
 C   -0.2416712730   -0.0367349007   -0.2375664693
 C   -0.1948412009   -0.3839219426    1.2356933875
 C   -1.3112350237   -0.9090489550    0.3720112426
 O   -2.5566612717   -0.2955577871    0.5603374720
 C   -3.4460418771   -0.5171227578   -0.5290186389
 C   -4.7719501582    0.1663952541   -0.1814354741
 C   -5.7732455904   -0.0215780596   -1.2220547028
 C   -6.5790794549   -0.1935516995   -2.0965896213
 H   -1.4345189208    1.4487570412   -0.2092243088
 H    0.4937391356   -0.4708911391   -0.9063374361
 H    0.5489632058   -1.0845499943    1.5990676488
 H   -0.4563231675    0.4084439843    1.9296528974
 H   -1.3631877697   -1.9732645550    0.1437869337
 H   -3.0305500727   -0.1090004562   -1.4596646094
 H   -3.6056563258   -1.5951575196   -0.6745440228
 H   -5.1323331167   -0.2350507924    0.7730570010
 H   -4.5900326812    1.2359350848   -0.0196947000
 H   -7.3009360562   -0.3368598607   -2.8620004005