19

 O   -0.0827801982    1.4253497591   -0.0543814130
 C   -0.0003038346    0.0047774950   -0.0207084804
 C   -1.4112181198   -0.5305861269   -0.1404213627
 C   -1.6792911754   -0.7683263216   -1.6028293388
 C   -0.4274416941   -0.3783507806   -2.3667654966
 C    0.6837742238   -0.5853041442   -1.2937734672
 C    0.8732943843   -2.0662430486   -1.0841754423
 C   -0.2359805394   -2.7400223394   -0.7666385969
 C   -1.4946019887   -1.9634060456   -0.6586113293
 H    0.8132281886    1.7709778412    0.0120526150
 H    0.5073959861   -0.3341253882    0.8935928099
 H   -2.1660039877   -0.1699174607    0.5471165088
 H   -2.6575199727   -0.6091990503   -2.0400175688
 H   -0.2499061112   -0.9823915628   -3.2617162522
 H   -0.4818482555    0.6756290949   -2.6536234202
 H    1.6148874927   -0.0664245090   -1.5331698011
 H    1.8441350445   -2.5342218738   -1.2007485949
 H   -0.2541941816   -3.8127207663   -0.6048101160
 H   -2.3962955611   -2.5041586220   -0.3955790135