18

 C    0.0221443065    1.4941104026    0.0268557271
 C   -0.0476358452    0.0018228832    0.0853638866
 N    0.6029844071   -0.9114670473   -0.9776128285
 C    0.0026219703   -1.9280339561    0.0191231827
 C    0.1497903778   -3.4071542195   -0.1413739223
 C    0.6064740926   -0.9832702578    1.1169510570
 O    1.9904030246   -0.9516159784    1.2447209950
 C   -1.2195736875   -0.9928224194    0.0097781006
 O   -2.4002945785   -1.0172667305   -0.1738813723
 H    1.0604232218    1.8339558328    0.0916574632
 H   -0.4138234275    1.8784461573   -0.9006182283
 H   -0.5332779148    1.9276070149    0.8642154724
 H    0.0772691577   -0.8950122726   -1.8558796840
 H    1.2044468373   -3.6961998481   -0.0981332588
 H   -0.3808672205   -3.9252984501    0.6633083604
 H   -0.2672372761   -3.7491795580   -1.0937899608
 H    0.1648577083   -1.0289659901    2.1131880307
 H    2.3319652361   -0.9116293530    0.3388707592