19

 C    0.2434367248    1.3329721588    0.1103685099
 O    0.2116348153   -0.0969124115   -0.0156118751
 C    0.6171857411   -0.5835843851   -1.1970156525
 O    0.9641008195    0.1032775454   -2.1272056556
 C    0.5895720163   -2.1142828745   -1.2126497035
 N    0.9562729246   -2.6043538474   -2.5371743316
 C    1.5297354234   -2.6573341992   -0.1255812500
 C    2.0484957733   -4.0379715463   -0.2260281800
 N    2.9423715933   -2.8834737256   -0.4448603536
 H    1.2609360249    1.7058992945   -0.0277675393
 H   -0.4081793116    1.7975187918   -0.6335647864
 H   -0.1103868230    1.5485800691    1.1181546507
 H   -0.4321576451   -2.4087256407   -0.9379807546
 H    0.1869274795   -3.0982119481   -2.9703195598
 H    1.1764100942   -1.8038498743   -3.1239687286
 H    1.3528161811   -2.2299460489    0.8572865064
 H    2.2426998274   -4.6113362213    0.6758887763
 H    1.7585107749   -4.6167484244   -1.0981661947
 H    3.0442191862   -2.7783765122   -1.4552743378