14

 N   -0.0442802669   -1.1718556388   -0.0061371210
 C   -0.0132751743   -0.0175226852    0.0010803888
 C    0.0137173419    1.4557522890    0.0104317641
 N    1.3469155076    2.0102188916    0.0005125967
 C    2.1155707712    2.2552003945    1.1173716976
 C    3.3469636887    2.6915994414    0.6965635820
 C    3.3316532864    2.7028963335   -0.7274990721
 C    2.0914268532    2.2730084132   -1.1285924522
 H   -0.5376736115    1.8207390529   -0.8618416534
 H   -0.5200097609    1.8092421093    0.8983067967
 H    1.7128006738    2.0964930597    2.1052076911
 H    4.1647394009    2.9827924144    1.3373321145
 H    4.1354982306    3.0043755615   -1.3810110615
 H    1.6674710494    2.1299130730   -2.1099277414