21

 C    0.7201449872    1.4095067380   -0.0888384064
 C   -0.0334536454    0.0802751529    0.0035660776
 C    0.1518407926   -0.8480332653   -1.2188540321
 C    1.1774968516   -1.9055375695   -0.7721165577
 O    0.8306033790   -3.2238132571   -1.1403130437
 C    2.6916597347   -1.5457179261   -0.9112728891
 C    2.7749216677   -1.3105561077    0.6251475316
 C    1.2723946598   -1.7055097867    0.7653491010
 O    0.3735544397   -0.6874553765    1.1463519286
 H    1.7769102054    1.2709871797   -0.3370793881
 H    0.2729049677    2.0427512697   -0.8630089202
 H    0.6601773787    1.9398374668    0.8656447438
 H   -1.0951639933    0.3031707290    0.1587582688
 H   -0.7816866122   -1.3728908151   -1.4391683354
 H    0.4582793027   -0.2961315718   -2.1125111091
 H    0.8933811787   -3.2929386670   -2.0991584478
 H    3.2792655947   -2.3987022876   -1.2576415770
 H    2.9160948250   -0.6823684645   -1.5433820699
 H    3.4634115872   -1.9780076227    1.1477109970
 H    2.9802054923   -0.2856634411    0.9373248786
 H    1.0777072063   -2.5913940874    1.3741107597