19

 C   -0.0142379269    1.3447077894   -0.0669609945
 O   -0.1027785264   -0.0543489729   -0.2001449915
 C   -1.3705443312   -0.5596922047    0.1542821775
 C   -1.3284692610   -2.0792164319    0.0033961667
 C   -0.3025408674   -2.7275396045    0.9612484546
 C   -2.6955085367   -2.6774778539    0.2387025983
 O   -3.6102137664   -2.1217010506    0.8053312365
 C   -2.9538763549   -4.1015694761   -0.2822246863
 O   -2.1659529307   -4.7336652919   -0.9345472702
 H    0.9959892437    1.6378142712   -0.3622527327
 H   -0.7391500684    1.8624954807   -0.7145475014
 H   -0.1909076683    1.6677704026    0.9709792505
 H   -1.6273254424   -0.2885625762    1.1906831952
 H   -2.1547914717   -0.1323959157   -0.4915260394
 H   -1.0278818526   -2.3312102288   -1.0207055498
 H   -0.2155989148   -3.8009111458    0.7802837708
 H    0.6712700391   -2.2621488165    0.7992834630
 H   -0.5914760716   -2.5679184091    2.0055966939
 H   -3.9637380813   -4.4743585253   -0.0078081812