18

 C    0.0553563090    1.5886524312    0.0442763034
 C   -0.0094381869    0.0525341446   -0.0421558287
 C    0.7337227712   -0.5408646459   -1.2541192721
 O    0.6186664950    0.3116543272   -2.3773408349
 C    2.1814397195   -0.7549230519   -0.7583300461
 C    2.0066596270   -1.2376375118    0.6878493517
 C    0.7141567697   -0.5623984201    1.1661870097
 O    0.3348842023   -0.5041425426    2.3071960908
 H    1.0866792516    1.9550257286    0.0462892367
 H   -0.4549762236    2.0372155201   -0.8097065079
 H   -0.4238543412    1.9185824724    0.9694268412
 H   -1.0604773994   -0.2502895052   -0.0189669484
 H    0.2945851933   -1.5268682649   -1.4804351837
 H    1.0966620125   -0.0909374246   -3.1092403920
 H    2.7400602161   -1.4535462436   -1.3883489608
 H    2.7046184995    0.2071890931   -0.7851253127
 H    1.8457574229   -2.3228769050    0.7344852205
 H    2.8388398716   -1.0125406116    1.3587234933