18

 O   -0.0306646989   -0.0169465784    0.2123772441
 C   -0.0041645606    1.1766471936    0.0760729398
 C   -1.2619224760    2.1071261531    0.0213598323
 C   -0.7990495414    3.5891079833   -0.1936076680
 C    0.6136322863    3.3914848394   -0.7647003233
 N    2.0034833726    3.8863557976   -0.2163973672
 C    1.6264705958    3.0930224287    1.0442747714
 C    1.1482102772    2.1379794163   -0.0908127344
 C    2.5073434591    2.5161136802   -0.7404061395
 H   -1.8692876000    1.7552512013   -0.8202290761
 H   -1.8684243606    1.9605868031    0.9194051801
 H   -1.4540519452    4.1214022843   -0.8865893383
 H   -0.8164778541    4.1445453976    0.7456805709
 H    0.6168476131    3.4006826272   -1.8591121999
 H    2.4890110428    2.7650053455    1.6290440458
 H    0.8923517356    3.5815291147    1.6838959883
 H    2.5763101622    2.4599849458   -1.8292124931
 H    3.4285255217    2.1883888469   -0.2549647131