18

 C   -0.0439244677    1.6171884960   -0.2482884064
 C    0.0151754538    0.1242143008   -0.0799839203
 C    0.7129637192   -0.8729240784   -0.9078818665
 C    1.7446802266   -1.5245113142   -0.0031852825
 C    1.5685265774   -1.1765722357    1.2843859671
 C    0.2018779006   -0.5525946646    1.2891866555
 C   -0.8686059042   -1.3231869836    1.5419947877
 C   -1.6398459939   -1.5067519165    0.2388031268
 N   -0.8557967507   -0.7899861841   -0.7948722779
 H    0.8899255789    2.0850710063    0.0814005384
 H   -0.2090647508    1.8694499602   -1.2993526761
 H   -0.8616796961    2.0462782633    0.3414504699
 H    0.9806497141   -0.6835876026   -1.9416846487
 H    2.5540168772   -2.1313824695   -0.3918341736
 H    2.1468258629   -1.5036957567    2.1384529659
 H   -0.9142582573   -2.0668001337    2.3313774945
 H   -1.6950811558   -2.5830655594    0.0266121446
 H   -2.6710564544   -1.1255222376    0.2029750516