23

 C    0.2105265053    1.4721220781    0.1867235161
 C   -0.2381114756    0.0537872224   -0.1853872070
 C    0.5886151496   -0.5473862741   -1.3051358930
 C    1.9230259554   -1.2532533106   -1.0793511941
 C    2.5339220046   -1.4411992701    0.2930977112
 C    0.6984326913   -2.0342430696   -1.5075032817
 O    0.0573796772   -2.8398339885   -0.5438754572
 C    0.5926735797   -2.6192553093   -2.8996071103
 O    1.0539323909   -3.9646143809   -2.9433596971
 H    1.2451842591    1.4807089920    0.5445937351
 H    0.1555847829    2.1446595086   -0.6766594038
 H   -0.4216899942    1.8918173691    0.9756927567
 H   -0.2079001907   -0.5954052622    0.6931739579
 H   -1.2895600594    0.0761364445   -0.5000713786
 H    0.5386387266    0.0289429200   -2.2286041601
 H    2.6592592738   -1.0965725961   -1.8648017142
 H    1.7807004596   -1.6785856438    1.0475054512
 H    3.2623907249   -2.2604832390    0.2819708300
 H    3.0640594732   -0.5401098582    0.6190870304
 H    0.6743085664   -3.5426783302   -0.3115027388
 H   -0.4493042971   -2.5539420541   -3.2493282168
 H    1.2158988388   -2.0499929085   -3.5966354856
 H    0.3858857078   -4.4935556295   -2.4955203903