25

 C    0.1411571747    1.5289768544   -0.1014892589
 C   -0.0057862488    0.0050904325   -0.1556261599
 C   -1.4481015577   -0.5154691259    0.0285505681
 C   -2.3887562526   -0.0327955991   -1.0842816409
 C   -1.4337190237   -2.0214272230    0.1808963382
 C   -1.4278989099   -3.0036710384   -0.9611776792
 C   -2.5391957979   -3.0794148200    0.0537909285
 C   -2.0436592953   -3.7930745491    1.3140946981
 C   -0.9001001093   -2.7342207546    1.4386907005
 H    1.1939784010    1.8221069959   -0.1645688073
 H   -0.3844598740    2.0218618723   -0.9251195823
 H   -0.2588407330    1.9324598392    0.8359625403
 H    0.3831880083   -0.3717311643   -1.1110255282
 H    0.6259497627   -0.4392049306    0.6236869397
 H   -1.8253539255   -0.1037203850    0.9782525439
 H   -2.0083175269   -0.2996266258   -2.0766001403
 H   -3.3864762740   -0.4696705070   -0.9754779146
 H   -2.5029158232    1.0542811292   -1.0595185990
 H   -1.7158622592   -2.6062918868   -1.9286740432
 H   -0.6769136220   -3.7905641884   -1.0126959058
 H   -3.5764569751   -2.9592272497   -0.2384013803
 H   -2.7473869610   -3.7397500590    2.1480113316
 H   -1.7386498743   -4.8371933408    1.1841831240
 H    0.1280773364   -3.1078463576    1.3839026212
 H   -0.9980865397   -2.1242374782    2.3410654057