14

 O   -0.2201337239    0.3688857373    0.7986625829
 C    0.1089522131    1.0696817532   -0.1265198890
 C    1.3562464748    1.9121793176   -0.0933386945
 C    1.5185053157    2.7238756325    1.1801787023
 N    2.3405147569    1.5555471996    0.9591516235
 C    1.8422717884    2.3951590487   -1.3501818058
 C    2.1951446045    2.7919714703   -2.4383171730
 C    2.6034075249    3.2437817584   -3.6537732918
 C    2.9632399452    3.6443490329   -4.7346212577
 H   -0.4827687761    1.1361979811   -1.0598227139
 H    2.0267961797    3.6794134749    1.0975812223
 H    0.6984828141    2.6713952510    1.8913207811
 H    1.9335718017    0.7659613963    1.4649051600
 H    3.2830607910    3.9968867261   -5.6838692463