19

 C   -0.5528113725    1.4290253911    0.0762961480
 C    0.0457941966    0.0449389094    0.0558505663
 C    0.0441899696   -0.6553601357   -1.0933897873
 C    0.5342819126   -2.0047525843   -1.4430589931
 O    0.5716092108   -2.3381797501   -2.6143012143
 C    0.9944178942   -3.0439322130   -0.4141696010
 O    0.7894062516   -2.7693948998    0.9473483497
 C    1.4765814296   -1.6271304470    1.4166016798
 C    0.5852706472   -0.3919849202    1.3937969705
 H    0.2092931404    2.1781341011    0.3260501650
 H   -0.9999202520    1.6974857627   -0.8826427720
 H   -1.3247877959    1.5039562724    0.8525476691
 H   -0.3663842929   -0.1720644350   -1.9773955588
 H    0.4495110186   -3.9658640298   -0.6368243703
 H    2.0585943089   -3.2417414703   -0.6263834455
 H    1.7799403708   -1.8331837680    2.4493239590
 H    2.3917993646   -1.4555112111    0.8298123525
 H    1.1335219248    0.4486457506    1.8424825060
 H   -0.2716551471   -0.5673036430    2.0606263862