19

 C    0.1782032229    1.4140539335    0.0787644660
 N    0.2165333492   -0.0376341629    0.0593670164
 C    0.4747603435   -0.6323538868   -1.0136185769
 O    0.7595461430   -0.0280767571   -2.2214007426
 C    0.7397562845   -0.9965755870   -3.2828396183
 C    1.8629972124   -0.7107923747   -4.2663970394
 C    0.7913521156   -2.3270704463   -2.5463774372
 C    1.8590197329   -2.5238952112   -1.5428875707
 N    0.5096821814   -2.0565805107   -1.1254477152
 H    1.0874633249    1.7998491782    0.5566014626
 H    0.0918364876    1.8738792591   -0.9128836789
 H   -0.6658864845    1.7367783400    0.6966947159
 H   -0.2281575097   -0.9168720627   -3.7971458579
 H    2.8393222009   -0.7855696185   -3.7805462564
 H    1.8285823807   -1.4291147827   -5.0915038880
 H    1.7580630549    0.2942059794   -4.6835489493
 H    0.2827872789   -3.1774632394   -2.9883930499
 H    2.1035655836   -3.5242593248   -1.2023839240
 H    2.6730186674   -1.8061632455   -1.4962052861