16

 C    0.0401794577    1.5154049332   -0.1005384248
 N    0.0082614708    0.0586464866    0.0488475026
 C   -1.1554617175   -0.5639022317    0.8029732725
 C   -0.2297383646   -1.8050835851    1.0280068669
 C    0.0722483576   -2.6739775530   -0.1661310500
 O    0.0595956258   -3.8788615282   -0.0991541799
 C    0.6841731917   -0.5569809695    1.2632005053
 C   -0.5001716484    0.0367196520    2.0815994388
 O   -0.7335613635    0.7471157829    3.0037433295
 H    1.0373645943    1.8033361594   -0.4454247546
 H   -0.6785762153    1.7968454182   -0.8753998220
 H   -0.1913772763    2.0795827999    0.8150858144
 H   -2.1756771579   -0.5393448745    0.4236662641
 H   -0.4462185801   -2.4199905975    1.9024208993
 H    0.3057793545   -2.1414413542   -1.1053207357
 H    1.7626104212   -0.5245784086    1.4089520737