18

 O   -0.3809322691    1.5520386565    0.2264076565
 C    0.0870280471    0.2200867151    0.1982681176
 C   -1.0307454378   -0.7466279296   -0.1959775710
 N   -1.6015266218   -0.2822699752   -1.4542769538
 C   -2.2662098379   -1.0795343004   -2.1749245769
 O   -2.5142064489   -2.3973386307   -1.8631919864
 C   -3.2844292986   -2.9968801468   -2.9083232340
 C   -3.4967023985   -1.8980004238   -3.9086189409
 C   -2.9000713693   -0.7913119887   -3.4656513373
 H   -0.8957467320    1.6462878297   -0.5867988953
 H    0.9273256001    0.1049056863   -0.5070866453
 H    0.4589580978   -0.0194140107    1.2004883429
 H   -0.6540206407   -1.7764961202   -0.2586799644
 H   -1.8087113845   -0.7284095224    0.5803513958
 H   -2.7302143072   -3.8505022503   -3.3213558369
 H   -4.2233863362   -3.3799990993   -2.4867793189
 H   -4.0501353880   -2.0319313616   -4.8281081070
 H   -2.8500839845    0.1826813220   -3.9285050747