17

 C   -0.6345716170    1.3656755419   -0.6467758450
 O   -0.6282634921   -0.0451036255   -0.6713960485
 C   -0.7964570388   -0.6049491026    0.6079817370
 C   -0.7193167234   -2.0927980445    0.5000159919
 N   -1.5810676526   -2.9653306519    0.9241753779
 C   -0.9742053118   -4.1600486389    0.5883635073
 C   -1.5791736430   -5.4913977818    0.8686988433
 N    0.1827749944   -4.0246899798   -0.0057968850
 O    0.3627520630   -2.6363678842   -0.0642832222
 H   -0.4961036399    1.7043717968   -1.6753503282
 H   -1.5873500768    1.7624579871   -0.2637740208
 H    0.1818252713    1.7641688504   -0.0246748340
 H   -0.0121016139   -0.2489870381    1.2983954286
 H   -1.7714839063   -0.3516951611    1.0480539841
 H   -2.5511148767   -5.5772134801    0.3738246279
 H   -0.9235109828   -6.2877925251    0.5140482048
 H   -1.7463408035   -5.6130094626    1.9430712607