15

 O   -0.0679745326    1.3514428878    0.0054038691
 C   -0.0218337980   -0.0289726145    0.0872872334
 C   -0.5980764279   -0.7620248388    1.2688619404
 C   -1.3069812349   -0.8240811734   -0.0828476462
 O   -2.4229639830    0.0465332734   -0.2404166834
 C   -3.6042447362   -0.3555354437    0.3028675822
 O   -4.5839181325    0.3182427883    0.2400774430
 C   -1.3525768068   -2.0303604297   -0.8521687343
 C   -1.3855085362   -3.0485682083   -1.4912661949
 H   -0.9878748968    1.6107207392   -0.1366577361
 H    0.8646319757   -0.4429395510   -0.3817527287
 H   -0.1145400329   -1.6660969486    1.6202003392
 H   -1.0828373464   -0.1585810210    2.0288722106
 H   -3.5357549506   -1.3461795955    0.7834518323
 H   -1.4155419108   -3.9432371343   -2.0633565467