22

 C    0.5272335976    0.8042702487   -0.6068021642
 C   -0.3142263642    0.3800524604    0.6058600079
 C   -1.6038069018   -0.3043156363    0.2231808493
 N   -2.7225306234    0.1996738520    0.5255930671
 C   -3.9975258613   -0.4806839285    0.3554677385
 C   -4.3452352796   -1.0138267287   -1.0401101357
 C   -3.4848079295   -2.2033746655   -1.4625506229
 C   -2.0129901434   -1.8450642829   -1.6134089540
 O   -1.3414548390   -1.5071154092   -0.3959082546
 H    1.4632413313    1.2686290502   -0.2827715630
 H    0.7757643466   -0.0592411043   -1.2299371051
 H   -0.0112985581    1.5304239696   -1.2243436332
 H    0.2667119784   -0.3221810359    1.2174197781
 H   -0.5652596477    1.2401197011    1.2291043525
 H   -4.0427135778   -1.3174088418    1.0702709664
 H   -4.7755891689    0.2264588237    0.6619114546
 H   -5.4020692288   -1.3064115901   -1.0377684538
 H   -4.2452128207   -0.2015981408   -1.7720991742
 H   -3.5820186132   -3.0181241927   -0.7336371080
 H   -3.8291844093   -2.5964776420   -2.4275499456
 H   -1.4507884631   -2.6981057893   -2.0040045636
 H   -1.9019897137   -1.0133988578   -2.3235206066