25

 C    0.1117818419    1.5243846719   -0.1479277938
 C    0.0075223844    0.0005292272    0.0276512332
 C    0.6593675324   -0.3928916449    1.3637149852
 C   -1.4543954929   -0.5081890890   -0.0832080552
 C   -2.1915937407    0.0475221509   -1.3132245445
 C   -1.5254966710   -2.0438222656   -0.1047286874
 C   -2.9035629126   -2.6233568811    0.1994630860
 C   -3.0874228682   -4.0990399710   -0.1139673095
 O   -3.7966715133   -1.9607469155    0.6769507973
 H    1.1443686264    1.8565681577    0.0011889672
 H   -0.1973600470    1.8519271000   -1.1431733534
 H   -0.5119700972    2.0474340165    0.5872853091
 H    0.5857870017   -0.4675337025   -0.7841154362
 H    0.1070430017    0.0398937249    2.2063508715
 H    0.7039676389   -1.4746737373    1.5171283134
 H    1.6868611137   -0.0185717062    1.4154744962
 H   -1.9981716654   -0.1729574651    0.8094849587
 H   -3.1917232981   -0.3868913817   -1.3860729029
 H   -2.3133325693    1.1317564421   -1.2629625353
 H   -1.6481101546   -0.1868031805   -2.2375248199
 H   -1.1804424888   -2.4379394061   -1.0711655166
 H   -0.8523014083   -2.4907787196    0.6389708222
 H   -2.2580738889   -4.6937551368    0.2835393815
 H   -4.0338728390   -4.4524975668    0.2970004770
 H   -3.0894691357   -4.2449350714   -1.2007979136