19

 C   -0.1409647496    1.4874330396    0.2259139647
 C    1.2350420771    0.8713943301    0.0180559817
 C    2.1996555163    0.7516164231    1.1841808788
 C    1.5712739948    0.1866625246    2.4501610780
 O    0.7474697738    1.1329237693    3.1816124473
 C   -0.3456345129    0.1896057671    3.2639297649
 C    0.3705694435   -0.7874334654    2.3059418787
 O   -0.1956814947   -0.9704948018    1.0308049502
 C    0.0149351209   -0.0010066627    0.0353580490
 H   -0.3469958517    1.8876813527    1.2096958339
 H   -0.5837954320    2.0451431307   -0.5928231510
 H    1.7131641938    1.0349737186   -0.9432037341
 H    3.0216124395    0.0836346175    0.8957978740
 H    2.6529216013    1.7204516500    1.4289538584
 H    2.3535890199   -0.2125672207    3.1090565543
 H   -0.4794400342   -0.1887022065    4.2852555419
 H   -1.2903505757    0.6041685371    2.8977388948
 H    0.5308595117   -1.7924181355    2.7017063146
 H   -0.3357223716   -0.4171236577   -0.9026277801