15

 O   -0.6642912043    0.8507282364    0.8142494962
 C    0.0309017046    1.0345103933   -0.1505638722
 C    1.3170036846    1.8300298484   -0.1560552589
 C    1.2838229686    2.9614697605   -1.1960936031
 C    2.6328836517    3.7024169801   -1.2928368524
 C    2.6146287530    4.7793496631   -2.2745953555
 C    2.5710225530    5.6606765509   -3.0905538880
 H   -0.2475541386    0.6125836401   -1.1456346675
 H    1.4959615795    2.2115047344    0.8536625396
 H    2.1319465558    1.1345634661   -0.4072401817
 H    1.0283764051    2.5568227488   -2.1822979210
 H    0.4977672249    3.6797871294   -0.9401461521
 H    2.8979726928    4.1079245770   -0.3078149850
 H    3.4240234870    2.9850311565   -1.5480816261
 H    2.5449448222    6.4428832650   -3.8080784723