15

 O   -0.0782801777    1.3436889104   -0.0750072235
 C   -0.0928352067   -0.0053846027    0.0243716413
 C    1.1640161604   -0.9467496964   -0.4996685874
 C   -0.2526025133   -1.0236000536   -1.0202211436
 N   -0.4902057158   -2.0566842392    0.0573908038
 C    0.9942840622   -2.3039168114    0.2398847978
 C    1.0363458710   -2.4135007502    1.7948539522
 N    0.2084804162   -1.2314762598    2.1829961104
 C   -0.4374736043   -1.0013327775    1.1091710535
 H    0.4354610810    1.7006586882    0.6607562120
 H    2.0276124003   -0.4715416841   -0.9549782019
 H   -0.6933039741   -1.0456710772   -2.0067607960
 H    1.4040787836   -3.1645410581   -0.2978027677
 H    0.6213621471   -3.3884761251    2.0879360974
 H    2.0221718901   -2.3072095433    2.2575500518