23

 C   -0.5599198379    1.4082413243   -0.1108063529
 C   -0.0997237544   -0.0439769947   -0.0353134759
 C    1.0631607640   -0.4344572336   -1.0004747220
 C    2.0439752332   -0.5439572028    0.2032316331
 C    3.0386718560    0.6116849207    0.3555048505
 C    3.4058127116    0.8538122799    1.8287701584
 C    2.1665110186    1.0122515825    2.6768225190
 C    0.9962761674    0.4565643112    2.3572499514
 C    0.8284959057   -0.4421167744    1.1742260288
 H    0.2722804351    2.1086436141    0.0092613889
 H   -1.0301881718    1.6101406823   -1.0798747934
 H   -1.2938523289    1.6360412215    0.6699885317
 H   -0.9747067115   -0.6950355040   -0.1257590324
 H    0.8951744039   -1.3862211024   -1.5112952177
 H    1.3231517471    0.3154757127   -1.7545140701
 H    2.5807242462   -1.4954230431    0.2708796596
 H    3.9370365479    0.4190932522   -0.2425676219
 H    2.5958296890    1.5340513520   -0.0390186613
 H    4.0205232637    0.0239832089    2.2087653422
 H    4.0338569676    1.7483073305    1.9163667410
 H    2.2511433134    1.6141926320    3.5785233234
 H    0.1273620192    0.6176779893    2.9928890886
 H    0.5363666848   -1.4385887791    1.5283313710