17

 C    0.0397115689    1.5970104682    0.0119498200
 C    0.0887574334    0.0778675798    0.0056130816
 C    0.7982022828   -0.6767909141   -1.1260472160
 C    2.2538600033   -0.8104997622   -0.7107027508
 N    2.4092522547   -0.0681538822    0.5540667040
 C    1.0851883967   -0.6607933059    0.9454663469
 C    1.2285618491   -1.7945644375   -0.1685353699
 C    1.0801514676   -3.1964057095   -0.2118456731
 N    0.9666757542   -4.3502552892   -0.2239711144
 H    1.0442672725    2.0169486095   -0.0664877038
 H   -0.5632312454    1.9672700298   -0.8240128842
 H   -0.4161664008    1.9659554834    0.9373737360
 H   -0.9072611858   -0.3551432033    0.1421313851
 H    0.4874692719   -0.8052405757   -2.1549670218
 H    3.0597757650   -0.9809051250   -1.4120352002
 H    3.1295905905   -0.5442698750    1.0952866031
 H    0.8932783913   -0.8047071009    2.0058754474