23

 C   -0.6179522329    1.3988910612   -0.3231179691
 C   -0.1579670113   -0.0260453658   -0.1142331057
 C    1.2616148153   -0.5002853968   -0.3906744018
 C    2.4180737045    0.4463090647   -0.6791661787
 C    3.4086124570    0.3630307639    0.4955962539
 C    2.7008891373    0.6918867221    1.8317095907
 O    1.2741746741    0.6666946491    1.7424295096
 C    0.7444936923   -0.4222539070    1.0302149900
 C    0.4706006164   -1.6463844547    1.8714726289
 H    0.0802871466    2.1108073077    0.1199083019
 H   -0.7273383830    1.6308450669   -1.3884517602
 H   -1.5911389108    1.5592207742    0.1533147997
 H   -0.9131827972   -0.7714765619   -0.3533534860
 H    1.3582998893   -1.4925528785   -0.8237798947
 H    2.9174499795    0.1700328569   -1.6125954298
 H    2.0698718579    1.4758804183   -0.8057551261
 H    3.8207044466   -0.6520427633    0.5277945355
 H    4.2561736648    1.0412444471    0.3524053766
 H    3.0434702612    0.0130948571    2.6265094683
 H    2.9337905182    1.7115882444    2.1531262351
 H   -0.2279192575   -1.4107719788    2.6815447214
 H    0.0352305813   -2.4459909662    1.2645644107
 H    1.3913118703   -2.0341504007    2.3233718500