17

 O   -0.0192539023    1.3317818251    0.3588112157
 C   -0.0639207810    0.0109838351   -0.1756019310
 C   -1.4621301784   -0.4845123308   -0.1370143999
 C   -2.7635306391   -0.0719461257   -0.8895969684
 C   -3.5970653926   -0.4908164240    0.3099370771
 C   -3.2891371209   -1.4989216561   -0.7888025013
 C   -1.9790943287   -1.9030044128   -0.0187538481
 O   -1.2240116637   -3.0458725566   -0.0040336542
 C   -2.3108596436   -0.9027364241    1.0811967583
 H    0.8715367229    1.6709521941    0.2273288379
 H    0.3066841907   -0.0023545770   -1.2137130941
 H    0.5695254003   -0.6806439828    0.4029709914
 H   -2.9546672497    0.6800037888   -1.6442111891
 H   -4.5564132025   -0.1242578821    0.6503816634
 H   -3.9617007351   -2.0345821686   -1.4458140151
 H   -1.6521977720   -3.6881076388    0.5743357058
 H   -2.0305140041   -0.8782931538    2.1257934517