16

 N    0.0441134618   -1.1042086924   -0.0593157659
 C    0.0317556615    0.0513945748   -0.0213345956
 C   -0.0312604869    1.4908356697    0.0077958372
 C   -0.6861643941    2.4200532845    1.0811860459
 C    0.0015563437    3.3355447049    0.0270371052
 N    1.2016628292    2.3875390501   -0.0273793740
 C   -0.6156325407    2.4441633435   -1.0610742252
 C   -0.6620028654    2.4058273535   -2.5189246331
 N   -1.9038475912    2.5082945712   -1.6844912049
 H   -1.7773113584    2.4333887932    1.1426275092
 H   -0.2141187712    2.3881892149    2.0665497616
 H    0.1246622523    4.4162309120    0.0367919855
 H    1.6347801969    2.3626238957    0.9021519003
 H   -0.4379844890    3.2920065225   -3.1046634573
 H   -0.4496292163    1.4614997149   -3.0127828461
 H   -2.3844978922    1.6118461270   -1.6506899329