20

 C   -0.6279876108    1.1830471529    0.0356086039
 C    0.1335726523   -0.1253314147   -0.1041027559
 C    1.5333375255   -0.1113410769   -0.7932851704
 C    2.0783645687   -1.0619724538    0.3126171895
 C    0.8238087410   -0.7382392169    1.1303120830
 C    0.7875722242   -0.2014088340    2.5213409360
 C    0.1995318246   -1.5789663511    2.2297531012
 C   -1.2238775595   -1.7570966882    2.2435803809
 N   -2.3738406795   -1.8907591258    2.2289237574
 H   -0.0080325770    1.9549379106    0.5048304308
 H   -0.9379018648    1.5545161744   -0.9469285296
 H   -1.5323054431    1.0552801417    0.6401134257
 H   -0.5106406877   -0.8786983390   -0.5717923859
 H    1.5816645276   -0.4702171833   -1.8231547938
 H    1.9947976411    0.8790162872   -0.7447164917
 H    2.1112917639   -2.1068506235   -0.0099934879
 H    3.0400447121   -0.8040173018    0.7636485500
 H    1.7050926140   -0.1832727114    3.1006777334
 H    0.0877221967    0.5939479939    2.7531859094
 H    0.7632705808   -2.4405840404    2.5736983938