23

 C   -0.0516684872    1.5271706089   -0.0830779406
 C    0.0669797831    0.0139992534    0.0177320307
 O    0.7043958101   -0.4464297787   -1.1682297893
 C    0.6879031766   -1.8577654859   -1.2955895790
 C    1.4401741223   -2.5325420713   -0.1483150594
 C    0.8838565045   -2.0365193600    1.1936190110
 C    0.8236893688   -0.4961023091    1.2710334083
 C    2.2202642814    0.1229633778    1.3987928567
 O    0.0049509245   -0.1041748697    2.3769377339
 H    0.9254947750    1.9855818854   -0.2576066530
 H   -0.7012099347    1.7936109846   -0.9210149251
 H   -0.4754080841    1.9312607569    0.8386800684
 H   -0.9470590454   -0.4178268378    0.0782305693
 H   -0.3548154038   -2.2197619419   -1.3227488605
 H    1.1465422362   -2.0831548504   -2.2630078847
 H    1.3426118131   -3.6215379387   -0.2270870273
 H    2.5077529808   -2.2992501366   -0.2308957744
 H   -0.1396233188   -2.4078647904    1.3280447047
 H    1.4774769163   -2.4271548864    2.0304039808
 H    2.7985687748   -0.0075676026    0.4807322711
 H    2.1453468969    1.1920838333    1.6103546902
 H    2.7744934382   -0.3475543401    2.2198512285
 H    0.4423191712   -0.3942056107    3.1845129099