15

 C    0.1383806508    1.3363323819    0.0509656037
 O    0.2398422664   -0.0669870731    0.0305473747
 C    0.4499306297   -0.5821480646   -1.2667287334
 C    0.4873075460   -2.0836532866   -1.1975566274
 C    1.3554839423   -2.8336452490   -2.1391170453
 N    1.6876194363   -2.7750361598   -0.7071722885
 H    1.0591422284    1.8197053374   -0.3139953838
 H   -0.7016597121    1.6956684685   -0.5649735804
 H   -0.0299316116    1.6372009972    1.0876934935
 H   -0.3569970528   -0.2533035570   -1.9454701120
 H    1.3996215507   -0.2010538315   -1.6855319558
 H   -0.4420495543   -2.5400385081   -0.8641090586
 H    1.0485095245   -3.8108083857   -2.5002356167
 H    1.9561304505   -2.2617743967   -2.8427752613
 H    2.4304359852   -2.0985200630   -0.5454891286