16

 N    0.1208196206    1.3385162245   -0.0078923841
 C   -0.1275033237    0.0304333416    0.3670373320
 O    0.2912637144   -0.4643902477    1.3972388170
 N   -0.8871404447   -0.6893067093   -0.5370024897
 C   -0.9679222582   -2.1170467992   -0.3612935296
 C   -2.0614505878   -2.6939803905    0.5642797921
 O   -2.6465301869   -3.4065177320   -0.5818765701
 C   -1.7574711423   -2.8204039470   -1.4476036348
 N   -1.6786117946   -2.8233020478   -2.6987599016
 H    0.4681493461    1.9093204948    0.7471040329
 H   -0.5418506563    1.7984238225   -0.6130052127
 H   -0.9312330404   -0.3779974250   -1.4968230370
 H    0.0133587422   -2.5609828939   -0.1670500793
 H   -1.7342893535   -3.3919418532    1.3355650729
 H   -2.7611808494   -1.9573064707    0.9623239138
 H   -2.4200766355   -3.3807626772   -3.1257549918