14

 C    0.0279541647    1.4899452114    0.0359278478
 C   -0.0051949290    0.0018812260   -0.0124018817
 N   -0.1430681906   -0.7328989676   -1.0868850965
 N   -0.1242142351   -2.0605233947   -0.6970235874
 C    0.0263125088   -2.0939742457    0.6028408910
 C    0.1018242014   -3.3183481139    1.4472204417
 N    0.1063528335   -0.8124319229    1.0861342546
 H    0.9702871077    1.8627509363    0.4528884147
 H   -0.0750250635    1.8700582935   -0.9813207397
 H   -0.7891788618    1.8957601968    0.6429965847
 H    1.0576311905   -3.3878919519    1.9787532455
 H   -0.6986422903   -3.3470401564    2.1950545070
 H    0.0019830573   -4.1902883785    0.7994261885
 H    0.2226357263   -0.5292644927    2.0448067998