16

 O    0.0524869838   -0.0016457619    0.1216603419
 C    0.0362092035    1.1971688013   -0.0100945667
 N   -1.0915035905    2.0070481165   -0.0745716876
 C   -0.8886106113    3.4615518905   -0.2570355041
 C    0.5446368659    3.4449612827   -0.8086002065
 C    1.9431273700    3.8187426841   -0.2214967470
 C    1.5980161073    3.1392032709    1.1078891446
 C    1.1328565268    2.2427187380   -0.0824689325
 O    2.4367924043    2.4843214676   -0.7297088715
 H   -1.9945147221    1.6048905402    0.1235825382
 H   -1.6165054317    3.8612419432   -0.9687701189
 H   -1.0016688059    4.0080201454    0.6863194299
 H    0.5701129794    3.3281396174   -1.8933397217
 H    2.5889627316    4.6706376362   -0.4366331254
 H    2.4478739904    2.7418294082    1.6608385161
 H    0.8446116585    3.5935062496    1.7534712613