16

 C   -0.1781043000    1.5151052749   -0.0123212668
 C   -0.5912788654    0.1456576466   -0.5230592741
 O   -0.8306519755   -0.0838270725   -1.6911336714
 N   -0.6462467390   -0.8301027683    0.4486487999
 C   -0.9506882865   -2.1637100242    0.2182379657
 C   -1.2688069386   -2.8999619176   -0.8810158833
 C   -1.4648275491   -4.2364569171   -0.3910275679
 C   -1.2528892150   -4.2035866625    0.9462418984
 O   -0.9338386752   -2.9270997503    1.3393322824
 H   -0.6894706895    2.2749217491   -0.6047412978
 H   -0.4020621602    1.6666645287    1.0471869494
 H    0.8994974724    1.6454547858   -0.1585572103
 H   -0.4395302260   -0.5908669202    1.4055148633
 H   -1.3488798372   -2.5283367871   -1.8859762452
 H   -1.7305563230   -5.1045530867   -0.9738193772
 H   -1.2798614722   -4.9349782584    1.7352060750