16

 C   -0.0695589193    1.5476272131    0.1115929078
 C    0.0181065519    0.0305455728   -0.0304643876
 C    0.7267769467   -0.4523901217   -1.2723980148
 N    1.2047499392    0.4104087376   -2.1194822638
 C    1.8565705512   -0.0515113358   -3.2616094777
 O    2.3403431004    0.6507148717   -4.1176483357
 N    1.9291687529   -1.4542344064   -3.3780289908
 N    1.4501555985   -2.3569473860   -2.5287856777
 C    0.8518177565   -1.8740537436   -1.4808420713
 H    0.9255453457    1.9977723578    0.1365862170
 H   -0.6026285012    1.9908656211   -0.7327197736
 H   -0.5953584695    1.8094910296    1.0338280271
 H    0.5290374868   -0.4130543748    0.8360786311
 H   -0.9847921844   -0.4198916304   -0.0250898719
 H    2.3963466499   -1.8217180153   -4.1963442376
 H    0.4531355149   -2.5928214697   -0.7742732404