16

 C    0.4365139093    1.5777373917    0.1103686902
 N    0.0298199039    0.1775856022    0.1183139822
 C   -0.2438141053   -0.4447757015    1.3105679763
 O   -0.2161272418    0.0876151107    2.3962997591
 C   -0.0528482572   -0.5788449426   -1.1281232023
 C   -1.3496286115   -0.2224893243   -1.8915854265
 O   -2.1741240968   -1.0387807435   -2.1944039336
 C    1.0929021113   -0.3745086219   -2.0109455473
 C    1.9869917888   -0.1864446419   -2.7916745814
 H    1.4074056787    1.6905319764   -0.3798277889
 H   -0.2941793162    2.2093237175   -0.4054752090
 H    0.5048194284    1.8943007669    1.1508312337
 H   -0.4970993807   -1.5127338571    1.1678628666
 H   -0.1421645461   -1.6408942478   -0.8745377837
 H   -1.4660636322    0.8561782003   -2.1254778716
 H    2.7925869473   -0.0381491850   -3.4688295837