18

 O    0.0496787910    1.4294252755    0.0748180750
 C    0.0285119258    0.0136771768   -0.0268092543
 C    0.7665300229   -0.6144257285    1.1657148008
 N    0.1441045180   -0.0455686605    2.3639075157
 C   -1.2423295182   -0.4238105011    2.5653715486
 C   -2.2998736918    0.5823998369    2.2258264476
 C   -2.0811528528   -0.6233467489    1.3130340443
 C   -1.4149929381   -0.5230209353   -0.0231508145
 O   -1.9436400621   -0.9350294709   -1.0307525323
 H    0.1564173100    1.6079081559    1.0223806956
 H    0.4782013768   -0.2712539101   -0.9821769092
 H    0.7125210270   -1.7140215601    1.1089638225
 H    1.8209138210   -0.3204448163    1.1474966741
 H    0.6929628269   -0.2083531561    3.1962767041
 H   -1.4358702354   -1.1104689741    3.3863234646
 H   -3.2253549695    0.5896687878    2.7904801453
 H   -1.9705386375    1.5487514982    1.8656221231
 H   -2.8610143742   -1.3761279492    1.3326514287