13

 O   -0.0406178376    1.2712815099   -0.4014843208
 C    0.0422200001   -0.0287389579   -0.0705315227
 N    1.2137497035   -0.5632101546    0.0064884855
 C    1.4499445518   -1.8847685180    0.3296938367
 O    2.3471121510   -2.2521401542    1.0538651065
 C    0.5936270902   -2.9000147400   -0.3779215385
 N   -0.6846763633   -2.9433303216   -0.3725227569
 C   -1.4956209885   -1.9543990998    0.1370847084
 C   -1.2450053614   -0.6260230580    0.2111243954
 H    0.8688830596    1.5885973724   -0.5064763092
 H    1.1318714045   -3.7057572357   -0.8802923499
 H   -2.4923761647   -2.3059817188    0.3908437316
 H   -2.0579018152    0.0564475064    0.4333691540