19

 O   -0.7099414797    1.1408998390    0.9630412582
 C   -0.0152741503    0.1880553763    0.1569178057
 C    0.8954115509   -0.7477362348    0.9903169857
 C    0.0294492474   -1.9345089555    1.3777592236
 C   -1.3426454913   -1.6651307460    1.9278872056
 C   -1.1815373799   -1.9562802486    0.4416621086
 C   -1.0677877690   -0.7381671166   -0.4808174178
 C   -1.7054093161   -3.1737273928   -0.0998212562
 C   -2.1512992720   -4.1850814485   -0.5766725488
 H   -0.0524253518    1.6705354498    1.4255282397
 H    0.5624298798    0.7163610134   -0.6136438192
 H    1.7362597004   -1.0903385652    0.3756299520
 H    1.3202907021   -0.2189646890    1.8526116231
 H    0.5143508995   -2.8662567491    1.6450615848
 H   -1.7976575267   -2.4518401483    2.5184583326
 H   -1.6054040955   -0.6532114891    2.2112833128
 H   -2.0134752888   -0.2055576746   -0.6122286626
 H   -0.7284281576   -1.0701627214   -1.4668007356
 H   -2.5460291415   -5.0794664789   -0.9899699922