17

 C   -0.0748027254    1.5161027562   -0.3172021687
 C   -0.0672922164    0.1614770438    0.4019078300
 C   -1.3967220336   -0.5394155914    0.2843874446
 O   -1.7126306185   -1.1445056069   -0.9654383871
 C   -1.5475333718   -2.0129555713    0.1684690762
 C   -0.4190615366   -2.8974958514    0.1731519449
 C    0.5051740421   -3.6759384477    0.2111192851
 C    1.6252928815   -4.5809316595    0.2160806730
 O    1.7755619620   -5.4785795089    1.0128507626
 H    0.8955844661    2.0113261557   -0.2238272129
 H   -0.2908940123    1.3864005547   -1.3817240946
 H   -0.8338678290    2.1856864935    0.1014693835
 H    0.7143881381   -0.4835717218   -0.0102545065
 H    0.1571275320    0.2994605677    1.4671065402
 H   -2.2416063666   -0.0199416410    0.7433885997
 H   -2.4756268746   -2.4554715617    0.5289657178
 H    2.3630635628   -4.3884801900   -0.5889553779