16

 C   -0.2623073152    1.5620019790    0.1941824062
 C    0.0434066734    0.0709247297    0.0661598629
 N    1.2499577768   -0.2490505355   -0.7706716540
 C    1.8407675067   -1.1175602476    0.2921863436
 C    0.7728142303   -0.6069254500    1.2281933150
 N    0.5090916955   -0.5948423105    2.4611286584
 O    1.4688664728   -1.2972392620    3.1952686698
 C   -1.1494651943   -0.6855341418   -0.3467011479
 N   -2.0670497994   -1.2875092374   -0.7116203766
 H    0.6500427361    2.0882189459    0.4812429585
 H   -0.6158839186    1.9601517740   -0.7608055880
 H   -1.0306815922    1.7290496133    0.9534716605
 H    1.0318420798   -0.7310923911   -1.6358837619
 H    1.7734483050   -2.1984061535    0.1124759415
 H    2.8744560460   -0.8665630188    0.5488438242
 H    1.1472409872   -1.2063218336    4.0993802177