18

 C   -0.0163515820    1.5126341721    0.0810563348
 C    0.1018766476    0.0058737653    0.0463463401
 C    1.4462443953   -0.6722271396   -0.0264532216
 C    0.6210076393   -0.7570342754    1.2492727674
 O    1.0236698529    0.0608570552    2.3300107704
 C    2.0543978343   -0.4025035176    3.0792775968
 N    2.4872167440    0.2978141570    4.0334676162
 C    0.0074743725   -2.0023812496    1.6243446779
 C   -0.4972405325   -3.0468903397    1.9418441936
 H    0.7867322767    1.9611831227    0.6687491505
 H    0.0294212779    1.9176804294   -0.9352017900
 H   -0.9676906109    1.8204325414    0.5259935247
 H   -0.7040097026   -0.5055217792   -0.4712183197
 H    1.5608679808   -1.5726015318   -0.6183121203
 H    2.3250264348   -0.0380163867    0.0301563178
 H    2.4168304145   -1.3870095676    2.7621500736
 H    3.2529156866   -0.1859381977    4.4982122328
 H   -0.9514064192   -3.9642922781    2.2249403250