20

 C   -0.0145102981    1.4757394064    0.0107251587
 C   -0.0027304796    0.0196054440    0.0022365975
 C    0.0162683797   -1.1840757882   -0.0049260559
 C    0.0085563217   -2.6426450370   -0.0133027568
 C   -1.4148849779   -3.2330053565   -0.0016142379
 C   -1.3961674324   -4.7536127145   -0.0107046319
 O   -2.7507095247   -5.2077089594    0.0011373950
 C   -2.9321402831   -6.5410806322   -0.0041622343
 N   -4.0993754770   -7.0216518271    0.0048185943
 H    1.0031205386    1.8817791743    0.0010066898
 H   -0.5380444628    1.8756366559   -0.8646955090
 H   -0.5171085143    1.8655006173    0.9028308436
 H    0.5486549842   -3.0080656818   -0.8977782173
 H    0.5672906202   -3.0182350866    0.8551952978
 H   -1.9536249819   -2.8856226097    0.8852753425
 H   -1.9723331421   -2.8753253508   -0.8727109536
 H   -0.8829386121   -5.1305159808   -0.9070915343
 H   -0.8639227120   -5.1408984532    0.8700354227
 H   -1.9930486510   -7.1130101131   -0.0165080535
 H   -4.0550797053   -8.0385312869   -0.0009684574