17

 C   -0.0432859540    1.5728336209    0.0135107288
 C    0.0402002054    0.0526713647   -0.0999613781
 N   -1.2987190029   -0.5403036700    0.0394836512
 C   -1.8806490760   -0.7266559680    1.4393452247
 C   -2.8059890104   -1.7885874723    0.7901119915
 C   -1.4107778588   -2.0529176598    0.1665650223
 C   -0.8255735220   -1.8564330216    1.5930915343
 O    0.0739930285   -2.2047181338    2.2906898681
 H    0.9366107205    2.0237598529   -0.1683018008
 H   -0.7543626694    1.9764084419   -0.7126786203
 H   -0.3688542964    1.8779563235    1.0134658400
 H    0.3978661558   -0.2276502415   -1.0977137187
 H    0.7690287722   -0.3412081050    0.6259188584
 H   -2.1428215035    0.1136334198    2.0790459472
 H   -3.2277634603   -2.5580557493    1.4377949756
 H   -3.5209763729   -1.3645583106    0.0841776344
 H   -1.1326209660   -2.7223524518   -0.6456563886