18

 C    0.3182700561    1.3249225190    0.0499565087
 N    0.0379863213   -0.0947136848    0.0260999034
 C    0.5024060989   -1.0196878950   -0.8492526847
 C   -0.1005197773   -2.2261158736   -0.5311187478
 C   -0.9326425272   -1.8984313202    0.5655945580
 N   -0.8495933581   -0.6135100251    0.8965766155
 C    0.0769751000   -3.5592709341   -1.1441992600
 C    1.0756590033   -3.8044315655   -2.2145292943
 N    1.2953632634   -4.3696240577   -0.8745592619
 H    1.2671608712    1.5135870251   -0.4558463597
 H   -0.4740932547    1.8927597737   -0.4487623073
 H    0.3877714527    1.6538513251    1.0879574705
 H    1.2037406323   -0.7518367329   -1.6238765980
 H   -1.5809642883   -2.5571721499    1.1257254368
 H   -0.8217414042   -4.1715529011   -1.1482795260
 H    0.8664657157   -4.5331147828   -2.9928428802
 H    1.6954977646   -2.9728855295   -2.5397106157
 H    1.9605343902   -3.7861512607   -0.3711115572