17

 C    0.0347809678    1.4952452791   -0.0063533028
 N    1.2758338451    0.6765413780    0.0450815158
 C   -0.0135423593    0.0272257589    0.0125827645
 C   -0.5837220209   -0.9810304139    1.0326134908
 C   -1.7709835832   -1.1315172286    0.0260466343
 C   -0.6184389700   -0.9566842404   -0.9954324941
 O    0.1783855376   -2.1381526906   -0.8026209433
 C    0.2634422489   -2.2029661661    0.6464508997
 H   -0.1661310576    2.0697632648    0.8941827548
 H   -0.2112627098    2.0090418279   -0.9331753030
 H    1.7224381410    0.6407701951   -0.8687065293
 H   -0.7147240605   -0.7551854167    2.0890998877
 H   -2.3019669678   -2.0852635785    0.0001769037
 H   -2.4610003865   -0.2872861724    0.0548168198
 H   -0.7497897672   -0.7623008639   -2.0590450172
 H    1.3080569980   -2.1099422545    0.9627812096
 H   -0.1454842956   -3.1559464683    0.9999418893