20

 C   -0.0620500944    1.5639394448    0.0205438788
 C   -0.0943160168    0.0358152101   -0.0531020036
 C    0.7848262098   -0.5176893787   -1.1909653986
 C    0.7633666371   -2.0138223097   -1.2790079957
 N    1.7686856083   -2.7124191953   -0.8051956463
 O    1.4418089607   -4.0485266580   -1.0159021467
 C    0.2443781123   -4.1042933447   -1.6176407515
 C   -0.2599965942   -2.8607486138   -1.8223538619
 C   -1.5508925935   -2.4663287050   -2.4675822246
 H    0.9572464603    1.9299606077    0.1853783898
 H   -0.4289125451    2.0149196451   -0.9083584602
 H   -0.6858082564    1.9343066645    0.8397185364
 H    0.2497570808   -0.3933286662    0.8949089540
 H   -1.1280978713   -0.3056781486   -0.1873488109
 H    0.4519422867   -0.0927973845   -2.1467345258
 H    1.8205739041   -0.1969654154   -1.0408534478
 H   -0.1228916648   -5.0936501008   -1.8457955827
 H   -2.2333887325   -1.9859757858   -1.7575361195
 H   -1.3896518279   -1.7580945186   -3.2880324761
 H   -2.0653162433   -3.3382757271   -2.8802048973