12

 N   -0.0233238315    1.3510417611    0.0086933228
 C    0.0622877346   -0.0087464641    0.0013585243
 O    1.1108956951   -0.6234957401   -0.0113699535
 C   -1.2282234571   -0.6831522697    0.0099996851
 C   -2.2594810252   -1.3246560616    0.0164165873
 C   -3.4130393873   -2.0240598118    0.0236915608
 C   -4.4578167858   -2.6514153491    0.0303209452
 C   -5.6154368892   -3.3496655399    0.0376165390
 C   -6.6517694997   -3.9733228527    0.0440132699
 H    0.8310801262    1.8839360484    0.0038626136
 H   -0.9083487337    1.8270702904    0.0198635207
 H   -7.5600128763   -4.5241078607    0.0496474947