18

 C    0.0358547527    1.5033953031   -0.0727195123
 C   -0.0718109920    0.0106374651    0.0172886675
 O    0.4554696349   -0.6847364458   -1.1474975743
 C   -0.4650748426   -1.7675713245   -0.8895740393
 C   -0.0485051072   -2.5551723563    0.4026647036
 C    1.2382974265   -1.9710445428    1.0050127016
 C    0.3613718550   -0.7517857694    1.3282559090
 N   -0.9051233088   -1.6225895077    1.2764780628
 C   -1.3412503488   -0.8839561453    0.0230886827
 H    1.0888890550    1.8064236627   -0.0913932045
 H   -0.4440072810    1.8743230189   -0.9827769314
 H   -0.4389329393    1.9744447634    0.7936782213
 H   -0.7540793848   -2.3048675223   -1.7932299046
 H   -0.2592713019   -3.6256852497    0.4313535431
 H    1.5310669229   -2.5036646117    1.9123108447
 H    2.0957525822   -1.8280725808    0.3453913882
 H    0.5356284821   -0.1469124433    2.2207173869
 H   -2.3752037649   -0.5740618036   -0.1292255950