16

 N    0.7433588697   -0.0565126904    0.5167147217
 C   -0.2538048021    0.2848796356   -0.3422518063
 O   -0.3793127207    1.4004958283   -0.8068269379
 C   -1.2499700377   -0.8349692640   -0.7025095973
 C   -0.9788409920   -2.2110833750   -0.1762385268
 C   -0.3604504076   -3.2646165250   -0.8264416337
 N   -0.3354914503   -4.3002603837    0.0459753214
 N   -0.8952225028   -4.0077982240    1.2335254069
 C   -1.2861401226   -2.7434453662    1.1021278657
 H    1.3992799645    0.6549081262    0.7926312338
 H    0.8227979788   -0.9840561301    0.8949322043
 H   -2.2272394117   -0.4777569672   -0.3596320525
 H   -1.3045917606   -0.8390557383   -1.7950883906
 H    0.0448632806   -3.3482386799   -1.8229112219
 H    0.0333075300   -5.2241426131   -0.1040992764
 H   -1.7849978156   -2.2495626831    1.9242534096