16

 C    0.7052443978    0.7189114184   -0.5608185525
 C   -0.1692185252    0.1183018973    0.5099092261
 O    0.1212612915    0.1539511145    1.6899007511
 C   -1.4377954325   -0.6122410262    0.0462167333
 N   -1.1517043296   -2.0308117610   -0.1607013869
 C   -1.0304578031   -2.7665136431    0.8833684840
 N   -1.0989950462   -2.4028734809    2.2029726146
 C   -0.8451196306   -4.1907617805    0.6592639015
 N   -0.6952201636   -5.3280591285    0.5194645728
 H    0.9353344376   -0.0445159832   -1.3125186308
 H    0.1611330016    1.5173698953   -1.0789249480
 H    1.6237640237    1.1166694158   -0.1287076208
 H   -2.2120031952   -0.4558812716    0.8114014437
 H   -1.7899196353   -0.2022478113   -0.9040755370
 H   -0.8263904706   -1.4504721101    2.4265068333
 H   -0.8815024202   -3.1041877750    2.8925013555