13

 N   -0.1272154128    1.3074149988    0.0103479815
 C   -0.0449990747    0.0503204452    0.0027734775
 O   -1.1736905442   -0.6937845223    0.0091284307
 C   -0.9962471686   -2.1040618728   -0.0004892094
 C   -2.4036718009   -2.7088092191    0.0101958351
 C   -2.3625456238   -4.1677398894    0.0015958526
 N   -2.3077309655   -5.3215127668   -0.0054443484
 H    0.8037858640    1.7187416610    0.0040643732
 H    0.8758442924   -0.5488158607   -0.0089235208
 H   -0.4515812660   -2.4239267142   -0.8974624702
 H   -0.4338123619   -2.4338384331    0.8818091994
 H   -2.9418430079   -2.3626804040    0.8985291724
 H   -2.9594572302   -2.3527956125   -0.8632609535