17

 C    0.0524574324    1.5094028579    0.0479864629
 C    0.0594632906    0.0120453820    0.0144715273
 C    0.0542086427   -0.8148618818   -1.0912145183
 O    0.0422808078   -0.5569679922   -2.4274093099
 N    0.0479611985   -2.1101355110   -0.6922126224
 C    0.0552357769   -2.1742706571    0.7044898059
 N    0.0509250692   -3.4289086331    1.3491756758
 C    0.0635449752   -0.8747428395    1.1427058348
 O    0.0592180333   -0.5206045065    2.4667230755
 H    1.0085928788    1.9409208082    0.3755963208
 H   -0.1605640152    1.9350655731   -0.9397340032
 H   -0.7259935828    1.9019796189    0.7162356130
 H    0.1516595155    0.3903245420   -2.5526726533
 H    0.0591763600   -2.9132316923   -1.2959429598
 H   -0.7702577235   -3.5495153240    1.9342080618
 H    0.8596481894   -3.5436187954    1.9521758983
 H    0.1310213814    0.4361776308    2.5241849706