17

 C    0.0563923422    1.4700560533   -0.0081327153
 N    0.0754209729    0.0112338701   -0.0006804842
 C    0.0598071417   -0.6576292553   -1.2280156078
 C    0.0017752378   -1.9859355588   -1.3672234188
 C    0.0544090493   -2.8464987968   -0.1713071950
 N    1.2876268143   -2.7312293384    0.6435890369
 C    0.0287670672   -2.1459224697    1.1524419870
 C   -0.0389912840   -0.6492849822    1.2136641804
 O   -0.2126087281   -0.0636338752    2.2669888729
 H    0.9477395749    1.8601337947   -0.5095602703
 H   -0.8342047609    1.8455713554   -0.5240154134
 H    0.0394390316    1.8083464984    1.0261032043
 H    0.0783818831    0.0073168353   -2.0838665940
 H   -0.0411803916   -2.4247537820   -2.3555930710
 H   -0.4133739296   -3.8254212233   -0.2315353968
 H    1.4486281739   -3.6057434531    1.1384704464
 H   -0.4477472246   -2.6114595525    2.0088739987