13

 O   -0.0948334574   -0.0562497430    0.0026827055
 C   -0.0211619483    1.1501090928    0.0073378641
 C    1.2178764652    1.8888861560    0.0013315215
 C    2.2457220675    2.5226128589   -0.0056417837
 C    3.4775066759    3.2941273624   -0.0132569148
 C    3.2114624428    4.8220496901   -0.0027062772
 C    4.4547764204    5.5885897346   -0.0107552033
 N    5.4494814651    6.1759921993   -0.0170687789
 H   -0.9285484514    1.7871083128    0.0166089383
 H    4.0873727963    3.0224938132    0.8561058179
 H    4.0706286757    3.0317587083   -0.8969332774
 H    2.6131262054    5.1013291319   -0.8755460099
 H    2.6299955329    5.0921153228    0.8843373380