19

 C   -0.3048364425    1.4036364589   -0.0065165257
 N   -0.1523816189   -0.0377564168   -0.0238899815
 C    0.4732959555   -0.5740413777   -0.9735063122
 C    1.3480210888   -0.1460352996   -2.1855249497
 O    2.3724141222    0.7902481979   -1.9542311295
 C    1.8198854716   -1.6170447321   -2.1728608730
 C    2.9211057998   -2.0143126971   -1.1578924963
 C    1.7809311387   -2.5114614839   -0.2211785327
 N    0.7437209786   -1.9608220437   -1.1627019967
 H    0.2972307035    1.8336952344    0.8031283005
 H   -0.0292942735    1.9095423558   -0.9455764186
 H   -1.3495849219    1.6528695610    0.2087965713
 H    0.7665701970    0.0957095279   -3.0861689870
 H    1.9891508011    1.6724835265   -1.9518905904
 H    1.7999981335   -2.1551434325   -3.1223538706
 H    3.6210410170   -2.7766144614   -1.5037694532
 H    3.4822058309   -1.1592550355   -0.7769472760
 H    1.7014810198   -3.5986107520   -0.1448789400
 H    1.7205622388   -2.0739678300    0.7778554611