15

 N   -1.0496600227    0.9371265262   -0.3704037580
 C   -0.4342895895   -0.1207281969   -0.1161395620
 O    0.9352570114   -0.4183865816   -0.2181836408
 C    0.6518933648   -1.8091718451    0.0920843721
 C    1.3957093032   -2.8177474230   -0.7395619864
 C    0.9489709432   -4.1832993526   -0.4767617654
 N    0.5796488919   -5.2544903200   -0.2531673887
 C    0.1173948935   -1.9044906672    1.4726380330
 C   -0.8106639958   -1.4990375612    0.3141504580
 H   -0.4158089928    1.6756596880   -0.6793362969
 H    1.2610544243   -2.5888699705   -1.8027091096
 H    2.4703467210   -2.7470431222   -0.5294752677
 H   -0.0703882812   -2.9070517124    1.8442854068
 H    0.4168256101   -1.1735523176    2.2165567497
 H   -1.7106291614   -2.0408367841    0.0646929459