19

 C   -0.0292465983    1.5588699647    0.0509919093
 C    1.5238915444    1.5023528233   -0.0203991757
 C    2.1247465712    1.3342855764    1.3840143711
 C    1.6070492943    0.0369286694    1.9946899939
 C    1.7740422570   -1.1895684177    1.1409311260
 O    2.2148498148   -0.9422809695   -0.1753965038
 C    1.3777614972    0.0839032486   -0.6694275526
 C   -0.0204270218    0.0098310538    0.0199392002
 C    0.3878327372   -0.6208397965    1.3442237741
 H   -0.4743328290    2.0468852715    0.9224694202
 H   -0.4679351313    1.9797689160   -0.8578856209
 H    2.0364821625    2.2784985493   -0.5929365800
 H    3.2195653922    1.2985975266    1.3243562526
 H    1.8637344053    2.1969657129    2.0080723614
 H    1.7179242926   -0.0868928586    3.0672555046
 H    2.1191812070   -2.1406650131    1.5273855074
 H    1.4084862090    0.0725069082   -1.7593771299
 H   -0.8408551718   -0.5232509106   -0.4642437742
 H   -0.3502048624   -1.1201144748    1.9598140264