17

 C   -0.6497438137    1.1593335284    0.0956868195
 C    0.2222480217   -0.0923336921    0.0417182330
 C    1.1115101598   -0.2655121974   -1.1970891998
 C    2.3071661769   -1.0491869727   -0.6361896523
 O    2.3925177220   -0.7224627675    0.7597572766
 C    1.2218686472   -0.1591845088    1.1971345438
 O    1.0762924417    0.1963778082    2.3280700590
 C    2.1751439455   -2.5650922696   -0.7759651754
 O    1.6496446828   -3.1044261027   -1.7132122618
 H   -0.0482761186    2.0614529259   -0.0555935269
 H   -1.4217757726    1.1300428755   -0.6780164558
 H   -1.1333838557    1.2379402788    1.0722800923
 H   -0.4167003672   -0.9797419833    0.1566798207
 H    0.6415475269   -0.8147858354   -2.0140995011
 H    1.4389072681    0.7085935880   -1.5721427425
 H    3.2597462580   -0.7619859668   -1.0978123742
 H    2.6221750871   -3.1337619785    0.0678591348