21

 C   -0.1103694915    1.5700907126    0.0747813281
 C    0.0348943921    0.0496526341    0.0294182169
 C   -1.3188963807   -0.6168934293   -0.2243202189
 C    1.1416640152   -0.5274426542   -0.9280782462
 C    1.7913021680   -1.2574416775    0.2636787944
 C    2.2000474736   -0.2375481734    1.3042477433
 C    0.7560051931   -0.6180635891    1.2194158712
 C    2.3025265267   -2.5844419550    0.2358302699
 C    2.7269055648   -3.7105739860    0.1880306515
 H    0.8432396228    2.0689809382    0.2712286604
 H   -0.4928803666    1.9508944142   -0.8792007491
 H   -0.8137525393    1.8730261191    0.8588928644
 H   -1.7452879941   -0.2869252183   -1.1782032010
 H   -1.2233572332   -1.7071521370   -0.2543192706
 H   -2.0337271960   -0.3641709057    0.5674781971
 H    0.7345364266   -1.2069725928   -1.6789430425
 H    1.7881136997    0.2031509122   -1.4251906446
 H    2.7372209096   -0.6443825062    2.1540647227
 H    2.5463468891    0.7414448076    0.9822745238
 H    0.2492337869   -1.0975423585    2.0497834836
 H    3.1045287933   -4.7018198952    0.1510378756