16

 C    0.0200667932    1.4307742900    0.0495114505
 N   -0.1404842878   -0.0070353561   -0.0645489940
 C    0.5487490214   -0.6685103531   -1.0678047458
 C    1.1949419871   -0.1158013360   -2.1602521573
 N    1.6678604531   -1.1754776947   -2.8836762428
 N    1.3982066725   -2.3578206389   -2.3587363906
 C    0.7041864030   -2.0819277833   -1.2399492556
 C    0.1937936085   -3.1371360362   -0.3665926812
 O    0.3519713700   -4.3268918129   -0.5152958833
 H    1.0695581979    1.7469023884    0.1643048098
 H   -0.3853900180    1.9211001960   -0.8426316102
 H   -0.5481459503    1.7876710026    0.9110305682
 H   -0.1366643084   -0.4880855843    0.8215193517
 H    1.3498506688    0.9023943495   -2.4731911507
 H    2.1869361158   -1.1348494342   -3.7457354570
 H   -0.3949419968   -2.7496400067    0.4985982281