19

 O   -0.0991793246    1.3160643529   -0.4415617459
 C   -0.0706233981   -0.0261339085    0.0324881641
 C   -1.4808756545   -0.5376071815    0.0590833970
 C   -2.4801461247    0.1059546003    1.0203421322
 O   -3.4193245046   -0.9256499451    1.3492466667
 C   -3.2694777725   -1.9320911098    0.3632030787
 C   -3.5485320117   -1.3866973377   -1.0775149979
 C   -2.0428018501   -1.1559786773   -1.2165098136
 C   -1.7611911871   -2.0111841331    0.0114964214
 H    0.7855201592    1.6833959263   -0.3541763689
 H    0.5459688200   -0.6675230145   -0.6175166196
 H    0.3591272547   -0.0738410001    1.0461927319
 H   -1.9923113388    0.4427895295    1.9429629674
 H   -2.9943222861    0.9661608888    0.5737487315
 H   -3.8062327915   -2.8224104033    0.6874079619
 H   -3.8932736501   -2.1805074816   -1.7462380973
 H   -4.2267819984   -0.5303833642   -1.1493387886
 H   -1.4820750851   -1.1009192214   -2.1424778808
 H   -1.0500586860   -2.8051430297    0.1982951698