18

 C    0.0876359845    1.3433468550   -0.0618245295
 O   -0.0220047090   -0.0465361294    0.1542076863
 C   -1.3174499513   -0.5824204298    0.0512745812
 C   -2.2631760813   -0.0768599760    1.1405551488
 C   -1.9896472973   -0.6002820560   -1.3870597809
 C   -1.9828227289   -2.1299162818   -1.2969354941
 O   -0.6131882521   -2.5258470772   -1.1883574234
 C   -1.2872541867   -2.1203442599    0.0006138371
 H    1.1552499047    1.5749918091   -0.0827738663
 H   -0.3550452959    1.6466355651   -1.0220673025
 H   -0.3808158089    1.9354468988    0.7373283733
 H   -2.4960743459    0.9844213376    1.0135995913
 H   -3.2082862551   -0.6278604888    1.1174850086
 H   -1.8067790936   -0.2154382337    2.1260413899
 H   -2.9822766656   -0.1444790423   -1.4038242124
 H   -1.3787172003   -0.2058866871   -2.2013173690
 H   -2.6822158191   -2.8474572746   -1.7088784155
 H   -1.3035899781   -2.8154113889    0.8331924172