21

 C   -0.1738104570    1.6085804861    0.0144745862
 C   -0.0443028760    0.0919973904    0.0041243340
 C    0.8998915807   -0.5918012274   -1.0223545668
 C    0.7802709174   -0.6073950413   -2.5206057973
 C    2.1981144929   -0.2794385489   -0.1859072573
 C    2.6551368190   -1.7520261611   -0.2049953712
 C    1.1209396571   -1.8357331343   -0.0815294397
 C    1.0496427715   -0.5931788931    0.8501784338
 O    1.1610172869   -0.6883764700    2.2260732529
 H    0.8020128691    2.0997964996   -0.0694790724
 H   -0.7933686947    1.9605296320   -0.8176123205
 H   -0.6466362234    1.9591292405    0.9393173636
 H   -1.0291795781   -0.3881720186    0.0843141666
 H    0.8171765521    0.4079630230   -2.9312043017
 H    1.5924585227   -1.1812439758   -2.9800843935
 H   -0.1672920682   -1.0585451006   -2.8359351490
 H    2.8038474902    0.6266287227   -0.2459064178
 H    3.0995397374   -2.1212483693   -1.1345689084
 H    3.2313259110   -2.0951888247    0.6583698747
 H    0.4696198392   -2.7098533578   -0.0226378876
 H    1.2956814602    0.1961313586    2.5829821614