20

 C   -0.0141374443    1.4830914808   -0.0759101912
 N   -0.0157701436    0.0271411786    0.0318770477
 C    0.6901390459   -0.4551636366    1.2156118182
 C    2.2022233905   -0.1826051054    1.1606109886
 C    2.9476901820   -1.0061117321    2.1877767007
 O    3.6810745885   -0.5598303482    3.0303290067
 C   -1.3664561254   -0.5009123956   -0.0673316928
 C   -1.8954399186   -0.4001379007   -1.4914000739
 O   -3.0568516689   -0.2865408864   -1.7795644008
 H    1.0080272087    1.8614954493   -0.1449538706
 H   -0.5397246345    1.7876801633   -0.9860115378
 H   -0.5103839383    1.9750425023    0.7812316932
 H    0.2768538437   -0.0272929734    2.1487763986
 H    0.5336762076   -1.5393467497    1.2715247328
 H    2.5612365196   -0.4802147603    0.1654352799
 H    2.4485013281    0.8690898446    1.3220828865
 H    2.7670313533   -2.1049080514    2.1100260779
 H   -1.3449651895   -1.5741554913    0.1693894566
 H   -2.0953865320   -0.0338796981    0.6183634997
 H   -1.0952686530   -0.4718084296   -2.2631795999