22

 C    0.7647707867    0.2821533894    0.8719737346
 N   -0.2693719132    0.1831518362   -0.1502566578
 C    0.2821030594    0.2438438472   -1.4946378780
 C   -1.2346263550   -0.8921750603    0.0601898877
 C   -0.6625906809   -2.3143814541    0.2574596272
 O   -1.6655144387   -3.3023525617    0.1473646990
 C   -2.2202456930   -0.5318564160    1.1869549693
 C   -2.6682181169    0.9096721637    1.2918118520
 O   -2.6513518124   -1.3863601302    1.9359247736
 H    1.2768392228    1.2458941387    0.7771792516
 H    0.3178584089    0.2370006655    1.8703359298
 H    1.5316653221   -0.5092431962    0.8114287309
 H    0.9565372998   -0.5949578525   -1.7439207876
 H   -0.5284972856    0.2570951781   -2.2294177282
 H    0.8555088240    1.1702306863   -1.6079842810
 H   -1.8648132001   -0.9376432697   -0.8411219882
 H    0.0733535362   -2.5192596158   -0.5271430610
 H   -0.1417663348   -2.3757241511    1.2243730740
 H   -2.2595503157   -3.1364002372    0.8915032959
 H   -2.9218490914    1.3083887848    0.3051609009
 H   -3.5228932067    0.9739955489    1.9665992368
 H   -1.8525563754    1.5321848361    1.6713742484