16

 C   -0.0352441740    1.4178432133   -0.0317997606
 O   -0.0400736818    0.0052597908    0.1278300760
 C   -1.2806463444   -0.5880752437   -0.0193095960
 O   -1.7382309919   -0.5045197326   -1.3899267887
 C   -1.6427045248   -1.7689532752   -1.8844332805
 N   -1.3391563288   -2.7247811853   -1.1136502598
 C   -1.1558844605   -2.1231105446    0.2076922195
 C    0.1641768764   -2.5001501344    0.8794031847
 O    0.9972917501   -3.2144877032    0.3985398605
 H    0.9812970777    1.7536687459    0.1781115008
 H   -0.3122810845    1.7012623160   -1.0526352169
 H   -0.7286985864    1.8956062111    0.6748679489
 H   -2.0386192787   -0.0810518107    0.5908995908
 H   -1.8590352119   -1.8546230356   -2.9431289835
 H   -1.9546479740   -2.4684264091    0.8797757204
 H    0.2763592875   -2.0670900526    1.8975292943