23

 C    0.4265063768    1.3943985389   -0.2751583456
 C   -0.3041569077    0.1392319549    0.2359102201
 C    0.3124729270   -0.4387628427    1.4261060383
 C    0.8347088830   -0.8892301675    2.4142656512
 C    1.4725295087   -1.4728388659    3.5894067678
 C    2.2107289859   -2.7956214890    3.2877641367
 C    2.8682763178   -3.3841405242    4.5164873006
 C    2.0730108642   -4.2407118202    5.4719407792
 C    3.1415964462   -4.8630748930    4.6061272659
 H    1.4633890002    1.1618136599   -0.5329323099
 H   -0.0700337893    1.7910704889   -1.1660090334
 H    0.4376640719    2.1753935550    0.4900640824
 H   -1.3513159712    0.3893287755    0.4510151513
 H   -0.3353292452   -0.6141967314   -0.5620541573
 H    2.1845466307   -0.7541387411    4.0177386496
 H    0.7228857721   -1.6524491883    4.3711255419
 H    1.4958444664   -3.5146194148    2.8702001275
 H    2.9588349624   -2.6147720898    2.5065722792
 H    3.6148925350   -2.7393337959    4.9753424960
 H    2.2602409973   -4.1470692407    6.5359286378
 H    1.0373740670   -4.4485279331    5.2214691052
 H    2.8214206379   -5.4870015767    3.7778747719
 H    4.0609835128   -5.1919429689    5.0778899937