19

 C   -0.0961978175    1.5715032738   -0.0166248334
 C    0.0055661134    0.0498630220    0.0287707480
 C   -1.3697538274   -0.6099685512   -0.0893107092
 O    0.8405845745   -0.4172111781   -1.0626127522
 C    1.8487339917   -1.2308306481   -0.4233479149
 O    1.1705238116   -1.8103659418    0.6692153890
 C    0.8033276454   -0.5454090741    1.2566540825
 C    2.1456781941    0.1678840348    1.3268252941
 C    2.8214991205   -0.2723585290    0.2647148980
 H    0.8910233581    2.0360831577   -0.0018580317
 H   -0.6045920568    1.8815542219   -0.9345290017
 H   -0.6780155677    1.9477835146    0.8321338250
 H   -1.8171649704   -0.3662002872   -1.0572639416
 H   -1.2776426965   -1.6946143443   -0.0126450194
 H   -2.0422614467   -0.2514067184    0.6979255228
 H    2.2201641389   -1.9749358299   -1.1249814252
 H    0.2299505093   -0.6834409069    2.1712965256
 H    2.4087470306    0.9469836466    2.0281391715
 H    3.7760773248    0.0492935676   -0.1267329473