17

 C    0.5076068455    1.1087071560   -0.2977598144
 N    0.1543430743   -0.2721423055   -0.0105117052
 C    0.5522188324   -0.8828767590    1.1356933406
 C    0.5350443851   -2.2163682077    1.4922957960
 C    0.0542070504   -3.3418497913    0.6369508187
 O    0.5137034590   -3.2220257050   -0.7180456243
 C    1.0519687743   -2.1814731076    2.8086700032
 N    1.3535510704   -0.9773698625    3.2306610572
 O    1.0342245878   -0.1327534859    2.1303237597
 H    1.5856999174    1.2547309222   -0.4526576670
 H   -0.0237213047    1.4241120879   -1.1977913701
 H    0.1948673939    1.7485196511    0.5302348838
 H    0.1012234956   -0.9164685354   -0.7878338146
 H    0.3485556709   -4.3071551704    1.0723383738
 H   -1.0386456988   -3.3506206676    0.5471940543
 H    1.4772563784   -3.2220840708   -0.6876505520
 H    1.2126465480   -3.0145273384    3.4813107102