18

 C    0.0195152268    1.5191964944    0.0586255353
 N    0.0779017956    0.0619920654   -0.0007057726
 C    0.7790489407   -0.5566772205   -1.1256017576
 C    2.3036824206   -0.5295846641   -0.8755901579
 C    1.3601265506   -1.6287249255   -0.2949107126
 C    1.0563454577   -0.6324583082    0.8969655820
 C    0.6704937493   -0.9293668179    2.3143412827
 C    2.4517748710   -0.0394748443    0.5264676563
 O    3.3661285521    0.3730664451    1.1860597645
 H    0.9962316269    2.0144912484   -0.0681085988
 H   -0.6537634517    1.8791233939   -0.7256465813
 H   -0.3979916427    1.8246866694    1.0226561949
 H    0.3806912277   -0.5882566547   -2.1330492742
 H    3.0456959623   -0.6343347314   -1.6545060787
 H    1.4412249078   -2.7015219219   -0.3667216096
 H    1.4691839344   -1.4779851360    2.8220281365
 H    0.5112119073    0.0029483831    2.8660449174
 H   -0.2517902563   -1.5148041652    2.3564605740