21

 O    0.0822510694    1.5016088968    0.6474170215
 C   -0.0632789323    0.2152232025    0.0389404090
 C    0.7960162006   -0.8166176323    0.7301247605
 C    0.0631222257   -1.6595410422    1.4580701072
 C   -1.4156495627   -1.3905502050    1.3198714325
 C   -1.4962717958   -0.3996174712    0.1393180833
 C   -2.6482837894    0.6374718736    0.0550245496
 C   -2.7786824144    0.3378054086   -1.4623543470
 C   -1.9691228993   -0.9664942370   -1.2376213478
 H    0.0581193113    1.3703589802    1.6019419940
 H    0.2177786425    0.3862953660   -1.0055968659
 H    1.8789147098   -0.7877868276    0.6847264153
 H    0.4593469675   -2.4447790174    2.0938162043
 H   -1.9955141507   -2.3010175951    1.1269188356
 H   -1.8256710189   -0.9649131532    2.2479441269
 H   -3.5290723543    0.3086260841    0.6154458473
 H   -2.3936017234    1.6566683690    0.3518891510
 H   -3.7858971957    0.2358824472   -1.8724927018
 H   -2.2321377960    1.0641965972   -2.0697812798
 H   -1.1938354890   -1.2216013657   -1.9664687767
 H   -2.6224207047   -1.8353363486   -1.1115081390