16

 C    0.0007185383    1.5690978841    0.0066236983
 C    0.0008162193    0.0397852501   -0.0562859325
 C   -1.3865068984   -0.5670245437    0.0813623141
 C   -1.4331680919   -2.1044867695    0.0488085312
 O   -2.3581767891   -2.4416465167    1.0835211401
 C   -2.5620476500   -1.3638250594    1.8861084914
 O   -3.1955218526   -1.3796441299    2.8917236154
 O   -1.9410390579   -0.2706353632    1.3760365931
 H    1.0166332029    1.9619717666   -0.0885074369
 H   -0.6017004127    1.9985397444   -0.8010885021
 H   -0.4127923440    1.9173804697    0.9566470222
 H    0.4199112814   -0.3012140219   -1.0121700997
 H    0.6376794772   -0.3748493685    0.7345248421
 H   -2.0640583495   -0.1389452388   -0.6688657574
 H   -1.7979917106   -2.5067998777   -0.8980426303
 H   -0.4583529625   -2.5500715255    0.2795827710