20

 C   -0.0639844415    1.6309568002   -0.1752025988
 C   -0.0559070675    0.2027777157    0.3816982759
 C   -1.3190455775   -0.5509945671    0.0058406318
 O   -1.4583968651   -0.7381509961   -1.4236295698
 C   -1.8463580420   -2.1156838656   -1.2487962664
 C   -1.4677869505   -2.0801703208    0.2467619732
 C   -0.1895913292   -2.8485941208    0.6141542924
 C   -0.4081187249   -4.2943605023    0.5990041196
 N   -0.6039325778   -5.4330726976    0.5788689363
 H    0.8626506715    2.1556373548    0.0737222906
 H   -0.1676631942    1.6144737045   -1.2635106998
 H   -0.8991108948    2.2096322973    0.2340032482
 H    0.8213639317   -0.3320546204    0.0009317618
 H    0.0266043996    0.2236417156    1.4766192598
 H   -2.1926771280   -0.0084452117    0.4006852304
 H   -2.9149747263   -2.2705845359   -1.4431371572
 H   -1.2669836317   -2.7934856520   -1.8863559331
 H   -2.2678425393   -2.3554048658    0.9362111434
 H    0.6166436267   -2.6152972436   -0.0897207837
 H    0.1635151508   -2.5603898185    1.6107491653