17

 O    0.2834797272    0.0216593378    0.3879135958
 C    0.3982528474    1.2012807641    0.5230845101
 O    0.8054973704    2.0089464723   -0.4830755539
 C    0.8602456865    3.3940543698   -0.1986026913
 C    2.0064944487    3.9330092311    0.6182060718
 C    1.9493751729    4.1707776638   -0.8739712348
 C    2.9338566042    3.4695555159   -1.8007117369
 C    4.2114927650    4.1698875098   -1.8846984192
 C    5.2550605044    4.7625054328   -1.9458925391
 H    0.1921617343    1.7550787773    1.4578156144
 H   -0.1223187834    3.8480113688   -0.1067532984
 H    1.8172262349    4.7560845706    1.2977230981
 H    2.7379441494    3.2128392471    0.9700548628
 H    1.6778241337    5.1722205555   -1.1926849575
 H    3.0915217758    2.4412589131   -1.4587557398
 H    2.4934902762    3.3868716790   -2.8025662908
 H    6.1829843224    5.2750302212   -2.0053241513