14

 C   -0.0045190586    1.4576974798   -0.1022199187
 C   -0.0737327337   -0.0186389893    0.0384877385
 N   -1.0439275126   -0.8215730599   -0.2862249823
 C   -0.5332962335   -2.0465160754    0.0679708487
 C   -1.2850939155   -3.3356134564   -0.0905255117
 C   -1.5944387118   -3.6390486831   -1.4892148508
 N   -1.8397541484   -3.8912597183   -2.5888098546
 N    0.6663474474   -2.0178870302    0.5809847986
 O    0.9828151897   -0.6563505116    0.5657331370
 H    0.8240119005    1.7408658389   -0.7582494832
 H   -0.9404218180    1.8215060396   -0.5250909577
 H    0.1653690978    1.9294787031    0.8699930039
 H   -0.6898565722   -4.1486247884    0.3343546967
 H   -2.2254840410   -3.2790672188    0.4692433156