16

 O   -0.2568476762    1.4381405178   -0.0486558541
 C   -0.1493315394    0.0483306917    0.0215762745
 C   -0.4669336724   -0.7337774946    1.2457126910
 C   -1.5938227162   -0.0835754755    2.0573794104
 C   -2.5226705914   -0.0917271632    0.8048428340
 C   -1.4181250765   -0.7569674995   -0.0190656968
 C   -1.6102686914   -1.8657730345   -0.9602460167
 O   -2.6861230194   -2.3237326789   -1.2675697127
 H    0.4542451851    1.8199620513    0.4772545278
 H    0.6537343609   -0.3773502443   -0.5836659381
 H    0.1795447453   -1.5341910748    1.5881254681
 H   -1.9591577492   -0.7310844010    2.8556947988
 H   -1.3546140440    0.8970163427    2.4774002890
 H   -3.3842341103   -0.7507459555    0.9152096995
 H   -2.8517668275    0.8816354195    0.4376468260
 H   -0.6645565075   -2.2851975311   -1.3781003207