19

 O    0.2476202005    1.3005032655    0.1187887255
 C    0.0662503414   -0.0962919672    0.0599500835
 C   -1.3753114762   -0.4667070716   -0.0589310971
 C   -2.4751962225    0.3097586228   -0.0538244259
 C   -3.7361812283   -0.5266528324   -0.2540679017
 C   -3.2521021588   -1.9715652981   -0.0098920956
 C   -1.7290551378   -1.9245696295   -0.2623195545
 C   -2.5919804932    1.7154712580    0.0640717640
 C   -2.8389126659    2.8915727532    0.1588309297
 H    1.1828979703    1.4755098836    0.2554612898
 H    0.6054514248   -0.5394231694   -0.7987066364
 H    0.4756174803   -0.5967889926    0.9575071467
 H   -4.5406872619   -0.2244062433    0.4233018758
 H   -4.1182357863   -0.3849815674   -1.2740367518
 H   -3.4387519123   -2.2471702290    1.0328603208
 H   -3.7643198097   -2.7055037663   -0.6370036464
 H   -1.4742191611   -2.2344465209   -1.2871826955
 H   -1.1680332610   -2.5919573692    0.4036530507
 H   -3.0021389523    3.9369591737    0.2418849483