18

 C   -0.1430633587    1.4840866696   -0.0665812785
 C   -0.0547967569   -0.0324599142   -0.0300152959
 O    0.8091473233   -0.5033413054   -1.0763576621
 C    1.7274139236   -1.4182214759   -0.5100113409
 O    1.2142758794   -1.8102930818    0.7404420671
 C    0.5573655414   -0.6600186657    1.2188647034
 C    1.1821328648    0.1019191077    2.3596412671
 C   -0.0699971517   -0.7391448689    2.5627124027
 H    0.8429073487    1.9345311963    0.0746454401
 H   -0.5361514650    1.8097580932   -1.0331616402
 H   -0.8175475215    1.8540356578    0.7134112743
 H   -1.0531851195   -0.4640398903   -0.1959970292
 H    1.8162022159   -2.3066644360   -1.1442953337
 H    2.7134018664   -0.9344754400   -0.3960663659
 H    2.1119006916   -0.2926772706    2.7536324199
 H    1.0896312791    1.1814541808    2.3961962455
 H   -1.0147025872   -0.2278368091    2.7180848391
 H    0.0322478762   -1.6761899077    3.0982584369