18

 C    0.0449419664    1.6309115286   -0.0328868808
 C    0.0934819466    0.1182628368   -0.0186879132
 C    1.4115033887   -0.6222223053   -0.1308710037
 O    2.6103783139    0.0971241314   -0.1016172070
 C    0.6422809813   -0.6666090081    1.1631739089
 C    1.1807005924    0.0083099506    2.4099781807
 C    1.9261860179   -0.9602475256    3.3092703087
 O    2.9008487305   -0.6844234555    3.9574931211
 H    0.9808751116    2.0666852155    0.3231702802
 H   -0.1287097680    2.0011187771   -1.0494965921
 H   -0.7670089725    2.0111451884    0.5961802742
 H   -0.7440403834   -0.3563272076   -0.5244804749
 H    1.4434723168   -1.5280293630   -0.7360632237
 H    2.7301153479    0.5197691110   -0.9585374105
 H    0.1333803982   -1.6066022845    1.3660614429
 H    1.8479490875    0.8403457348    2.1835841596
 H    0.3436225228    0.4031531831    3.0067295560
 H    1.4823456114   -1.9842962477    3.3522831336