14

 C    0.1001158582    1.4485032644    0.1996230179
 N   -0.0108822988    0.0192637960   -0.0059494600
 C   -1.2142719647   -0.6073616411   -0.0805956846
 N   -2.3016392244    0.1084796799   -0.1006160203
 O   -3.5035877946   -0.6133237371   -0.2678402915
 C   -3.5368623289   -1.9665002639   -0.3636051685
 O   -4.5791917656   -2.5495576149   -0.5124203972
 C   -2.2192714119   -2.6292408712   -0.2632384336
 N   -1.1135205070   -2.0012417662   -0.1340856210
 H    1.1540025553    1.7281597447    0.1580786818
 H   -0.4413884790    1.9794955674   -0.5881759360
 H   -0.3210595697    1.7638267824    1.1631253888
 H    0.7584300531   -0.5815117997    0.2388848699
 H   -2.2240733121   -3.7169083809   -0.3037239555