20

 C   -0.9646252502    1.0225194455    0.4147489099
 N   -0.0597414472   -0.0399923460    0.0077352972
 C    1.1266456428   -0.2524567976    0.8171609005
 C   -0.4428643143   -0.8590749697   -1.0332685979
 O   -1.4338033659   -0.6442122807   -1.7131995202
 N    0.4001894198   -1.9449353087   -1.2419934483
 C    0.3392250475   -2.9287208696   -2.2342480799
 C   -0.6908833081   -2.7944544994   -3.3247457665
 N    1.2003258593   -3.8648851079   -2.1150874936
 H   -0.4494149442    1.9904273403    0.4108701314
 H   -1.7920170290    1.0527819744   -0.2914903967
 H   -1.3577442426    0.8447902961    1.4244813616
 H    1.0145357554   -1.0747805781    1.5392156658
 H    2.0081720259   -0.4449230439    0.1969164104
 H    1.3284561784    0.6585107860    1.3847040500
 H    1.1287749764   -2.1470151557   -0.5751494985
 H   -1.7012300462   -2.8122952320   -2.9122950873
 H   -0.5954154422   -1.8368580295   -3.8413927515
 H   -0.5636497769   -3.6126594118   -4.0370685950
 H    1.1024492713   -4.5336080917   -2.8760822815