25

 C    0.8273189453   -0.1994233303   -1.3038093762
 C   -0.0224617750   -0.0392083094   -0.0379085212
 C    0.6022487954   -0.6439153363    1.2273442028
 C    1.9395959429    0.0122098618    1.6152000186
 C    1.8796474570    1.5210772266    1.8774006270
 C   -0.3511503988   -0.7639673793    2.4777583390
 C   -0.1166015235   -2.2782255539    2.5016583411
 C   -0.5671784163   -2.8972351152    1.2104277917
 C    0.7563661252   -2.1839917547    1.2503690278
 H    1.0710845967   -1.2526507367   -1.4809112202
 H    0.2907315213    0.1690648836   -2.1836996210
 H    1.7700964367    0.3532612447   -1.2406631531
 H   -0.2364996281    1.0232219712    0.1341778840
 H   -0.9982060315   -0.5084515370   -0.2079751804
 H    2.3146090832   -0.4956465369    2.5130650757
 H    2.6806342661   -0.1902122677    0.8312095112
 H    2.8442649465    1.8875155607    2.2424012194
 H    1.6371518986    2.0855742010    0.9718348123
 H    1.1259267097    1.7687857318    2.6328110454
 H    0.0433660056   -0.2445081130    3.3542791443
 H   -1.3903462433   -0.4495950870    2.3292414924
 H    0.0404626813   -2.8729526945    3.3933336440
 H   -0.4991683942   -3.9798018009    1.1639246182
 H   -1.4165746025   -2.4879897699    0.6690091908
 H    1.6828072517   -2.7046584884    1.0324703964