16

 N   -0.0519660946    1.3479706150   -0.0262289745
 C    0.0202156130   -0.0226933182    0.1477639151
 O    1.0833511085   -0.5862598284    0.3420856033
 C   -1.2678794425   -0.7414661692    0.1208369634
 C   -2.5481559693   -0.2245683601    0.1749782032
 N   -3.4207129766   -1.2781757059    0.1351078110
 C   -2.7256820832   -2.4664050959    0.0493295194
 N   -3.4464110651   -3.6769725349    0.0483916578
 C   -1.3871026016   -2.1636587914    0.0409826605
 H    0.8406354555    1.7969954403   -0.1665897164
 H   -0.8189677511    1.7261267309   -0.5583859608
 H   -2.9043288376    0.7875271406    0.2793463892
 H   -4.4177422307   -1.2261518495    0.2588380994
 H   -3.8368394041   -3.8949582877   -0.8642339619
 H   -2.8452604034   -4.4468607873    0.3155311359
 H   -0.5623563771   -2.8541903584   -0.0311664647