14

 C   -0.0156279809    1.4059909030   -0.0481909367
 N    0.0045619737   -0.0399459213    0.0123472771
 N    0.0401739096   -0.7924330295   -1.1185626077
 C    0.0229914859   -2.0238784814   -0.6290047232
 N   -0.0031255247   -2.1202544513    0.7330144800
 C   -0.0105740326   -0.8514972871    1.1003947280
 N   -0.1063098902   -0.3819385822    2.3920054170
 C    0.0365792219   -3.1654465117   -1.4842905613
 N    0.0487696355   -4.0964170524   -2.1697227631
 H    0.9905079405    1.8267984010    0.0549153667
 H   -0.4244885354    1.6967926624   -1.0153318719
 H   -0.6559619414    1.7907584896    0.7497043206
 H   -0.0147144828   -1.1307321337    3.0650731171
 H    0.4920169210    0.4005941246    2.6178364974