16

 N   -0.0401037991   -1.1288928306    0.0830597823
 C   -0.0696339047    0.0263509858    0.0484456129
 C   -0.0704118382    1.4642399250   -0.0265894325
 O   -1.0066695096    2.1694972001    0.7846220870
 C   -0.6638987233    3.3104145944   -0.0691353444
 C    0.7617557352    3.6225867241    0.4245072831
 C    1.3330692323    2.2777684768   -0.0657285739
 C    1.1465179848    2.3946708000   -1.6002758380
 C   -0.3539940582    2.3384834355   -1.2778358433
 H   -1.4318279659    4.0796463035   -0.0936355481
 H    1.2380819100    4.4763819853   -0.0641652598
 H    0.7711828861    3.7582072502    1.5069894443
 H    2.2379014093    1.8802734564    0.3866902403
 H    1.5550430005    3.2818329456   -2.0900238714
 H    1.4601936426    1.4956689283   -2.1370554593
 H   -1.1492925618    2.1172959898   -1.9856768990