23

 C   -0.1569846472    1.2734307055    0.6664229196
 C    0.0258782792   -0.1077363483    0.0576586942
 C    1.1942733962   -0.2575552027   -0.9205841453
 C    1.5456237416   -1.7487743074   -0.7916418111
 C    2.9206512203   -2.1489115266   -1.3271749092
 C    1.3017433922   -1.9974623081    0.7124831164
 C    2.5042219999   -1.7754376709    1.6358948721
 O    2.0947625913   -1.7900075109    2.9873713595
 O    0.2846239286   -1.0589945162    1.1051289303
 H    0.7618910941    1.6013190439    1.1630634716
 H   -0.4130573516    2.0024274187   -0.1093450547
 H   -0.9634001432    1.2645891335    1.4052809408
 H   -0.9086892059   -0.4045984587   -0.4449943608
 H    0.9270142684    0.0320965748   -1.9403984587
 H    2.0385835476    0.3674421270   -0.6040437430
 H    0.7844354078   -2.3188111023   -1.3396643517
 H    3.7247175931   -1.5820775329   -0.8475349455
 H    3.1177210819   -3.2141884856   -1.1674050751
 H    2.9818616523   -1.9614309440   -2.4038376286
 H    0.9097054225   -3.0051546543    0.9002124376
 H    3.2381961042   -2.5786182023    1.5100812130
 H    3.0018852679   -0.8245006340    1.3806517816
 H    1.2985571790   -1.2432565182    3.0128941070