16

 O   -0.2910501486    0.5894702948    1.1704337611
 C    0.5545570317    0.7357988199    0.3267960423
 C    1.2473358503    2.0622613809    0.0166055208
 C    1.4975907438    2.9380445814    1.2660743541
 C    2.9767120652    2.7241804973    1.5504000527
 C    3.4678161374    1.2898986265    1.6496080825
 C    3.5252263884    2.0301845696    0.3388426053
 O    2.5050111551    1.8161746385   -0.6092339493
 H    0.8946632572   -0.0977078541   -0.3273169787
 H    0.6068069167    2.5669923270   -0.7205288062
 H    1.3107884126    3.9922819345    1.0443265387
 H    0.8292612388    2.6342447740    2.0760618918
 H    3.5243459068    3.5068473682    2.0611186201
 H    4.4086449769    1.1253403801    2.1642571699
 H    2.7494061377    0.4871724321    1.7818663953
 H    4.4696001500    2.2693240291   -0.1345963304