19

 C    0.0956789434    1.5959244115    0.0520216761
 C    0.0499561959    0.0630744488    0.0459345560
 C    0.7383466550   -0.5147678904    1.2889560501
 C   -1.3997106317   -0.4821681925   -0.0461533506
 C   -2.0902451373   -0.1894582286   -1.3340626707
 C   -2.3072419220   -0.9267228391   -2.4602568765
 N   -2.9910563259   -0.1299824807   -3.3448052549
 N   -3.2015477769    1.0054031479   -2.8529452851
 O   -2.6278272453    1.0160464908   -1.5300371079
 H    1.1314236702    1.9478752707    0.0893128710
 H   -0.3756218078    2.0246073641   -0.8354688177
 H   -0.4238490950    1.9969006556    0.9304886654
 H    0.5881666816   -0.2955063229   -0.8416992950
 H    0.2205497277   -0.2045831296    2.2043825765
 H    0.7561486461   -1.6095350596    1.2689880514
 H    1.7722490266   -0.1631084838    1.3588220491
 H   -1.3810130646   -1.5694943387    0.0802027775
 H   -1.9935628962   -0.0715110954    0.7792168323
 H   -2.0368225237   -1.9420558983   -2.6940189570