25

 C   -0.1341056452    1.5560013390    0.0265300570
 C    0.0097726430    0.0195163318    0.0291461783
 C    0.7935027796   -0.3895489213    1.2898730948
 C   -1.3906569984   -0.6258622261    0.0709774124
 C    0.7167269071   -0.4376784125   -1.2419032603
 C    1.5994964151   -1.6546575724   -1.3489480392
 C    2.1764734140   -0.3078968546   -1.7019351664
 C    1.7334827936    0.0862646096   -3.1116063239
 C    0.2432416963   -0.0872889765   -2.6707613964
 H    0.8465297923    2.0418272923   -0.0126995715
 H   -0.7201348669    1.9096224587   -0.8268839387
 H   -0.6428480671    1.8958653186    0.9351287873
 H    0.3144878180    0.0269428544    2.1822365516
 H    0.8283339591   -1.4757835023    1.4138857036
 H    1.8227526013   -0.0150660210    1.2625635468
 H   -1.9871442349   -0.3383500516   -0.8013412850
 H   -1.3185006909   -1.7184226931    0.0828541299
 H   -1.9388094295   -0.3130473752    0.9666373632
 H    1.9537148796   -2.0766377412   -0.4157569592
 H    1.4247260594   -2.3941379485   -2.1291153274
 H    3.0323071416    0.0929813324   -1.1703155864
 H    1.9671451839    1.1231501827   -3.3646114477
 H    2.0877918007   -0.5577644758   -3.9240029079
 H   -0.3314458596   -0.8680970457   -3.1802041371
 H   -0.3169402022    0.8472669085   -2.7355618380