17

 C    0.0033201166    1.5394793820    0.0245830037
 C    0.0362971992    0.0344328016    0.0167403198
 C   -1.2650932148   -0.7908162187   -0.1833620369
 C   -0.6874204806   -2.0763389975    0.4464001736
 O   -0.4282393508   -1.6280435632    1.8098210392
 C    0.6335678103   -0.8883381098    1.2057376745
 C    0.8418651736   -1.9446906428    0.0721514627
 C    0.9736756173   -0.7769680965   -0.8932505352
 O    1.6706947989   -0.5193557340   -1.8323187475
 H    1.0041151984    1.9568184018    0.1734387334
 H   -0.3731920559    1.9245750537   -0.9289340090
 H   -0.6474093098    1.9166590565    0.8203835403
 H   -2.1086421807   -0.4234477726    0.4053262992
 H   -1.5551025110   -0.8818891274   -1.2337523631
 H   -1.2315517702   -3.0171769031    0.3851536009
 H    1.3963275251   -0.4936707355    1.8731550580
 H    1.4948372945   -2.8101717245    0.1341066162