18

 O    0.0458742727   -0.0197978889    0.1055968018
 C    0.0042303731    1.1880742770    0.0651519329
 C   -1.2081550935    2.1153939306    0.2709511167
 C   -0.6453496769    3.5108471372    0.1029883559
 C    0.6647167991    3.3860015729   -0.1548650455
 N    1.0637492284    2.0375455858   -0.1817841180
 C   -1.4035731077    4.7678891450    0.2052864962
 C   -2.8380961465    4.8820818528   -0.2789112700
 C   -2.5434281730    4.9401847119    1.1933380427
 H   -1.9827670334    1.8611457397   -0.4614834180
 H   -1.6386290965    1.9293134188    1.2614568664
 H    1.3967995335    4.1610650157   -0.3324556066
 H    1.9972029106    1.7042814523   -0.3539851352
 H   -0.7933503819    5.6530426564    0.0483510879
 H   -3.1270646858    5.7941007955   -0.7891602786
 H   -3.3144068728    3.9879950467   -0.6658294096
 H   -2.8210888167    4.0856487793    1.8004780284
 H   -2.6277380030    5.8927505214    1.7044001028