19

 C    0.0041886748    1.5462938433    0.0229746251
 C    0.0668571078    0.0174442551   -0.0017428247
 N    0.6915056192   -0.5063762393   -1.2067016641
 C    0.0729268095   -0.8673351192   -2.4001512416
 C    1.0785446148   -1.2391707463   -3.2418746339
 N    2.3115755025   -1.1171368709   -2.6213784238
 C    2.0254867550   -0.6760301669   -1.4239300027
 O    2.8774641451   -0.3845830758   -0.4287217137
 C    4.2514363768   -0.6291882079   -0.7311394113
 H    1.0112390741    1.9700515220   -0.0168238479
 H   -0.5649946191    1.9282978306   -0.8294970649
 H   -0.4786960307    1.8905402489    0.9428298275
 H    0.6368722260   -0.3516205655    0.8551513381
 H   -0.9373349451   -0.4121324233    0.0630652660
 H   -0.9984002261   -0.8301576928   -2.5078190614
 H    1.0000896234   -1.5940778041   -4.2578329277
 H    4.8074618086   -0.3475910411    0.1638893525
 H    4.4141307592   -1.6850004800   -0.9667521184
 H    4.5719967743   -0.0280224369   -1.5868413529