12

 N   -0.0300050298    1.3455501384    0.0100727610
 C    1.2775761730    1.8060845233   -0.0001085448
 C    2.1700028670    0.7453835413   -0.0148037097
 C    1.3408047533   -0.3990600360   -0.0132018936
 C    0.0226910812   -0.0207239212    0.0018069394
 N   -0.8142976506   -1.1106489067    0.0037692520
 C    0.0317056695   -2.0997149251   -0.0100839097
 O    1.3630366261   -1.7669700391   -0.0211948904
 H   -0.8529127775    1.9211261670    0.0214088265
 H    1.4781276197    2.8653653317    0.0039267590
 H    3.2442746030    0.8221630206   -0.0248497261
 H   -0.1901667050   -3.1547099343   -0.0139031037