13

 N   -0.0229051489    1.3021961425    0.0064126016
 C    0.0165094224   -0.0548781728    0.0035024810
 O    1.0704056803   -0.6952983986   -0.0068657551
 C   -1.2612548650   -0.7498526675    0.0120896884
 C   -1.4339086641   -2.1468760104    0.0102496280
 N   -0.4616142785   -3.0581161392    0.0019224237
 O   -2.6930510863   -2.4629168959    0.0188119035
 N   -3.4311292138   -1.0291617973    0.0273879163
 N   -2.5123453036   -0.2180684104    0.0224408052
 H    0.8470347851    1.8064076542   -0.0000378434
 H   -0.8942592744    1.8033109643    0.0143636708
 H    0.4831941675   -2.6903741592   -0.0069202637
 H   -0.6672217407   -4.0408146596   -0.0031280462