16

 O   -0.0783977281    1.3868776634   -0.0932115009
 N    0.0819996908   -0.0159507478   -0.0506127431
 C   -1.0270760784   -0.5941400653    0.0979876202
 C   -2.5240784344   -0.3339016433    0.0768547455
 O   -2.5682112191   -1.5069642246   -0.8282595456
 C   -1.4907516462   -2.0322041701    0.0436872275
 C   -2.2302777547   -2.2360131834    1.3808823316
 C   -1.9943596668   -1.2251693370    2.4756319652
 C   -3.0188394092   -0.9322085264    1.4069727385
 H    0.8256641051    1.6859757440   -0.2382325745
 H   -2.9837444767    0.5636159214   -0.3278223438
 H   -0.9155326999   -2.8451455781   -0.3929088479
 H   -2.6824231117   -3.1960762394    1.5936707924
 H   -2.3859148977   -1.4803935574    3.4552870002
 H   -1.0658162831   -0.6649365695    2.5028498029
 H   -4.0743977799   -0.8935391966    1.6432602119