11

 N   -0.1129599458    1.2446794874   -0.3683718371
 C   -0.0154196324    0.0254814033   -0.0387749620
 N   -1.1291167602   -0.7279651919    0.2913421948
 C   -1.0260859905   -2.0394012538    0.6460854490
 N    0.0474834729   -2.7344850903    0.7243655458
 O    1.2499807723   -2.0422949850    0.4017558729
 C    1.2883450218   -0.7355622436    0.0330706960
 O    2.3377829506   -0.2177918594   -0.2243563599
 H    0.8205641754    1.6064399343   -0.5698540715
 H   -2.0276361935   -0.2669623838    0.2595076122
 H   -1.9451435906   -2.5602811372    0.8903737599