19

 O   -0.2045871187    1.4896864600    0.0122614659
 C    0.0169696245    0.0872684993    0.0021841688
 C   -1.3505097067   -0.5801911350    0.0120732012
 C   -1.2802528636   -2.0969868245    0.0029455956
 O   -0.2237863510   -2.6906528893   -0.0104312359
 C   -2.6126220522   -2.8341667823    0.0115698657
 C   -2.4477386850   -4.3622734792    0.0023872156
 C   -3.7284194584   -5.0573879822    0.0105285886
 C   -4.7971822077   -5.6074604233    0.0174744264
 H    0.6517565626    1.9268346918    0.0062617175
 H    0.5763961862   -0.2317205146   -0.8885900704
 H    0.5940031959   -0.2416434118    0.8779869708
 H   -1.9200077247   -0.2532933230    0.8920236069
 H   -1.9374252257   -0.2435387958   -0.8526179002
 H   -3.1864657800   -2.5131227394    0.8900502844
 H   -3.2024082590   -2.5044363906   -0.8530352651
 H   -1.8628750094   -4.6566102350   -0.8760320121
 H   -1.8470672848   -4.6654045300    0.8670470716
 H   -5.7327161822   -6.1092786452    0.0233467947