19

 C   -0.1648888413    1.5815047163    0.0032104495
 C   -0.0048832329    0.0554730337   -0.0454709241
 C    0.7803906366   -0.4216724051   -1.2765926035
 O    2.1892028879   -0.3057699977   -1.0919784175
 C    2.6055147341   -0.7566213556    0.1623437168
 C    1.6918471104   -1.6802211387    1.0347287616
 O    2.4440169503   -1.2203673276    2.2126148228
 C    2.1723599844    0.0091719431    1.4451733907
 C    0.7166544825   -0.4748169325    1.1983460818
 H    0.8088574727    2.0778506703   -0.0634909824
 H   -0.7789703091    1.9380394707   -0.8299337493
 H   -0.6432382225    1.9026461902    0.9341922975
 H   -1.0015376122   -0.4014337120   -0.0950679616
 H    0.5321679555   -1.4745410582   -1.4816249516
 H    0.5384136201    0.1625231034   -2.1688025753
 H    3.6589570332   -1.0359100254    0.1216518536
 H    1.4828615167   -2.7482288689    0.9628178174
 H    2.5342283423    0.9522110339    1.8551152576
 H    0.1062165611   -0.5114000001    2.1036620360