14

 C    0.0238867124    1.4067000359    0.0093004090
 O    1.3148295080    1.9443638685   -0.0093044811
 C    2.0828541230    1.6361508326    1.1600695428
 C    1.8313886259    0.1986342341    1.4594798892
 C    0.8746519626   -0.5281049595    0.8290880528
 O    0.0088428265   -0.0223386342   -0.0842743419
 C    1.0220748509   -1.8345318173    1.3611929602
 N    1.9921109989   -1.8752787962    2.2460453500
 O    2.5106859515   -0.5776301147    2.3171279014
 H   -0.5061720293    1.6920043260    0.9321976242
 H   -0.4917674259    1.7763166942   -0.8762820753
 H    3.1275095677    1.8314179660    0.9005555678
 H    1.8103863287    2.2965590561    1.9975851908
 H    0.4679907691   -2.7336453917    1.1357425600