14

 C    0.1214010937    1.4226897671   -0.0578301198
 N    0.1024313940   -0.0203520573   -0.0036421360
 N    0.1613326018   -0.7826210545   -1.1525780151
 C    0.1246714486   -2.0088377449   -0.7530213568
 N    0.0430651113   -2.0996337494    0.6263254587
 C   -0.0152133774   -3.2571622058    1.4038126206
 O    0.0001630107   -4.3632929485    0.9336895451
 C    0.0271928708   -0.7737809371    1.1431077552
 O   -0.0369092581   -0.4309757504    2.3018962727
 H    1.0452079004    1.7776887282   -0.5226433311
 H   -0.7342103805    1.7972235484   -0.6263033839
 H    0.0653907691    1.7816249329    0.9709003581
 H    0.1525024825   -2.8773042877   -1.3897449296
 H   -0.0753290669   -3.0130189511    2.4754392319