17

 C   -0.0362607823    1.5350036381   -0.0257326451
 C    0.0793606617    0.0253232159   -0.0195475637
 O    1.1400230686   -0.5508191016   -0.0366474646
 N   -1.1394935514   -0.6838804897    0.0075011346
 C   -2.4287406442   -0.1424576126    0.0272626246
 C   -3.2742273798   -1.2019553804    0.0494517918
 N   -2.5692468623   -2.3939978940    0.0447646998
 C   -1.3025821505   -2.0763576673    0.0197202836
 C   -0.1861962184   -3.0624919491    0.0062575425
 H    0.9718681826    1.9470656972   -0.0438284159
 H   -0.5887611065    1.8835963204   -0.9035548607
 H   -0.5616166453    1.8936281947    0.8645348836
 H   -2.6027370246    0.9183542440    0.0230610678
 H   -4.3532725033   -1.1905646410    0.0687821830
 H    0.4414497871   -2.9508198013   -0.8819623861
 H    0.4739421684   -2.9379736002    0.8688535547
 H   -0.6287426899   -4.0595859432    0.0218011502