19

 C   -0.3298171788    1.5413349168    0.1194636491
 C   -0.1226851009    0.0404781563    0.0855520672
 C   -1.1853907841   -0.6975530720   -0.7203201643
 O   -1.1177011689   -0.3246223943   -2.0859934052
 O    1.2153978841   -0.4018520165   -0.1913842223
 C    0.6951912297   -0.6536764904    1.1278202071
 C    1.3214787208    0.0703774045    2.2979258574
 C    0.4537107903   -2.1204773302    1.3869843681
 O    0.2625631677   -2.5828238056    2.4826912073
 H    0.5821794859    2.0681603842    0.3995632432
 H   -0.6293792328    1.8750355736   -0.8776537566
 H   -1.1265180294    1.8073471930    0.8220584375
 H   -1.0943227464   -1.7836504713   -0.6033478471
 H   -2.1817256640   -0.4080646114   -0.3703953258
 H   -0.2350170425   -0.5605405935   -2.3948574872
 H    1.3467553409    1.1494709279    2.1551798677
 H    0.7559307515   -0.1631773967    3.2031892923
 H    2.3461638426   -0.2838081184    2.4477197321
 H    0.5035584143   -2.7570478962    0.4786953796