17

 C   -0.4299076994    1.1432608582   -0.1180962576
 C   -0.1286196524   -0.3359650929   -0.2364264500
 O   -0.6328554092   -1.1766603584    0.4639838946
 C    0.8718267105   -0.7120273444   -1.3347285828
 O    1.0854391113   -2.1162608693   -1.3886387564
 C    0.1117322459   -2.8298045530   -1.9776963291
 O   -0.8372391845   -2.3543735360   -2.5533773728
 C    0.3379859917   -4.3218558413   -1.8481070729
 O   -0.6049346615   -5.0360944777   -2.5955639239
 H    0.4904731638    1.7361767550   -0.0851401959
 H   -0.9941738801    1.4725324068   -0.9985266570
 H   -1.0245781162    1.3264521216    0.7771862984
 H    0.5153555008   -0.3347509791   -2.2989190828
 H    1.8456518284   -0.2631234609   -1.1182582300
 H    1.3582213147   -4.5571849003   -2.1800797344
 H    0.2876881664   -4.5662339823   -0.7750262584
 H   -1.2610346400   -4.3849737458   -2.8833992688