20

 C    0.0615909423    1.5337265579   -0.0812107912
 C   -0.0092270176    0.0211432342    0.1359500690
 O    0.5026046257   -0.3528153074    1.4061504688
 C   -1.4253964978   -0.5336046766   -0.0482888150
 C   -1.5608367474   -2.0676799901    0.1233937796
 N   -2.5960491012   -2.2509908882    1.1492897402
 C   -2.8920538884   -1.0944187053    1.5759380768
 C   -3.8702978403   -0.7621844407    2.6499525922
 O   -2.2664393439   -0.0102225711    1.0154116570
 H    1.0809142775    1.8880379500    0.0911481489
 H   -0.2327654171    1.8005737960   -1.1017814218
 H   -0.6106343624    2.0527213294    0.6099897232
 H    0.6364278694   -0.4816810251   -0.5951949223
 H   -0.0987809067    0.0199126544    2.0622155522
 H   -1.8439482294   -0.1828145297   -0.9990146526
 H   -1.8515531307   -2.5677939940   -0.8049744207
 H   -0.6220727500   -2.5139598152    0.4701708650
 H   -4.3119829608   -1.6793208412    3.0377797144
 H   -3.3752074291   -0.2221284531    3.4635140316
 H   -4.6571477823   -0.1094713742    2.2591249948