23

 C    0.0958320600    1.6792528920   -0.3207782714
 C    0.0810278231    0.1960521098   -0.0110100007
 C    1.2342202683   -0.7657102379   -0.1802588104
 C    2.6618137762   -0.2289776430   -0.2346901379
 C    2.8547997282    0.6147979652    1.0480119806
 C    1.7372540974    0.1903618445    2.0503345702
 C    2.2739558944   -0.7926510240    3.0995213984
 O    1.1458476077    1.3164002752    2.7075140595
 C    0.6725865608   -0.4900277159    1.2011182901
 H    1.0741892337    2.1424050388   -0.1925841100
 H   -0.2122454430    1.8464016419   -1.3593479840
 H   -0.6033793088    2.2152368275    0.3284088305
 H   -0.8700859868   -0.2568575710   -0.2860542278
 H    1.0391111763   -1.7064393735   -0.6851179535
 H    3.3566635009   -1.0761784024   -0.2428901754
 H    2.8678433486    0.3506712603   -1.1417826182
 H    3.8519026089    0.4748270682    1.4780581550
 H    2.7457949402    1.6825735418    0.8483133325
 H    3.0589897484   -0.3210252816    3.7037247909
 H    1.4724535435   -1.1153547036    3.7705762092
 H    2.7089382370   -1.6788325149    2.6256164092
 H    1.8023591542    1.6841249009    3.3089906900
 H    0.0482975108   -1.2170592680    1.7108143632