18

 C   -0.1920226915    1.4420905923   -0.0683909865
 N    0.0117176383    0.0057970601    0.0512284302
 C    1.3518384836   -0.4944617855   -0.1895847625
 C    0.8037432603   -0.4897585215    1.1947458677
 C    1.3072804795    0.3425146759    2.3596024687
 O    0.5771527134   -0.1252051939    3.4979271534
 C    0.3378793832   -1.5123140110    3.3398909687
 C    0.2936936340   -1.7629465399    1.8324679749
 O   -0.0504438697   -2.7666860753    1.2681464292
 H    0.6974891568    2.0501395767    0.1647093411
 H   -0.4857619543    1.6582405906   -1.0999648369
 H   -1.0082048249    1.7522441662    0.5909631416
 H    1.4162022876   -1.4414118921   -0.7195635186
 H    2.1388852606    0.2279917213   -0.4095382040
 H    2.3884468983    0.1921687275    2.5091472392
 H    1.1198343080    1.4142203625    2.2665672883
 H    1.1395272330   -2.1246783039    3.7871709857
 H   -0.6065984361   -1.7777683399    3.8225079197