20

 C   -0.2919901161    1.5804281259   -0.0321033845
 C   -0.0002226114    0.0873881844    0.0564593630
 O   -1.1638113817   -0.6194552465    0.4576865264
 C    0.5635786413   -0.6300389748   -1.1710788239
 C    1.9197876849   -0.1688764468   -1.5066943734
 N    1.7723878161   -1.1673305013   -0.4252055078
 C    1.2797196188   -0.4274593487    0.8049185874
 C    2.3117243363    0.4734427743    1.4590861348
 O    3.4272146726   -0.2862197309    1.8923939024
 H    0.5643693825    2.1553040119   -0.3931994043
 H   -1.1358402751    1.7525907962   -0.7070088420
 H   -0.5606456610    1.9780931111    0.9546677248
 H   -1.4748506196   -0.2389557452    1.2863673894
 H   -0.0383765814   -1.2613056070   -1.8159549369
 H    2.3855087451   -0.5900486197   -2.3922574333
 H    2.2343317790    0.8460155978   -1.2808690415
 H    0.9737364691   -1.1915609763    1.5242950228
 H    2.6252427776    1.2862876473    0.7851137912
 H    1.8853233795    0.9469547910    2.3512611795
 H    3.6538736335   -0.8831320727    1.1691997360