15

 N   -0.1631474277    1.3099089140   -0.0282327947
 C    0.1610225336    0.0479008142    0.3281207852
 N    1.1358776871   -0.6393673456   -0.2307048219
 H    1.8791000035   -0.1503084023   -0.7220345184
 C    1.2148944021   -2.0348347277   -0.1357001044
 C    0.1242393456   -2.8385254757   -0.3887355274
 O    0.4710629326   -4.1189965698   -0.2551965426
 C    1.9185478638   -4.1789798965    0.1227272854
 O    2.4020489793   -5.2662199416    0.3220468330
 C    2.3358964229   -2.8293328062    0.1673202580
 H    0.3817487591    1.8092314556   -0.7131254055
 H   -0.6956532030    1.8729744176    0.6138104189
 H   -0.4658893659   -0.4741845714    1.0393454898
 H   -0.8212812654   -2.6024707416   -0.8564417588
 H    3.3037379024   -2.5117747830    0.5172228633