20

 C   -0.0504368107    1.5294851081    0.1918532245
 C    0.0405297661    0.0303876125   -0.0328764861
 O    0.7403714269   -0.5302255176    1.0771177998
 C    0.8163804674   -1.9378191184    1.1483322591
 C    1.5400989915   -2.5867442774   -0.0404026224
 C    1.5803335049   -2.2187524319    2.4707878943
 O    1.6787875969   -3.5924346066    2.7623980843
 C   -0.5423376223   -2.5288460650    1.2915528876
 N   -1.5865895337   -3.0012536694    1.4448624190
 H    0.9481552625    1.9683268964    0.2711716824
 H   -0.5724207222    2.0037346150   -0.6443383238
 H   -0.5970961391    1.7479016309    1.1130902312
 H   -0.9627423049   -0.4135693508   -0.1052030945
 H    0.5721691805   -0.1871075795   -0.9694011010
 H    2.4842129179   -2.0586254064   -0.2029419358
 H    1.7536085001   -3.6306025062    0.1988401014
 H    0.9482103799   -2.5508892961   -0.9570543984
 H    2.5991528934   -1.8414650696    2.3467750148
 H    1.0961995577   -1.6456013110    3.2714934221
 H    0.8056452874   -3.9099568670    3.0197933415