21

 C    0.4750750522    1.5533686103    0.0561322021
 C    1.4156136761    0.3777919233   -0.1927176574
 C   -0.0365297571    0.1522818895    0.0627221902
 C   -0.7383292421   -0.6406430138    1.1560780089
 C   -1.6477954083   -1.1239635222    0.0020154551
 C   -1.8448625599   -2.6316740621   -0.2661907620
 C   -3.2827538672   -2.4969625894    0.3089300678
 C   -3.1808865426   -0.9617277402    0.0873016434
 O   -0.9135701570   -0.3339773975   -0.9549821903
 H    0.5460510146    2.0875503857    0.9984421827
 H    0.2139482541    2.1693489918   -0.7978070156
 H    1.7662083983    0.2291838664   -1.2085081628
 H    2.1293987580    0.1085280320    0.5795152762
 H   -0.1371046434   -1.4191393150    1.6317074513
 H   -1.2376073383   -0.0435995805    1.9228968573
 H   -1.8554236729   -2.8191656915   -1.3438230723
 H   -1.1508881958   -3.3293941481    0.2098643822
 H   -4.0816869598   -3.0254894177   -0.2138032463
 H   -3.3286311203   -2.7581529617    1.3694364768
 H   -3.5810861519   -0.2917990574    0.8528590023
 H   -3.5781117766   -0.6659136819   -0.8880250795