16

 O    0.0747406553   -0.0909565743   -0.1369768402
 C    0.0327499401    1.1170026739   -0.0530919664
 N   -1.1603205629    1.8196771661    0.1312611734
 C   -1.2858037338    3.2156389833   -0.2503187003
 C   -0.6038885748    4.5291869207    0.2864827188
 C    0.8649886975    4.4945668728    0.8229982565
 C    1.0044115405    3.3487998192   -0.1660708815
 C    1.1761306566    2.0658588968    0.1640281506
 C   -0.1844320922    3.8255767145   -1.0023802062
 H   -1.9915008570    1.2529421256    0.0368431481
 H   -2.2988090314    3.4379172434   -0.5767380946
 H   -1.2393422384    5.4055596195    0.3763091951
 H    1.3534376408    5.4333728447    0.5391599291
 H    1.0559528867    4.2702680902    1.8759386670
 H    1.8497129994    1.7781134126    0.9680357690
 H   -0.1580404764    4.1648760612   -2.0307521985