16

 C    0.2885272142    1.4136354563    0.1483831407
 N    0.3691043375   -0.0353769911    0.0578169531
 C    0.4682686017   -0.6386043783   -1.1664309244
 N    0.4545869259    0.0237269667   -2.2545528962
 N    0.5680542649   -2.0736673075   -1.0708152450
 C   -0.3966388899   -2.7784058268   -0.3119564372
 O   -0.4147606327   -3.9616496651   -0.1332349275
 C    1.6012024736   -2.7000956433   -1.8068018963
 O    1.7817749905   -3.8792879653   -1.8958336723
 H    1.2150357064    1.9038899115   -0.1739571816
 H   -0.5168213128    1.7677225443   -0.4976079661
 H    0.0716648634    1.6888568624    1.1825015163
 H    0.8094964360   -0.5172664752    0.8257172323
 H    0.3850628376   -0.5872269530   -3.0639931768
 H   -1.1459471655   -2.0782783410    0.0975164213
 H    2.2355836591   -1.9362588246   -2.2923334403