25

 C    0.0762170876    1.5508864324    0.3965067031
 C   -0.0027949894    0.0693793542    0.0748928061
 C   -1.3486240689   -0.4260946106   -0.4359810771
 C   -1.7730954026    0.1603264422   -1.7901803952
 C   -3.0992584885   -0.4151857147   -2.2958790042
 C   -3.5291979740    0.1670263571   -3.6355711541
 O   -4.7622163868   -0.4350278480   -4.0027330638
 C    1.2402857390   -0.5969176821   -0.4691025658
 C    0.7947737235   -0.8686635883    0.9494998367
 H    1.0604553561    1.8135869155    0.7969902855
 H   -0.0919862012    2.1709708598   -0.4907477443
 H   -0.6732488624    1.8327193313    1.1461198709
 H   -1.3146405959   -1.5199749928   -0.5215842390
 H   -2.1235030042   -0.2047349439    0.3120105609
 H   -1.8597730586    1.2517167447   -1.7115752753
 H   -0.9810716854   -0.0306787446   -2.5269241407
 H   -3.0244062998   -1.5048680123   -2.3996515252
 H   -3.8963059386   -0.2276249995   -1.5655335599
 H   -3.6310970446    1.2617020541   -3.5493527181
 H   -2.7507179912   -0.0267209514   -4.3921637020
 H   -5.0343663340   -0.0698256315   -4.8494723661
 H    1.1210395475   -1.3905141290   -1.1999802638
 H    2.1269759435    0.0102482251   -0.6192699194
 H    1.3790068993   -0.4420389255    1.7584574489
 H    0.3764996596   -1.8444693320    1.1745731720