16

 C    0.4274053815    0.3021412028    0.9332018435
 C   -0.1501045989    0.2467561212   -0.4598142510
 O    0.3516047490    0.7900723275   -1.4152603540
 C   -1.4820714141   -0.5110375880   -0.6414130080
 C   -1.5350103252   -1.3185277837   -1.9535356870
 N   -1.2224585115   -2.6364977433   -1.4347994330
 C   -1.4892913257   -2.7407362159   -0.0904522478
 O   -1.5327432365   -3.7226007553    0.5933393790
 O   -1.6947673697   -1.4688426206    0.4001146194
 H    1.2878778648    0.9713803720    0.9447475219
 H   -0.3291630682    0.6345411557    1.6516157673
 H    0.7272530619   -0.7014205681    1.2523397128
 H   -2.2824852155    0.2346198753   -0.5848696690
 H   -2.5270549355   -1.2750125360   -2.4206682255
 H   -0.7892163479   -0.9468238725   -2.6589708965
 H   -1.2941390985   -3.4716276212   -1.9918938621