19

 C   -0.0218883541    1.5645945010   -0.2119558925
 C   -0.0459239267    0.0656693000   -0.0204843627
 C   -1.3649389446   -0.5342799678    0.4112680573
 O   -1.8271022282    0.1509078003    1.5585153664
 C   -3.0542571850   -0.3260921714    2.0433517457
 C   -3.4273897660    0.4856242880    3.2723660741
 O   -4.4535546689    0.3381187834    3.8799548719
 C    0.8961308753   -0.7998556310   -0.7443676582
 O    1.1035288757   -0.4910772602    0.6339631481
 H    0.9788573081    1.8941938155   -0.4998175729
 H   -0.7297383357    1.8683144618   -0.9909917910
 H   -0.3058265123    2.0671124023    0.7157580905
 H   -2.1019336511   -0.4458311778   -0.4058200978
 H   -1.2261775360   -1.6039499221    0.6289642326
 H   -3.8615570308   -0.2340526730    1.2968548447
 H   -3.0002940441   -1.3909551770    2.3281173321
 H   -2.6566988805    1.2331075804    3.5624557850
 H    0.6368249324   -1.8366439251   -0.9587676066
 H    1.6020764125   -0.3493975871   -1.4409840064