19

 C   -0.1285978525    1.4750598959   -0.0432076065
 C   -0.0199945602   -0.0374060803   -0.1217635846
 C    0.8585218308   -0.5373341780   -1.2725690272
 C    1.0687534892   -2.0433110831   -1.1261972797
 O    1.6011619669   -2.3477055229    0.1643516674
 C    0.8004740067   -1.8364253934    1.2081866783
 O    0.5516397900   -0.4720902423    1.1275094019
 C   -0.4681803512   -2.7035943222    1.3426799537
 O   -1.5908385787   -2.2870820213    1.4397408181
 H    0.8617922088    1.9256421497    0.0736735857
 H   -0.5878208389    1.8711739472   -0.9540793552
 H   -0.7436613005    1.7669063119    0.8119341064
 H   -1.0235248295   -0.4730289653   -0.2165404051
 H    0.3875514892   -0.3118605703   -2.2357283076
 H    1.8287436237   -0.0287991657   -1.2376183401
 H    0.1167363288   -2.5766097616   -1.2837583147
 H    1.7932130344   -2.4304404216   -1.8464559825
 H    1.3852014836   -1.9912100666    2.1254365691
 H   -0.2354648505   -3.7933103800    1.3596573424