19

 C   -3.5773687925    0.1379052553    1.5348923796
 O   -2.9060829048   -1.0317013265    1.1221158560
 C   -2.0191925184   -0.8073400967    0.0504024220
 C   -1.2640540596   -2.0954196760   -0.2099892408
 C   -0.3613204350   -2.5700439288    0.9159414016
 C    0.8545808125   -1.6752782480    1.0768561103
 O    1.2230611973   -1.2029191598    2.1211750713
 C   -1.7969316609   -3.0458651812   -1.1941533682
 O   -0.7025046699   -2.1840576527   -1.5261859777
 H   -4.2255486902   -0.1369308027    2.3698937256
 H   -2.8717530980    0.9136118592    1.8694047286
 H   -4.1953673283    0.5585556737    0.7264926307
 H   -2.5541558007   -0.5070730668   -0.8641848854
 H   -1.3100316130    0.0021227928    0.2970410326
 H   -0.9111745774   -2.6045291316    1.8592388181
 H    0.0055299649   -3.5767368538    0.6788934194
 H    1.4073920854   -1.4871379052    0.1298674786
 H   -1.5497630192   -4.1026342205   -1.1088355988
 H   -2.7338632519   -2.8255142506   -1.7025907635