17

 C   -0.0335652179    1.4725740366   -0.0617677541
 C    1.4913558499    1.9298746519    0.0016588894
 C    2.0504295901    0.6215617934    0.5031625550
 O    3.2203168381   -0.2464524070    0.1830980978
 C    2.2404981454   -1.3237841171    0.4986341198
 C    1.9445494036   -1.0680520235    1.9730822027
 C    1.8099117780    0.2568267958    1.9796340772
 C    1.2157448684   -0.3853304054   -0.2501995641
 O   -0.1135838461    0.0132195043   -0.0312737736
 H   -0.5994335276    1.8465243769    0.7961833667
 H   -0.5060283886    1.8385598273   -0.9794191089
 H    1.8622261017    2.1809677548   -0.9944392518
 H    1.6223821370    2.7919634379    0.6597534504
 H    2.5423037256   -2.3051558976    0.1374665471
 H    1.8659586161   -1.8006818264    2.7619702829
 H    1.5933276392    0.9482146841    2.7812421337
 H    1.4522918271   -0.4118199260   -1.3215314502