23

 C   -0.6729987484    1.1931513736   -0.0419116887
 C    0.1849928746   -0.0582889049   -0.1481066953
 C    1.5952776250    0.0338869914   -0.7889026463
 C    2.1148686425   -0.9847055106    0.2584795326
 C    0.8371133500   -0.6912685229    1.1259107390
 C    1.1331451988    0.2967063864    2.2604246091
 C    0.1447575371   -1.9470391439    1.6443875674
 C    0.8336682337   -2.7123036769    2.7658092245
 O   -0.8995882822   -2.3418227159    1.1745136823
 H   -0.1447206444    2.0169665118    0.4497971303
 H   -0.9652657208    1.5408414768   -1.0390733221
 H   -1.5920381690    0.9957097319    0.5202729119
 H   -0.3942470575   -0.8465727296   -0.6363370855
 H    1.6873753804   -0.2419030213   -1.8420489550
 H    2.0444558917    1.0227531313   -0.6531310825
 H    2.1253622883   -2.0071125630   -0.1301342993
 H    3.0791626789   -0.7801682296    0.7316857470
 H    1.6546848516    1.1801928069    1.8797809265
 H    0.2145483698    0.6380157606    2.7491595048
 H    1.7755322991   -0.1549839476    3.0225423565
 H    0.6475250872   -2.2111016992    3.7225548537
 H    0.4241281122   -3.7219623410    2.8189261253
 H    1.9185457815   -2.7496404444    2.6272223337