17

 N    0.1925941204    1.3543141726    0.2386187758
 C    0.0608533752   -0.0408755985    0.1011673460
 C   -1.0943200609   -0.7800787341   -0.0328556373
 N   -0.7264157366   -2.0977252754   -0.2263313389
 C    0.6341715713   -2.2049973784   -0.2062471235
 C    1.1618066691   -0.9474111075   -0.0111180902
 C    2.6208595478   -0.5763450341    0.0388256352
 C    3.0151427401    0.0846815750    1.2859624855
 C    3.3133033485    0.6496765915    2.3053307172
 H    0.9210255322    1.5951767779    0.9025101800
 H   -0.6715857491    1.7948127136    0.5280162302
 H   -2.1304614757   -0.4840047396   -0.0108741103
 H   -1.3658101718   -2.8604054350   -0.3537134471
 H    1.1264111369   -3.1564104942   -0.3320108576
 H    3.2328086374   -1.4755709464   -0.1002467725
 H    2.8707340634    0.0930743447   -0.7968591435
 H    3.5931503518    1.1294449280    3.2101786510