21

 C   -0.0862757539    1.5130927003    0.0115784158
 C   -0.0304452629   -0.0045313578   -0.0103395653
 O   -1.3620541636   -0.4994952294    0.0301854361
 C   -1.4550539846   -1.8751356868    0.0153396466
 C   -1.0713256198   -2.7208979566   -1.2406338558
 C   -2.1455722332   -3.6916884194   -0.7536514369
 C   -2.0895141099   -3.7122196949    0.7838543021
 C   -0.9818656036   -2.7535787183    1.2171709085
 C   -2.8436863358   -2.6267995930    0.0559373424
 H    0.9239109758    1.9323263705   -0.0186347241
 H   -0.6449118858    1.8886307812   -0.8504161928
 H   -0.5822940988    1.8653705762    0.9204266289
 H    0.4772553623   -0.3604962212   -0.9201536409
 H    0.5398099354   -0.3838118283    0.8517322905
 H   -1.3822724662   -2.2129725094   -2.1579523926
 H   -0.0374510402   -3.0735660866   -1.3336722316
 H   -2.6021066329   -4.5045449809   -1.3030331411
 H   -2.5055937156   -4.5398988288    1.3431439674
 H    0.0557218257   -3.1074997410    1.2254216406
 H   -1.2248989410   -2.2706018641    2.1678705102
 H   -3.8667818314   -2.2849667418    0.0978174621