20

 O   -0.0710391403    1.4243684301   -0.0314500613
 C    0.0201346565    0.0232660351    0.0444005283
 C    0.2239801944   -0.6687060191    1.4304889602
 C   -0.6974748454   -1.7936075573    0.8679572311
 C   -1.3373298472   -0.7034982275   -0.0363158724
 C    0.0967125048   -2.7797755462   -0.0060017047
 C    1.2764729653   -2.0627008871   -0.7042865368
 C    0.9801135277   -0.5720193009   -0.9989898616
 H    0.8216584760    1.7853812227   -0.0619639816
 H    1.2358498566   -0.9232734859    1.7591329296
 H   -0.2803230047   -0.0935979726    2.2107224521
 H   -1.3544030788   -2.3084780808    1.5714564132
 H   -2.1062870641   -0.1332775993    0.4909846651
 H   -1.7052203778   -0.9963834973   -1.0248012816
 H    0.4835038611   -3.6088337789    0.5975067392
 H   -0.5834046587   -3.2237090716   -0.7435643496
 H    2.1486923076   -2.1148736848   -0.0448517408
 H    1.5647065671   -2.5863192643   -1.6208740574
 H    0.5381312439   -0.4341352032   -1.9927591764
 H    1.9237020360   -0.0083593409   -0.9951594445