17

 O    0.0658015406    1.1755260983   -0.5660500749
 C   -0.0075080226   -0.1238804192   -0.0273372785
 C    0.1493081246   -0.2636740858    1.5215231800
 C   -1.3403903623   -0.6790756158    1.6229654355
 O   -1.6649463381   -1.8598765998    2.2934966775
 C   -2.3422417618    0.5114759512    1.7534168003
 C   -2.4959095212    0.4964735716    0.2184821247
 O   -3.2127953659    1.0797401945   -0.5383057524
 C   -1.4773025320   -0.6362583615    0.0531512352
 H    0.9859829611    1.4581341645   -0.5539852764
 H    0.6360732125   -0.8210488720   -0.5776101602
 H    0.8168181569   -1.0824764833    1.8014509553
 H    0.4427268677    0.6488163556    2.0483097189
 H   -1.5828316189   -1.7047478451    3.2411923984
 H   -3.2724563920    0.2141249401    2.2489813532
 H   -1.9780014056    1.4444786254    2.1921239287
 H   -1.7472946431   -1.4845413887   -0.5748814153