21

 C   -0.3941059234    1.5814832471    0.1631530732
 C   -0.0407208820    0.0989615500    0.0840086286
 C    0.4537002291   -0.5031248329   -1.2425273298
 C    1.8338642894   -0.0655504689   -1.6269334015
 O    2.3701188548    1.2146711778   -1.4069970231
 C    1.7237585261   -1.0607404967   -0.5272782233
 C    1.2421235515   -0.4636083009    0.8021113415
 C    2.1671552899    0.4558843352    1.5808673470
 O    1.4925110748    0.7964197101    2.7913527354
 H    0.4247152255    2.2133945851   -0.1855648361
 H   -1.2766076367    1.8003146875   -0.4491418427
 H   -0.6180331602    1.8599234250    1.1972601803
 H   -0.9018751596   -0.4795624441    0.4318351577
 H   -0.1886059927   -1.0003834794   -1.9620198020
 H    2.1712808218   -0.5157371990   -2.5625816259
 H    1.9547666789    1.8179366305   -2.0325230254
 H    2.1815925429   -2.0396125497   -0.6178824126
 H    0.9434742115   -1.2664258853    1.4830803424
 H    3.1092026897   -0.0784796595    1.7903675726
 H    2.4171058915    1.3455834421    0.9938422760
 H    2.0095122572    1.4716527260    3.2396142375