22

 C    0.0028617101    1.5549867469   -0.0031946373
 C    0.0196568402    0.0248688983    0.0027084325
 C    0.7025050573   -0.5308619538   -1.2551094098
 O    0.7230236447   -1.9490713778   -1.2777193240
 C    1.4372257816   -2.4888090045   -0.1802796056
 C    0.8375380630   -2.0549464066    1.1439513950
 C   -0.1375341657   -2.9523576849    1.8108778318
 N    1.2209686622   -2.7721379479    2.3675912832
 C    0.7208625487   -0.5466737672    1.2488671692
 H    1.0208882011    1.9617798085   -0.0131468612
 H   -0.5220318607    1.9464510991   -0.8811891530
 H   -0.4994687792    1.9450071748    0.8878029263
 H   -1.0151859724   -0.3433354886   -0.0062951078
 H    0.1691322143   -0.2222961702   -2.1594550751
 H    1.7331829460   -0.1359420209   -1.3195630287
 H    1.4056451077   -3.5780789805   -0.2900055085
 H    2.4949955295   -2.1703952405   -0.2252937962
 H   -0.9345916332   -2.5332750007    2.4193496898
 H   -0.3851806693   -3.8949483349    1.3292492232
 H    1.7965272968   -3.5801017848    2.1359138408
 H    1.7307923744   -0.1172953084    1.3248850241
 H    0.1909819130   -0.2679472354    2.1654438614