17

 C   -0.0240693964    1.5441305318   -0.0000212947
 C   -0.0078912825   -0.0093125062   -0.0003214828
 C    0.7498971935   -0.5278913008    1.2527816764
 C   -1.3899252655   -0.5137130188    0.0192458126
 C   -2.5229772334   -0.9100635273    0.0637150072
 C    0.6685846769   -0.4895312485   -1.2124294839
 C    1.2504322905   -0.8704904873   -2.2023446234
 C    1.9025652405   -1.3002503311   -3.3168466002
 C    2.4821988422   -1.6809643640   -4.3053091363
 H    1.0003284991    1.9255621357   -0.0144820688
 H   -0.5537981592    1.9239887214   -0.8756615742
 H   -0.5283348361    1.9053758834    0.9002081796
 H    0.2482486073   -0.1736892079    2.1572612097
 H    0.7697221297   -1.6192504211    1.2666798329
 H    1.7780290093   -0.1564549399    1.2443769816
 H   -3.5226175007   -1.2679325407    0.0893397486
 H    2.9909857549   -2.0162203889   -5.1746723143