19

 C   -0.4484893675    1.4266423500    0.2097178200
 N    0.1208054473    0.0955323332    0.0078547599
 C   -0.8663182798   -0.9120023477   -0.3920452553
 C   -1.5034397430   -1.4207897029    0.9209969041
 C   -0.3243498277   -1.3882203397    1.9229916026
 O    0.1461269216   -2.7201427552    2.0837929334
 C    0.7439832521   -0.4685194131    1.1960083701
 C   -0.7114458759   -0.8366663199    3.2327726003
 N   -0.9765971621   -0.3977601642    4.2695594854
 H    0.3465282925    2.1183588374    0.5021102951
 H   -0.8687818897    1.7831430155   -0.7352080109
 H   -1.2405138791    1.4793344719    0.9771581077
 H   -1.5926705298   -0.4923964415   -1.0913254660
 H   -0.3484638082   -1.7368269454   -0.8961404745
 H   -2.3017695683   -0.7524654748    1.2506252406
 H   -1.9062430928   -2.4332831109    0.8620674038
 H    0.9034750277   -2.7087326958    2.6805092588
 H    1.5556487979   -1.1483245629    0.9081002303
 H    1.1516175447    0.3113158161    1.8420283847