14

 C    0.0055369724    1.4751302465    0.0369978717
 N   -0.0128725173    0.0270637968    0.0504753812
 C   -0.0957598388   -0.8329533577   -1.0498570704
 N   -0.0942049360   -2.1135643906   -0.7477274220
 C   -0.0060117258   -2.1085951452    0.6217693669
 C    0.0427378951   -0.8354714668    1.1003844675
 O    0.1285150662   -0.8229404618    2.4442343592
 C    0.1265720298   -2.1985759064    2.7181848554
 N    0.0502670677   -2.9864465947    1.6975662954
 H    0.9310722284    1.8583222092    0.4771693487
 H   -0.0568634539    1.8138485623   -0.9985520260
 H   -0.8451903589    1.8819668412    0.5919380345
 H   -0.1538517185   -0.4206871914   -2.0466612043
 H    0.1900662096   -2.4479886412    3.7645804122