19

 C   -0.2514827302    1.5399955411   -0.0628915072
 C    0.0998947973    0.0445518963    0.0265844378
 C    0.7626012311   -0.4873091150   -1.2075543927
 C    2.0192861310   -0.9722209703   -1.3409283759
 N    2.2936707458   -1.5093653018   -2.5931108375
 C    1.1589125445   -1.1915906916   -3.4703793703
 C    0.1298190586   -0.6182622414   -2.5122568827
 N   -1.0905945578   -0.3218524369   -2.7733109387
 O   -1.3612652633   -0.5677350359   -4.1408308946
 H    0.6494255609    2.1455469106   -0.2060186381
 H   -0.9226855782    1.7243959263   -0.9050996173
 H   -0.7467717283    1.8774959649    0.8531171677
 H    0.7527743458   -0.1321725648    0.8892492460
 H   -0.8226139939   -0.5211421336    0.2113537211
 H    2.7804146367   -1.0254984539   -0.5717227397
 H    3.2188536459   -1.3585412741   -2.9681049870
 H    1.4218850528   -0.4579004513   -4.2431601157
 H    0.7742339195   -2.0796379135   -3.9826892623
 H   -2.2928746182   -0.3349835153   -4.2070131429