18

 C   -0.1123112561    1.6010720117   -0.0199340751
 C   -0.0062692134    0.0887198490    0.0122422763
 C    1.2378221425   -0.6128526343   -0.6126615154
 N    2.0509358122   -0.0500678182    0.5332295742
 C    0.7897611422   -0.6065985471    1.1582535838
 C    0.9023066530   -1.8857555950    0.2490921038
 N   -0.2945898767   -2.6493060607   -0.0510489380
 C    2.0584467617   -2.7492902908    0.5446604701
 N    2.9155106142   -3.4960415627    0.7641514811
 H    0.8401990265    2.0754174977    0.2194709718
 H   -0.4331593460    1.9377228538   -1.0118339891
 H   -0.8658356849    1.9437542722    0.6976388982
 H   -0.9473036870   -0.4044659155   -0.2241058058
 H    1.5985931085   -0.6003256435   -1.6425493016
 H    2.8507501622   -0.6566801959    0.7377335723
 H    0.6173566135   -0.5866306055    2.2356850496
 H   -0.1327893704   -3.2583936844   -0.8482441463
 H   -0.5323238921   -3.2529415108    0.7311233307