19

 C    0.2570512328   -0.2315088029    1.5682099074
 N   -0.0815054672   -0.1683863093    0.1502044177
 C    0.9662858432   -0.7606701924   -0.6774783291
 C   -1.4301323598   -0.6630627965   -0.1267382788
 C   -1.9821282465   -0.1300601060   -1.4624421775
 N   -2.0485387658    1.3241642985   -1.3784510029
 C   -1.5270652678   -2.1423313370   -0.0681058261
 N   -1.5497767924   -3.2973325111   -0.0176003717
 H    1.2192833500    0.2630137247    1.7299516150
 H   -0.5000450297    0.2982842777    2.1537937796
 H    0.3351750530   -1.2637339415    1.9514682747
 H    1.1188801748   -1.8348256668   -0.4798072517
 H    0.7333154103   -0.6384667323   -1.7379043984
 H    1.9065454954   -0.2382172705   -0.4800667695
 H   -2.0822603483   -0.2604956998    0.6561406887
 H   -1.3755005180   -0.5253774792   -2.2934553411
 H   -2.9925078910   -0.5318929691   -1.5950221988
 H   -1.1213196517    1.6770165164   -1.1608576122
 H   -2.3239386415    1.7168752173   -2.2721710253