16

 C   -0.1767908935    1.5863040145    0.0340960093
 C    0.0270098662    0.0762051293    0.0193363836
 C    0.7791490429   -0.5287879516   -1.2448550376
 N    1.7919025084   -0.9750177062   -0.2819681785
 N    2.9337769255   -1.6447685045   -0.0885322100
 C    3.0608771328   -1.5605502232    1.2483520711
 C    2.0043289773   -0.8528175880    1.8876183169
 C    1.2001707480   -0.4954576257    0.8200961422
 H    0.7592687941    2.1122609236   -0.1778473350
 H   -0.9191333143    1.8876902335   -0.7122485753
 H   -0.5336132494    1.9174307188    1.0141943682
 H   -0.9187017497   -0.4400946586    0.2113416464
 H    0.2653753006   -1.3433057805   -1.7622161931
 H    1.1446884416    0.2064133597   -1.9673805049
 H    3.9199863876   -2.0150604354    1.7210548045
 H    1.8857313716   -0.6599450657    2.9404167722