15

 C   -0.1241840516    1.4823026672   -0.0401630853
 C   -0.0418756099    0.0324375732   -0.0223922092
 C    0.0191398454   -1.1724975272   -0.0077125890
 C    0.1041514394   -2.5729633060    0.0092269564
 C    1.1712524210   -3.4332768523    0.0076240280
 C    2.6344994907   -3.1638159679   -0.0130802877
 N    0.6388987618   -4.7012035753    0.0300779895
 N   -0.6209247318   -4.6645405162    0.0445688643
 O   -1.0246430953   -3.3078968540    0.0319507249
 H    0.8729288735    1.9330382564    0.0000530004
 H   -0.6176187677    1.8367724747   -0.9517206225
 H   -0.6966770892    1.8534074697    0.8168433564
 H    3.1245720018   -3.5874264892    0.8693229619
 H    3.1039279909   -3.6108831492   -0.8951364330
 H    2.8204628209   -2.0877742638   -0.0295748849