17

 C   -0.2568762911    1.3561468616   -0.1516772318
 N    0.1228295326   -0.0347222133    0.0477296344
 C    0.6796672404   -0.7375280246   -1.0005396157
 C    0.7307595006   -2.0925376661   -1.1844514143
 C    0.1844342365   -3.2404595109   -0.4142577526
 O   -1.1315313040   -2.9617630287    0.0737656078
 O    1.4408098677   -2.3131558186   -2.3523079174
 C    1.7649707760   -1.0858770665   -2.7858479356
 N    1.3454652783   -0.1094717642   -2.0439135101
 H    0.6042142518    1.9176505123   -0.5178629761
 H   -1.0776925824    1.4912652233   -0.8729598221
 H   -0.5636857886    1.7763902226    0.8092627992
 H   -0.5526841557   -0.5917647789    0.5532078415
 H    0.2127751839   -4.1463933728   -1.0365556869
 H    0.7691245198   -3.4496816783    0.4900527604
 H   -1.6805701807   -2.7670807800   -0.6943606206
 H    2.3349615648   -1.0234828468   -3.6996788300