20

 N    0.3151029058   -1.1149173840   -0.0713240945
 C    0.2079157999    0.0366296389   -0.0241892407
 C    0.0536260395    1.4706699498    0.0185184257
 C    0.4211386232    2.1528813565    1.3310755920
 C    1.3344235317    2.2862830299    0.1512590874
 C   -1.0930752388    2.0219614925   -0.8068328358
 C   -1.2091929206    1.6556225262   -2.3144571945
 C   -2.7509131528    1.6042138841   -2.1372874494
 C   -2.5310802869    1.4627638464   -0.6067269100
 H   -0.1899982462    3.0024569818    1.6149182325
 H    0.7350915193    1.5239906238    2.1553058554
 H    2.2748686161    1.7489127505    0.1661560336
 H    1.3579664203    3.2285758008   -0.3848047677
 H   -1.0956268420    3.1107942348   -0.6858260281
 H   -0.7923076406    2.3579145439   -3.0400636274
 H   -0.7967449631    0.6613781157   -2.5096951411
 H   -3.2223387897    2.5570434008   -2.3945729612
 H   -3.2893680935    0.8015679776   -2.6447126659
 H   -2.5049475719    0.4121706860   -0.3028898995
 H   -3.1971776497    2.0070660039    0.0667448491