16

 C   -0.0351481684    1.4767377284    0.0290637068
 C   -0.0178038932   -0.0075625400   -0.0316777460
 C   -0.1020825479   -1.0132595899   -1.1440241623
 C    0.8113652214   -1.9349448735   -0.3062559204
 C   -0.1642662402   -1.9525700186    0.8108651847
 N    0.9152144735   -0.9064943569    0.7889850650
 C   -1.1418487084   -1.0421088548    0.0167765291
 C   -2.5422067789   -0.8986308458   -0.0291966685
 C   -3.7409223769   -0.7745769424   -0.0534077753
 H    0.9195982935    1.8928147931   -0.3100481390
 H   -0.8318247160    1.8706428385   -0.6098738872
 H   -0.2151965730    1.8199453013    1.0531943777
 H   -0.3053768103   -0.9038147566   -2.1998681911
 H    1.6295151167   -2.5971097144   -0.5608503747
 H   -0.3087991446   -2.6268809845    1.6460094022
 H   -4.7966340771   -0.6668697339   -0.0786742010