23

 C   -0.4740873150    1.3205917286   -0.1099600776
 C    0.0726266983   -0.1006007959    0.0609982753
 C    0.8217977579   -0.5668681738   -1.1926411310
 C    0.9929538357   -0.2090093636    1.3025807503
 C    0.3281494773    0.0794499320    2.5687518004
 C   -0.2412949293    0.3127816259    3.6064247608
 C   -0.9066400431    0.5968966156    4.8456147772
 C   -2.2312942770   -0.0723825394    5.1784021037
 C   -0.9948507343   -0.4639728954    5.9319936629
 H    0.3400669836    2.0308292259   -0.3005848148
 H   -1.1670112019    1.3756573853   -0.9558403833
 H   -1.0029858912    1.6493882723    0.7887782461
 H   -0.7761819766   -0.7764693910    0.2285150454
 H    1.6917692739    0.0713863712   -1.3897950209
 H    1.1808332181   -1.5963882557   -1.0876147027
 H    0.1755151043   -0.5254844737   -2.0752071042
 H    1.4225175329   -1.2191438714    1.3406520279
 H    1.8453300413    0.4735318211    1.1719438660
 H   -0.7989837914    1.6184235095    5.1997435350
 H   -2.9792085895    0.5286361036    5.6833602490
 H   -2.6260442584   -0.7694507125    4.4490198067
 H   -0.5490150114   -1.4272247760    5.7150776561
 H   -0.8859708343   -0.1341063123    6.9590804517