19

 C   -0.5307518910    1.2130624930    0.0944361247
 C    0.3609746992   -0.0296176845    0.1763894002
 C    1.0393429794   -0.3358303980   -1.1797631447
 C    1.5418603306   -1.7694423933   -1.3252706635
 O    2.5487595634   -2.1260313439   -0.3857244865
 C    2.1302772338   -2.1550949089    0.9340361689
 O    2.2117543015   -0.8932381447    1.5972274862
 C    1.3941559014    0.1509387592    1.2918723199
 O    1.5286989745    1.1741383449    1.9049460408
 H    0.0527249565    2.0901235089   -0.1973379017
 H   -1.3233063439    1.0587242824   -0.6440804009
 H   -0.9884091715    1.4332179220    1.0608252720
 H   -0.2675337253   -0.8925291797    0.4414133363
 H    0.3065191154   -0.1628862348   -1.9767966951
 H    1.8637963609    0.3662784902   -1.3491912300
 H    0.6955748914   -2.4702840485   -1.2373904592
 H    1.9960174940   -1.9165768320   -2.3087252197
 H    1.1116757666   -2.5618150148    1.0250502185
 H    2.8332055831   -2.7821707373    1.4842404038