15

 C    0.0252283290    1.5015398249   -0.0110060368
 N    1.2859585191    0.7044282791    0.0498279713
 C    0.0165746377    0.0347364631    0.0092641818
 C   -0.5975626802   -1.0009278766    0.9877338935
 O   -1.7003423071   -1.1085043779    0.0260966699
 C   -0.6360328297   -0.9788114608   -0.9700112107
 C    0.2078091627   -2.2359221390   -0.6894570243
 C    0.2333946313   -2.2485097259    0.6462650659
 H   -0.1899105687    2.0753598519    0.8860901752
 H   -0.2324327160    2.0023486002   -0.9412376763
 H    1.7522745051    0.6828721083   -0.8536056954
 H   -0.8971128729   -0.7860973967    2.0114389376
 H   -0.9732011079   -0.7412812694   -1.9782449392
 H    0.6607043010   -2.8960291274   -1.4139301228
 H    0.7188541366   -2.9189132739    1.3392504404