19

 O    0.0805826028    0.7995852952   -1.0855699009
 C   -0.0618035862   -0.2151533477   -0.1347682198
 C    0.1016474264    0.0852870771    1.3924703749
 C   -1.1704240712   -0.7628537727    1.6932602456
 C   -2.4465252560    0.0846704688    1.9236278554
 C   -2.5602486050    0.2336331850    0.4024652464
 C   -3.6727678547    0.6616532842   -0.4439612604
 O   -2.5405213033    1.5214364704   -0.2347021097
 C   -1.4648927794   -0.8120755734    0.1416545942
 H   -0.6878900528    1.3800078977   -0.9993699879
 H    0.6253577975   -1.0159763837   -0.4278344935
 H    1.0329191335   -0.2678313224    1.8401321262
 H   -0.0183096045    1.1453419864    1.6352268870
 H   -1.0344304828   -1.6612922978    2.2928374862
 H   -3.2755780649   -0.4958039234    2.3410117606
 H   -2.3380176858    1.0132211288    2.4911938661
 H   -3.7719651530    0.2584849288   -1.4507450076
 H   -4.5980107048    1.0099624929    0.0128273123
 H   -1.7761440156   -1.7022791241   -0.4077081651