23

 C    0.0490144399    1.4388915369    0.1357752912
 C   -0.0847160083   -0.0830371529    0.2258505373
 C   -1.4809890234   -0.5685791218   -0.1396916101
 O   -1.5180377100   -1.9742497064   -0.0321935420
 C   -2.7828753527   -2.5210710850   -0.3535907973
 C   -2.7000264419   -4.0203226227   -0.2495498048
 C   -2.7888684717   -4.6827170244    1.1118313250
 C   -3.9129746111   -4.8258107987    0.1190922601
 O   -5.1104299101   -4.1269465305    0.3168721859
 H    1.0592401419    1.7621380335    0.4030847941
 H   -0.1567512839    1.7988778521   -0.8784768145
 H   -0.6502418899    1.9422226952    0.8127990266
 H    0.6372490933   -0.5690092103   -0.4405063240
 H    0.1478288356   -0.4263670313    1.2404713301
 H   -2.2324369484   -0.1113596869    0.5290361644
 H   -1.7387830178   -0.2532776823   -1.1668869809
 H   -3.5599241100   -2.1357162530    0.3226287440
 H   -3.0730611927   -2.2268850252   -1.3770108759
 H   -2.0248952993   -4.4774670003   -0.9668858528
 H   -2.1587425492   -5.5388943057    1.3258760302
 H   -2.9657828635   -4.0236569156    1.9556068010
 H   -4.0324148948   -5.7907934152   -0.3736794677
 H   -5.5651058921   -4.5276530295    1.0647661801