18

 O    0.0779142238   -0.0529985751    0.2405439871
 C   -0.0010600570    1.1367361430    0.1048830046
 C   -1.1404882380    2.1843712116    0.0410751437
 C   -0.0056788295    3.2492863255   -0.0700452345
 N    0.9445352559    2.1260789478   -0.0425998859
 C    0.0292308119    4.0989321397   -1.3264795664
 C   -0.8978953033    5.3368084382   -1.3127494281
 O    0.2262616116    6.2379700181   -1.2710297440
 C    1.1617329813    5.1507367369   -1.4075549113
 H   -1.7852059050    2.0963750084   -0.8359116541
 H   -1.7511906434    2.2339621807    0.9437185215
 H    0.0706458368    3.8906109496    0.8175898023
 H    1.9511849344    2.0948587419    0.0300223717
 H   -0.0627823936    3.4591817898   -2.2076066023
 H   -1.5043558628    5.4759276734   -2.2162264978
 H   -1.5441466837    5.4426698243   -0.4317752674
 H    1.8958081883    5.1349395116   -0.5907305985
 H    1.6980284622    5.1865914143   -2.3641570007