20

 C   -0.2041211559    1.3082821400   -0.2969147816
 C    0.1404459991   -0.1420106319   -0.1545026198
 C    0.6466013991   -1.0869955098   -1.2337807196
 C    0.1150169480   -2.1961293873   -0.3030598038
 C   -0.5277340687   -3.4470570666   -0.8366602392
 O   -1.5940171795   -3.1311330641   -1.7142067426
 C    1.0160348631   -2.1589567727    0.9494243516
 C    0.3760111963   -0.8014765664    1.1719653780
 N   -0.8497616125   -1.1510188802    0.3661924527
 H    0.7017280732    1.9180131759   -0.3902410453
 H   -0.8210232128    1.4790976658   -1.1853655562
 H   -0.7629309727    1.6620929491    0.5751121225
 H    0.0343683457   -1.0148248309   -2.1363226792
 H    1.7100469698   -1.0918601055   -1.4964398291
 H    0.1954319507   -4.0366404918   -1.4128853816
 H   -0.8710066715   -4.0703624874    0.0048106301
 H   -2.1639735211   -2.5206720434   -1.2293235419
 H    0.6860338287   -2.8787951314    1.7040497779
 H    2.0999936428   -2.2304477306    0.8135909613
 H    0.2895844381   -0.2518201706    2.1033352058