17

 C    0.0185845187    1.5237396782   -0.0986855198
 C   -0.0295435817   -0.0054646463   -0.0557341392
 C   -1.4508524388   -0.5370144705    0.0586388281
 O   -1.4085647748   -1.9511861841    0.0923568681
 C   -2.6719078402   -2.5491856346    0.1968973438
 C   -2.4847989169   -4.0562491589    0.2217838293
 O   -3.3918984854   -4.8403045954    0.3070175711
 H    1.0490035195    1.8804789417   -0.1809760070
 H   -0.5381322375    1.9177166103   -0.9560612414
 H   -0.4131081019    1.9633086970    0.8072178356
 H    0.4277417481   -0.4264899464   -0.9583581209
 H    0.5517785720   -0.3811778042    0.7939756801
 H   -1.9355110105   -0.1507928675    0.9719947827
 H   -2.0606420228   -0.1967209227   -0.7961356012
 H   -3.2034219081   -2.2439541807    1.1150277579
 H   -3.3282877915   -2.2887551835   -0.6516448268
 H   -1.4203917583   -4.3720678726    0.1531394897