17

 O   -0.1514620019    0.1185427201   -0.6607759293
 C   -0.0545403951    1.1792088806   -0.1429369096
 O   -1.1043624012    1.9930749856    0.3261641517
 C   -0.1348226273    2.8076986504    1.0421005463
 C    0.3124278674    4.2608227782    1.2903676652
 C    1.4003447733    3.4547722516    2.1380221333
 C    0.2415731997    2.4825187750    2.4941960261
 C    2.2029763596    2.5474083428    1.1368328781
 C    1.0000157520    2.2519438634    0.2065549307
 H    0.6351363579    4.8508954104    0.4303125495
 H   -0.3238699447    4.8488539888    1.9542137749
 H    1.9592186445    3.9744382897    2.9145587450
 H   -0.4670264458    2.8940303980    3.2152144122
 H    0.4955849946    1.4489281418    2.7436625197
 H    3.0093605703    3.0621436617    0.6100066496
 H    2.6277447162    1.6840354523    1.6538521284
 H    1.0943833607    2.8269644395   -0.7220428418