22

 C    0.0010716084    1.5577538662   -0.0017553201
 C   -0.0203615291    0.0296655980    0.0809143043
 C   -1.4233162831   -0.5686791568    0.0087954644
 C   -1.4310228589   -2.0936443756    0.0106596301
 O   -2.1391594178   -0.0766874798    1.1684391452
 C   -3.4906008887    0.0010488974    1.0563441129
 O   -4.1244738257   -0.2977644266    0.0661143632
 N   -4.0159963375    0.4684824173    2.2207256587
 C   -5.4376259573    0.6494426752    2.4136310713
 H    1.0243994910    1.9407390673    0.0548698351
 H   -0.4354689411    1.9083965007   -0.9434700915
 H   -0.5726365046    1.9996153377    0.8172670673
 H    0.5653845514   -0.3983352158   -0.7413502427
 H    0.4566911938   -0.3051478168    1.0106864257
 H   -1.9478415699   -0.2026506525   -0.8793878669
 H   -0.8816090138   -2.4754886179   -0.8556990422
 H   -0.9571432370   -2.4822711703    0.9180372730
 H   -2.4563013411   -2.4659954840   -0.0428962247
 H   -3.3720156124    0.6699987669    2.9666104349
 H   -5.6807335435    1.6907115430    2.6544784994
 H   -5.9309512837    0.3795173152    1.4792202499
 H   -5.8220237194    0.0074012414    3.2149629829