19

 C   -0.4368867774    1.5826088541   -0.4986068833
 C   -0.2227752295    0.1553486832   -0.9937418123
 C    0.8292400940   -0.6033697455   -0.2205257759
 O    1.4789992978   -0.1190773542    0.6865173864
 C    1.0807578858   -2.0530751868   -0.6022167082
 O    0.7111817738   -2.4108024511   -1.9466512617
 C    2.0735077708   -2.7918825789   -2.2670350287
 C    2.5702063899   -2.4260295160   -0.8560065194
 O    3.4889594979   -1.3706040945   -0.8546421209
 H   -0.7550586139    1.5925654851    0.5472964649
 H    0.4885476777    2.1605898041   -0.5618600487
 H   -1.2007510160    2.0860439252   -1.0970585086
 H   -1.1500912140   -0.4339448110   -0.9630784778
 H    0.0770179869    0.1224541098   -2.0491681975
 H    0.5755853221   -2.6879855530    0.1407920342
 H    2.1408827632   -3.8492601564   -2.5433680094
 H    2.5049914093   -2.1663339244   -3.0551871772
 H    2.9214285774   -3.2762828219   -0.2579924982
 H    3.3323165542   -0.8599122379   -0.0474795580