21

 C    0.0043901580    1.6127553504    0.4201975322
 C   -0.1255933684    0.1770386664   -0.1122511289
 O    0.4371274955    0.0779083014   -1.3917781175
 C    0.5265450200   -0.8398226324    0.8261934376
 O    1.4277267997   -1.5368506322    0.3995489639
 C    0.0481436576   -0.9410531176    2.2511575318
 C    0.1468932301   -2.3280950145    2.9486922705
 C    0.6922048385   -1.6268780075    4.2195555180
 C    1.0270422411   -0.3892174965    3.3482178189
 H    1.0586009296    1.8819652067    0.5340965791
 H   -0.4460462584    2.2987194125   -0.3012768886
 H   -0.5021696137    1.7409241764    1.3812924822
 H   -1.1995593364   -0.0823028841   -0.1503574690
 H    1.1089419028   -0.6199194357   -1.3171351359
 H   -0.9438865833   -0.4947703491    2.3599455885
 H   -0.7763482322   -2.9047144799    3.0351963842
 H    0.9087485076   -2.9352950695    2.4550187150
 H   -0.1011584475   -1.4113702576    4.9407422263
 H    1.5191512458   -2.1073742111    4.7464843774
 H    2.0585494567   -0.4137412827    2.9878865391
 H    0.8111149768    0.6027351165    3.7502163652