21

 C    0.7448064395    1.4637466010    0.0590305090
 C   -0.0296366259    0.1402125260    0.0145557983
 C    0.3057139194   -0.7369084451   -1.2340778238
 C    1.1533993520   -1.8887791040   -0.7238296225
 O    1.0559954627   -3.1340796001   -1.3597027759
 C    2.4074062180   -1.5768622878    0.0698673426
 C    1.1025884564   -1.9108077680    0.7770271730
 O    1.0008073745   -3.1212495010    1.4566052835
 C    0.2236108954   -0.7729931465    1.2570618030
 H    1.8287413294    1.3138897426    0.0943988560
 H    0.5262319595    2.0733119341   -0.8243032044
 H    0.4666463647    2.0461799337    0.9437587222
 H   -1.0927118585    0.3976664284   -0.0170777519
 H   -0.6050245799   -1.1649012010   -1.6663285838
 H    0.7946630703   -0.1506343204   -2.0215000448
 H    1.7579136100   -3.2057025594   -2.0143747917
 H    3.1462777549   -2.3710180988    0.1080708410
 H    2.8155034010   -0.5720519319    0.0744461271
 H    0.9372209780   -3.8059769729    0.7762430835
 H    0.6612481639   -0.2125302946    2.0903295830
 H   -0.7120326854   -1.2120106943    1.6182306967