19

 C   -0.0491193533    1.4592499075    0.1419507235
 C    1.2838932819    0.7645196178    0.0420383625
 C    2.0257804272    0.3960555048    1.3392761993
 C    1.0545841190   -0.5451945395    2.0043395348
 C   -0.0136431762   -0.8061727322    1.2516787156
 C   -0.9419923726   -1.7279133246    1.9761091286
 O   -0.2730747299   -2.0028898376    3.2142709543
 C    0.9449553381   -1.2516848371    3.3175352294
 C   -0.0116057191   -0.0486431124   -0.0250078593
 H   -0.3704619124    1.8517211825    1.1017636293
 H   -0.3570767732    2.0512853941   -0.7140939284
 H    1.8690649007    0.9352911789   -0.8538681281
 H    2.9892542670   -0.0873000414    1.1280437422
 H    2.2516147921    1.2796927945    1.9502125837
 H   -1.9273195960   -1.2749959350    2.1735975681
 H   -1.1228930401   -2.6744769411    1.4438661014
 H    1.7800874705   -1.9422797270    3.5137827181
 H    0.8877086244   -0.5636061132    4.1771919452
 H   -0.3730586782   -0.4903265190   -0.9471048603