21

 C   -0.1022288442    1.5130386448   -0.2296879871
 C    0.1520233602    0.0471373444   -0.0885916952
 O   -0.8367861564   -0.7383809804    0.6020022690
 C    0.5238293636   -0.7980808922    1.0595339548
 C    1.2488920108   -1.8046666681    0.1622890388
 C    0.8410390657   -0.9330862889   -1.0707093736
 C    0.0282497109   -1.4324390551   -2.2890003835
 C    0.8547959805   -0.4740232522   -3.1912449016
 C    1.9018618791   -0.3630309395   -2.0486982546
 H    0.8091076443    2.0487789010   -0.5123350658
 H   -0.8596248017    1.7065528221   -0.9982275636
 H   -0.4692413889    1.9239087419    0.7147069995
 H    0.7046804109   -0.5430930249    2.0982850478
 H    2.3327689164   -1.8190980682    0.3121070400
 H    0.8598747833   -2.8260868894    0.1974924657
 H    0.2394548235   -2.4833790436   -2.5097852115
 H   -1.0553157766   -1.2996944120   -2.2435318041
 H    1.2026130933   -0.8593227260   -4.1522743406
 H    0.3374408443    0.4732399408   -3.3670683981
 H    2.3207769192    0.6229236419   -1.8276396746
 H    2.7307531015   -1.0646642163   -2.1856354216