16

 O    0.0620120738    1.3941856723    0.1670844056
 C    0.1144144146    0.0194772978   -0.1680927890
 C   -1.2775799900   -0.5982839543   -0.0604951889
 C   -1.5476011016   -2.1146427969   -0.1246113443
 C   -0.9176894697   -2.8171110938    1.0256825702
 C   -2.2355793141   -2.0817975431    1.2662793893
 C   -1.9366560462   -0.6148971631    1.3403949527
 O   -2.1711658564    0.2649606706    2.1260670426
 H   -0.4282071744    1.4710128082    0.9957291364
 H    0.4916627621   -0.0414279423   -1.1949369152
 H    0.8277732743   -0.5244960913    0.4711768589
 H   -1.9569284414   -0.0509865558   -0.7257233978
 H   -1.9041994522   -2.6383212520   -1.0014503257
 H   -1.0189796574   -3.8974565589    1.0417174373
 H    0.0015087733   -2.4567763035    1.4761381859
 H   -3.1075723847   -2.6018278939    1.6413599620