21

 C    0.4538430056    1.0434646504   -0.9546392012
 C    0.1820091846   -0.2303180011   -0.1775946332
 O    0.7372342591   -1.4043365379   -0.8384031659
 C    1.4394082726   -1.7918689952    0.3402281117
 C    2.8888655132   -1.2102590578    0.4558661286
 O    3.3487877721   -0.7205802797   -0.7827559522
 C    2.3454463745   -0.1433794533    1.4759748814
 C    2.8161872915    1.3029578333    1.3942340331
 C    0.8922467744   -0.5938693807    1.1621388473
 H    1.5074182005    1.1038395670   -1.2293260553
 H   -0.1360099454    1.0391761549   -1.8772004680
 H    0.1690095337    1.9279096602   -0.3748960843
 H   -0.9035687257   -0.3631807833   -0.0651112200
 H    1.3097009926   -2.8485312059    0.5888088431
 H    3.6131451255   -1.9100054052    0.8956244303
 H    4.2267135565   -0.3516821767   -0.6430985950
 H    2.5646042296   -0.5186836038    2.4837006238
 H    2.7829263358    1.6945531097    0.3766123135
 H    2.1969780622    1.9509756477    2.0238428022
 H    3.8481179203    1.3927144141    1.7542195613
 H    0.2199183671   -0.6977771067    2.0141924187