23

 C    0.1849192511    1.5238949318    0.0187999652
 C    0.0251841715    0.0023181821    0.0048778017
 C   -1.4402216173   -0.5195564906    0.0170658374
 C   -1.4188336910   -2.0655735309    0.0296885571
 C   -2.1999557163   -0.0089585426    1.2628243000
 O   -1.4756268662   -0.3958411897    2.4218837493
 C   -2.1650177412   -0.0470761910   -1.1683546847
 C   -2.7711516729    0.3349293315   -2.1373183951
 C   -3.5013940573    0.7910303271   -3.3124660021
 H    1.2389691904    1.7971475350   -0.0919311245
 H   -0.3718544973    1.9890698690   -0.8005398658
 H   -0.1658932989    1.9571403604    0.9605381841
 H    0.5111251315   -0.4071365024   -0.8880618232
 H    0.5337274900   -0.4280742120    0.8729264375
 H   -0.9503487067   -2.4227172780    0.9499907500
 H   -2.4345551112   -2.4685172201   -0.0237128657
 H   -0.8573468079   -2.4488940309   -0.8267860988
 H   -2.3060966977    1.0829286703    1.2044530766
 H   -3.2115242313   -0.4414156139    1.2594375398
 H   -1.9652303148   -0.1012968621    3.1946707577
 H   -4.2095334861    0.0315322196   -3.6623576074
 H   -4.0723514608    1.7016901554   -3.0993446423
 H   -2.8214816797    1.0150905620   -4.1419896568