16

 C   -0.0092768328    1.4905307808    0.0680196065
 C    1.3095585754    0.7674248543    0.0221789059
 C    2.0043281564    0.4310961551    1.3454751978
 N    1.0223596859   -0.4435736030    1.9800224716
 N    1.0028724431   -1.0398373245    3.1792856082
 N   -0.0983040439   -1.7482916306    3.2150981197
 C   -0.7841711507   -1.5946965312    2.0420113052
 C   -0.0655687240   -0.7472418190    1.2317312997
 C   -0.0011570583   -0.0216249770   -0.0534030296
 H   -0.3440137858    1.9214125153    1.0063029668
 H   -0.2882047054    2.0560624951   -0.8142934269
 H    1.9341894746    0.8837442308   -0.8543556788
 H    2.9463587981   -0.1041954929    1.1912405981
 H    2.2011371236    1.3067948467    1.9704115176
 H   -1.7242164326   -2.0926308194    1.8718377898
 H   -0.3390184936   -0.4917208505   -0.9676869916