20

 C   -1.1212291872    0.8974158792    0.1128917486
 C    0.2153989521    0.1507993993    0.0715850172
 C    0.7941331104    0.1378032826   -1.3315908518
 C    1.9545427071   -0.4463293038   -1.6340808435
 C    2.5590821401   -0.4521710145   -3.0093977609
 C    2.7295466819   -1.1167137667   -0.5227740333
 O    3.2250294491   -0.1878497046    0.4599234602
 C    2.3454777152    0.5781519528    1.1547724200
 N    1.1000339766    0.7588232936    1.0758770477
 H   -0.9792990224    1.9452388069   -0.1708563067
 H   -1.8413822012    0.4439591405   -0.5763571795
 H   -1.5356763967    0.8748870986    1.1232287333
 H    0.0170574574   -0.8882024464    0.3805943717
 H    0.2286061224    0.6530491323   -2.1060488068
 H    3.5377303111    0.0449124376   -3.0130130823
 H    2.7282152201   -1.4765166744   -3.3664147634
 H    1.9152449342    0.0559151549   -3.7319192680
 H    2.1216778360   -1.8763405970   -0.0146518492
 H    3.6285528280   -1.6078693975   -0.9011944023
 H    2.9097105959    1.1192318769    1.9158587788