18

 C   -0.0492370273    1.5366047354   -0.0239193186
 C    0.0248235773    0.0114008259    0.0332697618
 O    0.7638207695   -0.4756530393   -1.0835441231
 C    1.8348564207   -1.2355075936   -0.6406102103
 O    2.6067040990   -1.7409168330   -1.4105927328
 C    1.8157532183   -1.2669778466    0.8241026314
 C    2.8402092343   -2.0086791336    1.6219233025
 C    0.7568194766   -0.5405196791    1.2364185338
 N    0.2870333286   -0.3307740573    2.5030556300
 H    0.9535808707    1.9680422694    0.0375521635
 H   -0.5078615573    1.8495086783   -0.9648807210
 H   -0.6574730719    1.9347851546    0.7956983422
 H   -0.9887838480   -0.4108200400   -0.0170452516
 H    3.6761839457   -2.2782402853    0.9716516311
 H    3.2325527551   -1.4068053300    2.4513538199
 H    2.4412452633   -2.9364125946    2.0504427754
 H    0.9111162000   -0.5442309843    3.2660219231
 H   -0.2897161146    0.4801990331    2.6625223428