21

 C    0.0309309637    1.5238231550   -0.0007633283
 C   -0.0207423722    0.0010302729    0.0279083048
 O    0.7030739830   -0.4148808005    1.1753879416
 C   -1.4708004240   -0.5259450239    0.0643124579
 C   -1.5303047660   -2.0145203730   -0.0931399022
 C   -1.7205102410   -2.8093851642   -1.3487993605
 C   -2.6213841818   -3.0620282639   -0.1517555063
 C   -1.8207926054   -3.7886900113    0.9201976046
 O   -0.7561407213   -2.8001865447    0.8433952931
 H    1.0705564072    1.8595616876    0.0402867584
 H   -0.4275387491    1.9171759048   -0.9132823542
 H   -0.4942373189    1.9399510998    0.8651467962
 H    0.4590729747   -0.3867575020   -0.8881343524
 H    0.5349411676   -1.3572086131    1.3066066828
 H   -1.9165350528   -0.2266465732    1.0210562345
 H   -2.0558458394   -0.0646296336   -0.7392031919
 H   -2.2002050218   -2.2827580393   -2.1680260952
 H   -0.9760978514   -3.5441121623   -1.6442423995
 H   -3.6975126623   -2.9596251316   -0.1842878654
 H   -2.2875370519   -3.7707117799    1.9109850039
 H   -1.4612234469   -4.7997817934    0.6960538381