22

 C    0.0952521888    1.5598763234   -0.0260451690
 C    0.0793732159    0.0296309953    0.0106277015
 C    0.7336409380   -0.5407627929    1.2733477307
 C    0.7354183748   -2.0646639088    1.3228765235
 O    1.4550350064   -2.5632171355    0.1888740516
 C    2.1038469162   -3.7868785993    0.5118392400
 C    2.2958229703   -3.7649825148    2.0136738804
 N    2.8985510538   -2.4991557850    2.4818764002
 C    1.4314133283   -2.6808338930    2.5247786802
 H    1.1205937480    1.9449335538    0.0059448554
 H   -0.3752429462    1.9425539549   -0.9373213200
 H   -0.4422160223    1.9850126947    0.8295883052
 H   -0.9571192439   -0.3284964634   -0.0556381673
 H    0.5989991414   -0.3715437454   -0.8656236354
 H    1.7730356178   -0.2030054376    1.3499160404
 H    0.2064674362   -0.1694495707    2.1633271240
 H   -0.3038513177   -2.4402948544    1.3018096229
 H    1.4883351523   -4.6576233783    0.2315175977
 H    3.0413163522   -3.8239289439   -0.0529714150
 H    2.4684963760   -4.6870791987    2.5582193816
 H    3.2749203303   -2.6389232645    3.4167078123
 H    0.9161939136   -2.7388036261    3.4776837691