19

 O    0.0429548683    1.4246652513    0.0940573129
 C    0.0066958117    0.0136192792    0.0025341682
 C   -1.4146394839   -0.4727112295   -0.0282722995
 C   -2.4754934939    0.3323117535    0.0121533439
 C   -3.8725462991   -0.2271066098   -0.0602875578
 O   -3.9501053849   -1.4485524890   -0.7897382611
 C   -3.0080253181   -2.4124333965   -0.4223406189
 C   -1.8894049116   -2.6708334219   -1.3945231046
 C   -1.6216759087   -1.9458428467   -0.0799157631
 H    0.9632775783    1.7008066891    0.0930777183
 H    0.5239135622   -0.3464095269   -0.9042995723
 H    0.5260964821   -0.4560899428    0.8574294103
 H   -2.3534827478    1.4066340732    0.0864954158
 H   -4.2877660968   -0.3575210236    0.9545465892
 H   -4.5361787234    0.4653275621   -0.5879924231
 H   -3.4299094476   -3.2527649009    0.1267314656
 H   -1.5159989096   -3.6830057137   -1.5082712145
 H   -1.9021594403   -2.0718481349   -2.2979811903
 H   -1.0838030367   -2.5183038321    0.6724918209