18

 O    0.0348927635    1.1626228553   -0.9260635021
 C    0.0479737207    0.1781783801    0.0921084613
 C   -1.3177828486   -0.4658779464    0.2593105851
 C   -1.8671018283   -1.3029851739   -0.8598832272
 O   -0.9883251616   -1.4970019580   -1.9350793028
 C   -1.5449922978   -1.9596940532    0.4633052638
 C   -0.4089563870   -2.9730826341    0.5372796806
 C   -0.7362123108   -4.1791824456   -0.2282818026
 N   -1.0196306076   -5.0998784424   -0.8674542847
 H   -0.1546915081    0.6952949964   -1.7483135249
 H    0.8222564172   -0.5739578652   -0.1052944189
 H    0.3292323419    0.6949266361    1.0152936810
 H   -2.0418147846    0.1755594197    0.7527338778
 H   -2.9124808668   -1.1868888062   -1.1395952444
 H   -1.1573572397   -2.3637109026   -2.3226890986
 H   -2.3991450050   -2.2286630600    1.0773381164
 H    0.5201896552   -2.5690114333    0.1296815904
 H   -0.2063114426   -3.2523486664    1.5765116999