18

 C    0.1897877295    1.2557120624   -0.2329412490
 O   -0.1694850961   -0.0729047327    0.1324124179
 C    0.5303158592   -0.5562997505    1.1870722957
 C    1.9803146068   -0.8653378948    1.4488770533
 N    2.0247015215   -0.0523677521    2.6637573472
 C    0.5444234030   -0.2377153260    2.7541378012
 C    0.2868040225   -1.7570122863    3.0057387180
 C    0.8519336023   -1.9620469317    1.6028390529
 O    0.7948842210   -3.0789899169    0.8012830873
 H    1.2523679598    1.3171054392   -0.4986300073
 H   -0.4217891166    1.5193020797   -1.0978803333
 H   -0.0111094414    1.9613783003    0.5834305936
 H    2.8070622094   -0.9969393049    0.7612241678
 H    2.5156176212   -0.5010029095    3.4402998997
 H   -0.0223368245    0.5213099245    3.2901165908
 H    0.7959212190   -2.2076963892    3.8671948612
 H   -0.7813846960   -1.9869960111    3.0365498663
 H    1.5280534995   -3.6602992203    1.0321539369