15

 N   -0.1587413239    1.3745274018    0.0078659194
 C   -0.0824631807    0.0230926759    0.3173913381
 O    0.6895007176   -0.4395562951    1.1252163618
 N   -1.0189942925   -0.7421955039   -0.3773678470
 C   -1.1450948061   -2.1123584389   -0.1772986202
 C   -2.0960997036   -2.8766553846    0.4236139422
 C   -1.6906867118   -4.2373886952    0.2362266848
 C   -0.5214077916   -4.1881810652   -0.4534967991
 O   -0.1810283910   -2.9028920611   -0.7284938978
 H    0.6308477474    1.8936182894    0.3611922072
 H   -0.4256326461    1.6267221803   -0.9320925239
 H   -1.7845258180   -0.2660220392   -0.8276331774
 H   -2.9648091091   -2.5130477336    0.9488968412
 H   -2.1957941927   -5.1251263395    0.5827422539
 H    0.1683939821   -4.9382488709   -0.8029411832