22

 C    0.0718383596    1.5381584777    0.1349805542
 C   -0.0418680832    0.0240449031   -0.0719244521
 C   -1.4879998884   -0.5088114005   -0.0776183911
 C   -2.2326106530   -0.1385217350   -1.3741711996
 O   -3.6293663617   -0.3296451178   -1.2995761367
 C   -1.4692307315   -2.0239265683    0.1345945044
 O   -2.7959512659   -2.5314222636    0.1586070281
 C   -2.8526481686   -3.9332416597    0.3001033072
 H    1.1204396853    1.8510997652    0.1493320820
 H   -0.4270958656    2.1011722435   -0.6593795119
 H   -0.3792467925    1.8388125806    1.0867394714
 H    0.4500391014   -0.2583955970   -1.0129272846
 H    0.5210833953   -0.4819769595    0.7230514899
 H   -2.0410002644   -0.0582136417    0.7574709685
 H   -2.0813787643    0.9214333605   -1.6032198556
 H   -1.7863202151   -0.7104802888   -2.2094180403
 H   -3.7567790949   -1.2126366468   -0.9283498713
 H   -0.9006674812   -2.5099567206   -0.6779708219
 H   -0.9625242297   -2.2735100485    1.0813703232
 H   -2.3554314558   -4.4466338050   -0.5369786622
 H   -2.3773541693   -4.2599698959    1.2372461016
 H   -3.9065947168   -4.2194706221    0.3184879869