25

 C   -0.2623619782    1.5445562216   -0.0032589244
 C    0.0350758143    0.0453326572    0.0030181024
 C    0.7736160150   -0.4845348000   -1.2707942038
 C    1.9486601630   -1.3294658686   -0.7082775802
 C    2.5156164029   -2.3493050146   -1.6832821793
 C    2.9964539483   -0.3370152127   -0.1393942478
 C    2.3081094073    0.2366532025    1.1384091910
 C    0.9389783254   -0.4807216162    1.1497979511
 C    1.3225652693   -1.8694775958    0.6020812397
 H    0.6410297454    2.1424584418   -0.1628862896
 H   -0.9627392997    1.7965717095   -0.8069719257
 H   -0.7139816587    1.8668425373    0.9419409753
 H   -0.9249411223   -0.4786269048    0.0907366932
 H    0.1104075626   -1.1010803182   -1.8870336050
 H    1.1351933270    0.3306766200   -1.9079202795
 H    2.9370121469   -1.8606536943   -2.5696609731
 H    3.3154169770   -2.9394574267   -1.2214696237
 H    1.7416457090   -3.0445710917   -2.0277290571
 H    3.9226520185   -0.8641250717    0.1137045521
 H    3.2567043420    0.4377279337   -0.8680002385
 H    2.8760458626   -0.0202777271    2.0379730557
 H    2.2181561124    1.3254083258    1.1235602423
 H    0.4452952403   -0.4638460972    2.1248090153
 H    0.4594306211   -2.5212327362    0.4276838340
 H    2.0435504086   -2.4036429036    1.2308782756