17

 C    0.0301041080    1.6060995240   -0.0101081561
 C    0.0096494379    0.0677758758   -0.0032836902
 C    0.7008436007   -0.4765357687    1.2840974976
 O    2.0446381049   -0.0937189683    1.3837325702
 N   -1.3500375805   -0.4684754041   -0.0170844912
 C   -2.2505099566   -0.2389664771   -1.0208954969
 O   -2.0734545133    0.5034036066   -1.9584231223
 C    0.7917281709   -0.4536972592   -1.1495098810
 N    1.4773102117   -0.8915626898   -1.9708421619
 H    1.0567321676    1.9506592176    0.1267274430
 H   -0.3740520823    1.9908963338   -0.9447990582
 H   -0.5807516498    1.9691678814    0.8213212005
 H    0.1820405002   -0.0477698602    2.1473364250
 H    0.5791232585   -1.5712442634    1.3138319434
 H    2.5390171982   -0.5328142365    0.6806414136
 H   -1.5508940342   -1.2304629528    0.6140845711
 H   -3.1850996919   -0.8125882392   -0.8648111265