18

 C   -0.0282822877    1.3760839747    0.1647581494
 N   -0.1607643086   -0.0722951495    0.2549861638
 C    0.5930722622   -0.7114991893    1.0220262533
 O    1.6315740590   -0.2981659654    1.8409489775
 C    2.0586359169   -1.6783079759    2.0906437910
 C    1.4496807129   -2.2210011203    3.3934175364
 C    0.1987864079   -2.7171723643    2.6020670650
 C    0.8026674603   -2.1855768587    1.2724463691
 O    0.7390817464   -3.0513499101    0.1973597677
 H    0.8827374048    1.7668966957    0.6328889025
 H   -0.0432861192    1.6703431505   -0.8894250443
 H   -0.8941361042    1.8492031789    0.6419727742
 H    3.1075739931   -1.8233923018    1.8356367016
 H    2.0293499608   -3.0327543874    3.8384015225
 H    1.2768581374   -1.4512442455    4.1473260085
 H    0.1304071113   -3.8062312319    2.5623105581
 H   -0.7748158436   -2.3109499757    2.8821045880
 H    0.6788577102   -2.5212725641   -0.6064067442