16

 C    0.0184073580    1.3934678512    0.0519604994
 O   -0.0078245906   -0.0297895031    0.0164393268
 C   -1.2260274537   -0.6169031401    0.0012281250
 N   -2.3183691872    0.1311461064    0.0193931063
 C   -3.5080988388   -0.4797797519    0.0036059932
 C   -3.6534943593   -1.8615888629   -0.0309418822
 O   -4.9160180079   -2.3816743618   -0.0445086474
 C   -2.4920201099   -2.6411824333   -0.0498637793
 C   -1.2578539579   -2.0178109652   -0.0337412940
 H    1.0749409998    1.6663447606    0.0592533684
 H   -0.4771064547    1.8219929392   -0.8246164002
 H   -0.4779204099    1.7777588932    0.9483608963
 H   -4.3929005557    0.1508451284    0.0189377401
 H   -4.8626453211   -3.3422974300   -0.0683583267
 H   -2.5580426885   -3.7260187130   -0.0769669933
 H   -0.3321599028   -2.5796091277   -0.0473341924