16

 N    0.4780319291    0.4767964396   -0.6869041807
 C   -0.3077218972    0.3155304041    0.4152958205
 O   -0.1863479762    0.9711047145    1.4304818630
 C   -1.4080452761   -0.7388526521    0.2841075737
 C   -2.1801515332   -0.7332389674   -1.0663917299
 N   -1.2646601632   -1.7952050067   -1.5556180854
 C   -0.9402166856   -2.1699413886   -0.1609035760
 C    0.4354058487   -2.6079497812    0.0738857981
 N    1.5165124338   -2.9735540206    0.2547729287
 H    1.2888043977    1.0674861821   -0.5952161160
 H    0.4360944003   -0.1850289272   -1.4479139639
 H   -1.9971827637   -0.7057137100    1.1968702035
 H   -3.2208039836   -1.0586130562   -0.9397613351
 H   -2.1547852263    0.1883767051   -1.6522154140
 H   -1.6695445782   -2.5292615073   -2.1271987187
 H   -1.6147801664   -2.9246510980    0.2674934420