14

 N    0.0212372476    1.3433220715    0.2376523090
 C   -0.0416611430   -0.0277376793    0.0530613711
 C   -1.1045116221   -0.8625780572   -0.0800256492
 O   -0.5918612073   -2.1612887000   -0.1663081174
 C    0.7311571872   -1.9850643950   -0.0688436849
 O    1.5349293081   -3.0515089539   -0.1564216226
 C    1.0300675605   -4.3004444068    0.1118312143
 N    1.7598970484   -5.2929221304   -0.1293877321
 N    1.1385374626   -0.7683258330    0.0609136243
 H    0.9188078005    1.7203794112   -0.0339902192
 H   -0.7415103155    1.8605124866   -0.1747909301
 H   -2.1731378335   -0.7663591559   -0.1200085915
 H    0.0218237134   -4.2790657975    0.5281821604
 H    1.2805295231   -6.1507815803    0.1372563880