18

 C    0.0185962539    1.5410424538   -0.1988820410
 C   -0.0055295069    0.0456913635    0.0272211352
 C    1.2702311136   -0.7854998973   -0.0389395908
 C    0.5487320818   -0.5718227823    1.2661991142
 C    1.1629277657    0.1729543668    2.4570551953
 O    0.9108027422   -0.6844835865    3.5679352201
 C    0.5218793567   -1.9275207967    3.0280382218
 O   -0.1670838338   -1.6466037277    1.8347066588
 H    0.9310947168    1.9952275242    0.2018511446
 H   -0.0191828757    1.7735054081   -1.2684342233
 H   -0.8351735563    2.0322687332    0.2804636161
 H   -0.8907341970   -0.4594189791   -0.3508136322
 H    1.2099115523   -1.7703035016   -0.4884735683
 H    2.2109008676   -0.2640826822   -0.1948620273
 H    2.2406911140    0.3358435100    2.3236298604
 H    0.6835012926    1.1375485409    2.6556554132
 H    1.4068872673   -2.5591497460    2.8268985121
 H   -0.1544394949   -2.4292698712    3.7251555310