15

 O   -0.1256853946    1.3913784820   -0.0428251560
 C   -0.0766421174    0.0037919158    0.0419641661
 C   -0.4641979071   -0.7630856065    1.2835752755
 C   -1.5756367673   -0.0622279023    2.0309765351
 N   -2.8388815041   -0.7857537469    2.0036783622
 C   -2.4418312160   -0.0652032556    0.7871875612
 C   -3.3120384645    0.9537348715    0.2797594298
 N   -4.0133128664    1.7627056892   -0.1563477417
 C   -1.3529149321   -0.7710032635    0.0020626174
 H    0.6489277716    1.7531370065    0.4009433956
 H    0.7344724402   -0.4606278651   -0.5231574790
 H    0.1378578296   -1.5739243819    1.6783963487
 H   -1.4729010663    0.7402625731    2.7501049307
 H   -2.7127296660   -1.7901496934    1.8943363184
 H   -1.5268394995   -1.5768261730   -0.7015037840