17

 O   -0.0077901315    1.3272761249    0.3331805761
 C   -0.0601674275   -0.0539922071   -0.0061363348
 C    0.6170480473   -0.9422488004    1.0562566625
 C   -0.3963439753   -0.9824973889    2.2201626816
 C   -1.7667167673   -0.9966208736    1.5180651493
 C   -1.5389657532   -0.4208924578    0.1010871863
 O   -1.8241044047   -1.7339089734   -0.4862340459
 C   -2.0736587779   -2.2864136351    0.7509136826
 O   -2.3963597437   -3.4044256255    0.9906989288
 H    0.9169451262    1.5879544964    0.3841597111
 H    0.3259300984   -0.2332362443   -1.0184263604
 H    0.7745285330   -1.9447339651    0.6440090758
 H    1.5973543883   -0.5556632463    1.3510280709
 H   -0.2588333546   -1.8410670287    2.8815933655
 H   -0.3161234770   -0.0733366385    2.8220526607
 H   -2.5937758050   -0.6181294645    2.1178339721
 H   -2.2102734754    0.3416813080   -0.2917976822