18

 O    0.9629918441   -0.8178147671    0.5741544710
 C    0.0942142875    0.0469012998   -0.1360208485
 C   -1.3515795794   -0.4114915279   -0.0616234893
 N   -2.1195983261   -0.3296874240    1.2392540991
 C   -2.0111867614    0.9907684368    1.9629036015
 C   -3.3811394651    1.4643490004    1.4133946990
 C   -3.3429048849    0.2121950850    0.5136165720
 C   -2.4945145168    0.3468732319   -0.7664371340
 O   -2.6375370262    0.8833636256   -1.8243761454
 H    0.6188008158   -0.9075516102    1.4692034069
 H    0.2009942338    1.0893718560    0.1983135428
 H    0.4084712793    0.0180760610   -1.1842095466
 H   -1.3801586262   -1.4632722302   -0.3802686942
 H   -1.9572312041    0.8509095075    3.0452737558
 H   -1.1655568607    1.6142746514    1.6564501065
 H   -4.1847042159    1.4343633119    2.1509608491
 H   -3.4091483138    2.4256570535    0.8972164629
 H   -4.2316491598   -0.4201256012    0.4385061115