18

 C   -0.0223508548    1.5656580742   -0.0055953328
 C    0.0888162923    0.0595569875   -0.0620182469
 O   -1.0498625937   -0.6056940514    0.4236096012
 C    0.6994449462   -0.7254993666   -1.1714223222
 C    1.9262870330   -0.0250235400   -1.7816234926
 C    2.5490194756   -0.0431205296   -0.3871848914
 N    3.6861653844    0.2372838819    0.0991250642
 O    4.5183238419    0.8117983579   -0.8858078471
 C    1.3798247615   -0.7124227822    0.2331254647
 H    0.8755122057    2.0615340318   -0.3796506785
 H   -0.8833771541    1.9041497070   -0.5907036843
 H   -0.1659385221    1.8946367807    1.0309588620
 H   -1.1671937517   -0.3540789898    1.3465434555
 H    0.1524145118   -1.5422519718   -1.6234999719
 H    2.4899942471   -0.6709315852   -2.4608584341
 H    1.7754958375    0.9434169673   -2.2660756439
 H    5.3394438625    0.9443355478   -0.4007710387
 H    1.3928298267   -1.4689276696    1.0072158469