19

 C   -0.1879127585    1.5349489562    0.0210877233
 C    0.0556244778    0.0271237836   -0.0190937439
 N    0.7254304601   -0.3872253613   -1.2762925029
 C    1.0223409068   -1.8646803282   -1.1802478332
 C    2.2789664840   -1.5084434901   -0.3564296238
 C    2.2162431443   -0.1728205493   -1.1314332688
 N    1.8579054696   -1.2551888647    1.0177243147
 C    0.7837491848   -0.4451582460    1.2695469439
 O    0.4217376210   -0.1339304152    2.3876432047
 H    0.7504933709    2.0951909369   -0.0450370003
 H   -0.8220685765    1.8325382372   -0.8172221937
 H   -0.6720394907    1.8004632441    0.9627908691
 H   -0.9204150045   -0.4744682592   -0.0062099216
 H    0.2534490614   -2.4698734261   -0.6929173058
 H    1.2457896585   -2.2643419069   -2.1732087461
 H    3.1704153488   -2.1396541753   -0.3711964936
 H    2.6891055672   -0.2098584694   -2.1163780160
 H    2.5221053515    0.7325609449   -0.6023252367
 H    2.4073478535   -1.5624678913    1.8051226308