15

 C   -0.3217260812    1.4375019316    0.0218952977
 C   -0.0339251365   -0.0481224865   -0.0433208543
 C    0.9439625176   -0.5868518856   -1.0156110206
 N    1.2629806362   -0.5811935246    0.4253668306
 C   -1.1360815536   -0.9862355620    0.3962330664
 O   -1.5965715639   -1.8697533654   -0.2870269440
 C   -1.6684311842   -0.8583565935    1.8336475719
 O   -1.3475253627    0.0006316310    2.6109304925
 H    0.5487375503    2.0003098323   -0.3309777422
 H   -1.1696175614    1.7024376907   -0.6194164687
 H   -0.5512403638    1.7477804824    1.0432674009
 H    0.7885102046   -1.5707159987   -1.4456019253
 H    1.4481076163    0.1266000545   -1.6618294229
 H    1.8845904812    0.1900673473    0.6598153930
 H   -2.4006785389   -1.6583786235    2.0740822950