20

 C   -0.2204799609    1.5149075532   -0.1774314134
 N   -0.0910841677    0.1001949416    0.0932976807
 C   -1.2553399463   -0.6332697182    0.6226651249
 C   -0.2890382055   -1.5207619990    1.4443595916
 C    0.7809048132   -0.4671436714    1.1188644650
 C    2.2971785335   -0.7794964326    1.0030690485
 C    2.6478329969    0.7043104991    1.2561707478
 C    1.5553371025    0.2773128833    2.2647795281
 O    2.2931423027   -0.9892283159    2.4726753949
 H    0.6653615190    1.9040773765   -0.6882714129
 H   -1.0719071804    1.6641945127   -0.8496569733
 H   -0.3953399767    2.1256448844    0.7272146683
 H   -1.9080386835   -0.0163459220    1.2607647163
 H   -1.8704828977   -1.1169683986   -0.1438149514
 H   -0.5217177105   -1.6618860875    2.4990374675
 H   -0.0907287998   -2.4914260056    0.9860684587
 H    2.8111950934   -1.5217201909    0.3908508610
 H    3.6310512536    0.8648095227    1.7011449617
 H    2.4050215633    1.4416566886    0.4899592183
 H    1.1922442409    0.7924030196    3.1554941780