13

 O   -0.0428364744    1.4360385850   -0.0191520038
 C   -0.0113861265    0.0665721539   -0.0401512365
 C    0.5937389114   -0.8090883022   -1.1416051272
 O   -0.5111201948   -1.7537422747   -1.0086648318
 C   -1.1343264996   -0.9231753142   -0.0474525811
 C   -0.2707943765   -0.7881022052    1.2075563485
 C    0.6222689986   -1.8182063135    1.6548000812
 N    1.3635513203   -2.6365415819    2.0004748389
 H    0.7357438087    1.7611819304    0.4483715421
 H    0.5627635208   -0.3191938078   -2.1192402249
 H    1.5662830912   -1.2764692832   -0.9632479251
 H   -2.2147830106   -0.8487385919   -0.0314979002
 H   -0.7581587486   -0.2161913947    1.9922866399