15

 C    0.0043211123    1.5170411555    0.0470702463
 C    0.0427784323    0.0042661949   -0.0862026449
 C   -1.1338707973   -0.6361637319    0.4766035954
 N   -2.0980045165   -1.1098626059    0.9018866834
 C    0.6930568759   -0.7518822252   -1.1881470492
 C    1.9265071094   -0.0510712402   -1.7490175202
 C    2.4106099558   -0.0232553921   -0.2894138301
 O    3.3676363383    0.3676390380    0.2935417792
 N    1.2797956148   -0.8056900348    0.2222734162
 H    0.8609033960    1.9966863376   -0.4279956665
 H   -0.9092743672    1.9027805177   -0.4133111212
 H   -0.0003684615    1.7957063720    1.1041145321
 H    0.2327836851   -1.6360639699   -1.6112397890
 H    2.5477505504   -0.7159177842   -2.3548165411
 H    1.8077001024    0.9015010185   -2.2689739204