19

 C    0.0106275567    1.5123476449   -0.0197487196
 C    0.0170071332   -0.0171432720    0.1026093941
 C    0.7993739691   -0.4985749603    1.3300000175
 C   -1.4088635318   -0.5537460321    0.0913612808
 O   -1.4207358244   -1.9666188782    0.0818744276
 C   -2.5609661122   -2.3783423712    0.8070116647
 C   -2.8858501818   -1.1932715161    1.7089035555
 O   -3.6443816218   -1.1281830699    2.6282400045
 O   -2.1297742545   -0.1541533239    1.2688398948
 H    1.0335811608    1.8944067115   -0.0799969251
 H   -0.5237158092    1.8436990710   -0.9165598117
 H   -0.4717268539    1.9702014501    0.8492177171
 H    0.4796440668   -0.4403489672   -0.7991434922
 H    0.3692371537   -0.0925320655    2.2504513991
 H    0.7913577482   -1.5890415241    1.3977885332
 H    1.8397279246   -0.1668226430    1.2689455688
 H   -1.9673964802   -0.1618410815   -0.7748277101
 H   -3.4212604741   -2.5915041210    0.1540560263
 H   -2.3326158994   -3.2719678014    1.3919340548