17

 C    0.2966086280    1.3144163512    0.0420887622
 N    0.0023436449   -0.0981707101   -0.0385030028
 N   -0.4785536077   -0.6467970956   -1.1908728015
 C   -0.6355669623   -1.9348871236   -0.9084865061
 C   -0.2771609090   -2.2471611736    0.4214134499
 C   -0.2945397364   -3.5121002328    1.2165363470
 O    0.7810650173   -3.5286330426    2.1799549452
 C    0.1250664832   -1.0236999187    0.9363044251
 O    0.5947894512   -0.7019788122    2.1560263553
 H    0.8683024736    1.6149921569   -0.8382892822
 H   -0.6240809677    1.9049373883    0.0855385094
 H    0.8828929012    1.4964492694    0.9437398741
 H   -1.0070870062   -2.6042518634   -1.6721809597
 H   -1.1987692291   -3.6091574898    1.8289329219
 H   -0.2494147401   -4.3963735134    0.5672749782
 H    1.6046828243   -3.5626669220    1.6792266020
 H    0.7583432448   -1.5552510081    2.5971242020