15

 N    0.0359979936    1.3926729725    0.1572032943
 C   -0.0459737507    0.0223836146    0.0614423028
 C   -1.2208757230   -0.6854045051    0.0702705669
 C   -1.1096351977   -2.1051891866    0.0400372995
 N   -2.2490116258   -2.8569990262    0.0949522035
 N    0.0273881638   -2.7765445170   -0.0136053191
 C    1.2088644107   -2.0993407150   -0.0204071101
 O    2.3207381758   -2.5859436276   -0.0534567769
 N    1.1186507981   -0.6676400594    0.0089131111
 H    0.8418698254    1.8278296586   -0.2670392720
 H   -0.8218362505    1.8889500751   -0.0289038090
 H   -2.1773032298   -0.1825354855    0.1133735002
 H   -3.1313503643   -2.4387621378   -0.1442445286
 H   -2.1319500341   -3.8360399273   -0.1131559072
 H    2.0106757786   -0.1973813034    0.0543509345