21

 C    0.6561232520    1.0960547979   -0.2598802346
 O    0.6506656324   -0.3056824369   -0.0620347047
 C    0.5352680211   -0.6815516958    1.2903732430
 C    0.4756693529   -2.2124101151    1.3587821648
 C    1.9446782996   -2.6191079561    1.5084556523
 C    2.8446725830   -2.5661546592    0.2353895446
 C    3.6055674974   -1.3417708887    0.8237604827
 C    2.6400114755   -1.3292818521    2.0407570906
 O    1.6570425854   -0.2961861659    2.0595150525
 H    1.5071490738    1.5721309983    0.2410574840
 H    0.7241916257    1.2685080755   -1.3362952882
 H   -0.2715430587    1.5540134647    0.1167340637
 H   -0.3297755945   -0.1708808717    1.7378980312
 H   -0.0986467857   -2.5101868135    2.2411148995
 H   -0.0095287459   -2.6254412348    0.4721774457
 H    2.0718511364   -3.5170056486    2.1148460741
 H    3.4567236360   -3.4562564298    0.0736913000
 H    2.2926587648   -2.3471842946   -0.6797231274
 H    4.6413410439   -1.5540264145    1.1023352032
 H    3.5827848273   -0.4296874348    0.2254860579
 H    3.1079973877   -1.3446147341    3.0280215449