19

 C   -0.4767063801    1.5106115605   -0.0213124765
 C    0.1558072353    0.1296866689   -0.0330386081
 O    1.2333892791    0.1228127167   -0.9984137792
 C    2.2087732123   -0.7581553788   -0.6344690491
 O    3.1646359947   -0.9718199946   -1.3212148268
 C    1.8481523780   -1.3615155886    0.7175030202
 C    0.7879466280   -0.4017991201    1.2743447264
 C    1.4255923446    0.6815318233    2.1458123747
 O    2.0314472821    0.0255486239    3.2491185425
 H    0.2494380074    2.2833580407    0.2432698709
 H   -0.8741345366    1.7467473522   -1.0117049861
 H   -1.3030448307    1.5431344575    0.6956670060
 H   -0.5893961415   -0.6004094910   -0.3780756227
 H    1.4441856826   -2.3653272679    0.5441121789
 H    2.7273980910   -1.4628582757    1.3531889951
 H    0.0381539852   -0.9208668755    1.8777205286
 H    2.1681905873    1.2476554037    1.5609298744
 H    0.6580828463    1.3928219343    2.4839921076
 H    2.5067277650    0.6807665403    3.7680516133