17

 O   -2.2827150222    0.2599417955    1.9406907676
 C   -2.7545074345    0.1207183456    0.5903804890
 C   -1.7097851897   -0.4961748459   -0.3407005270
 C   -1.2241573821   -1.8842698115    0.1163372775
 O   -0.6471322832   -1.9040196693    1.4069833839
 C   -2.3684498843   -2.9166993777    0.0660451939
 O   -3.3232110489   -2.8467350491   -0.6605266703
 C   -0.1210071043   -2.3771226481   -0.8384540655
 O   -0.1852141111   -2.3130034634   -2.0351228051
 H   -1.6364552201    0.9743525508    1.9588064307
 H   -3.6374721211   -0.5194453824    0.6545437985
 H   -3.0794600556    1.0924758258    0.1981017324
 H   -2.1320794143   -0.6059667932   -1.3432020729
 H   -0.8422198163    0.1700238060   -0.4207968391
 H   -1.1623634751   -1.2835713282    1.9491275912
 H   -2.2267998093   -3.7412558257    0.7979291356
 H    0.7556591521   -2.7906830492   -0.2954088004