20

 C   -0.1190172835    1.4995924269    0.0506284298
 C   -0.0042959924   -0.0131896897    0.0371679714
 C   -1.2433195186   -0.7319192369   -0.4630301824
 C    1.3548648155   -0.6248341746   -0.2919475619
 C    0.8253504178   -0.6714162079    1.1080467762
 C    1.4466739501    0.0056126076    2.3374045646
 N    1.2937792371   -0.9800972031    3.4228326388
 C    0.7170876411   -1.9775848711    2.8970515556
 O    0.3873290210   -1.9578367020    1.5839191886
 H    0.7995176738    1.9810344714    0.3993391564
 H   -0.3243933654    1.8748946595   -0.9583469991
 H   -0.9382171072    1.8303990858    0.6997290140
 H   -1.4580668424   -0.4488794977   -1.4996820759
 H   -1.1264740315   -1.8163756205   -0.4188616292
 H   -2.1182563017   -0.4672264989    0.1418656269
 H    1.3660041727   -1.5571037901   -0.8470630087
 H    2.1921903015    0.0369244303   -0.4958066577
 H    2.5077617532    0.2417822577    2.1972258950
 H    0.9393138097    0.9372538077    2.6119855916
 H    0.4462196094   -2.8930162646    3.4111883056