19

 C   -0.2464882817    1.4899143166   -0.0426783699
 C    0.0974957887   -0.0101106439    0.0263909619
 C    0.7904522896   -0.5455015092   -1.1829562229
 C    2.0973087535   -0.8692380778   -1.4126590747
 N    2.2925630104   -1.3160229548   -2.7102921520
 C    1.1043565137   -1.2581460510   -3.2439371591
 O    0.7745400510   -1.5996305899   -4.5056362450
 N    0.1395651252   -0.8072995563   -2.3986330174
 C   -1.2673506395   -0.6632219267   -2.7119892438
 H    0.6582277437    2.0843116795   -0.1998427812
 H   -0.9346840981    1.7105216974   -0.8648666204
 H   -0.7209203941    1.8230481994    0.8860563897
 H    0.7566304795   -0.1869880169    0.8829287659
 H   -0.8177455054   -0.5826579269    0.2312962817
 H    2.9185058540   -0.8110000237   -0.7140348806
 H    1.5906808800   -1.9134145876   -4.9145348212
 H   -1.8814125996   -1.0751947760   -1.9065438418
 H   -1.5441513972    0.3859323451   -2.8620913040
 H   -1.4772279636   -1.2133530673   -3.6296338350