13

 C   -0.0361597479    1.4794882370    0.0248654889
 C   -0.0102187923   -0.0146047394   -0.0201106743
 N   -0.0510193072   -0.5686594082   -1.1755712779
 O   -0.0239192884   -1.9911890328   -1.1696566367
 C    0.0404294077   -2.6413986942    0.0039173953
 O    0.0573757868   -3.9550527708   -0.1773976875
 N    0.0834016819   -2.1494913205    1.1844162443
 C    0.0614543657   -0.7680606661    1.2797123227
 O    0.0964756869   -0.1651464364    2.3286013314
 H    0.8591702970    1.8447981438    0.5366883111
 H   -0.0918041944    1.8972390533   -0.9808236621
 H   -0.8915507878    1.8118481761    0.6204634383
 H    0.0188878221   -4.1418559718   -1.1263071735