15

 C    0.0658538916    1.3594921017   -0.1828283227
 C    1.4977813600    1.8705709246    0.2038570658
 C    2.0914689217    0.5539902865    0.5855728277
 C    1.1200041625   -0.3949762468    0.7109870752
 O   -0.1378651544    0.0466765942    0.4003992020
 C    1.6835723033   -1.5907177202    1.2122583486
 C    3.0291264568   -1.3051075967    1.3869649369
 N    3.2701460170    0.0012801990    1.0235388697
 H   -0.7356670092    2.0103194444    0.1726886920
 H   -0.0125366114    1.2613932456   -1.2723409511
 H    1.9665170490    2.3771806863   -0.6470440074
 H    1.4687465661    2.5891128365    1.0356429598
 H    1.1995981476   -2.5307349450    1.4214167705
 H    3.8349465561   -1.9403036007    1.7181637057
 H    4.1758929532    0.4345676205    1.0106466671