17

 O    0.0063631514    0.4014736266    1.0960857743
 C   -0.0177483706    1.2188255046    0.2092346611
 O   -1.2296896067    1.5153558319   -0.3382997397
 C   -1.4736832191    2.4474375743   -1.3909561643
 C   -0.5823449442    2.2837880104   -2.6451839866
 C    0.3607637061    3.3831289279   -2.0571309578
 C   -0.8550040745    3.8519275285   -1.1934319136
 C    1.4340872030    2.7793206249   -1.2033279298
 C    1.2427883484    1.8624720948   -0.2490624828
 H   -2.5530977873    2.3914832191   -1.5332528875
 H   -0.1555892094    1.2974711502   -2.8344019460
 H   -1.1073869037    2.6366829625   -3.5362523519
 H    0.7753665845    4.1061567791   -2.7602616876
 H   -1.4501960065    4.6083156966   -1.7109545407
 H   -0.6559254298    4.1750701972   -0.1703538822
 H    2.4523962720    3.1180967780   -1.3778661294
 H    2.0879480865    1.4859988833    0.3162868444