22

 C    0.0794658014    1.3707032974    0.1560280638
 O   -0.0847734630   -0.0142871068   -0.0612016985
 C    0.6001064665   -0.5506115962   -1.1822248359
 C    0.1061746677    0.0414330365   -2.4988376265
 C    2.1552696112   -0.6495019821   -1.0856632258
 N    2.1199546543   -2.1510108853   -1.1480403472
 C    1.3445536149   -2.5491792433    0.0446955254
 C    0.5934654045   -2.0865999106   -1.1389580200
 C   -0.2756790554   -2.9900211065   -1.9637959077
 H    1.1402197675    1.6623984372    0.1798429857
 H   -0.4290461387    1.9830968595   -0.6016976548
 H   -0.3628486001    1.5916517517    1.1307114114
 H    0.3562250092    1.1039396198   -2.5735446144
 H    0.5733650561   -0.4651593865   -3.3477337842
 H   -0.9798582440   -0.0643691962   -2.5843619274
 H    2.6821462466   -0.2431791728   -1.9519555018
 H    2.6086824856   -0.2603947144   -0.1680310005
 H    1.3650940747   -3.6198185455    0.2255696683
 H    1.3897862973   -1.9306877160    0.9369552867
 H   -1.2983608111   -3.0074401744   -1.5695736166
 H   -0.3224282803   -2.6741000766   -3.0104872576
 H    0.1129354253   -4.0121298490   -1.9396494424