20

 N   -0.0607515010   -1.0871521511   -0.1054878194
 C   -0.0015040739    0.0593982595    0.0149803983
 C    0.0330427060    1.5163261734    0.1789137096
 O    1.3236494445    1.9855769944   -0.1070223956
 C    1.4335917193    3.3941872665    0.0393603211
 C    2.8653880302    3.7995076059   -0.2857654154
 C    3.0786173120    5.2930121239   -0.1666442304
 C    3.3857902356    5.9179851121    1.1738012998
 C    4.4519774539    5.8476731008    0.1087641343
 H   -0.7216466293    1.9613494169   -0.4911964774
 H   -0.2705967994    1.7592061538    1.2110448021
 H    0.7240229121    3.8995874971   -0.6375088496
 H    1.1714567958    3.6909532266    1.0679631552
 H    3.5418362758    3.2683391307    0.3940807788
 H    3.1043318615    3.4560259070   -1.2993775187
 H    2.4572807617    5.8888447220   -0.8315122968
 H    2.9529600280    6.8839412731    1.4088921366
 H    3.4841672449    5.2567437020    2.0289823520
 H    5.2632662439    5.1411478960    0.2502841781
 H    4.7456290084    6.7653749294   -0.3883350927