23

 C    0.0507951853    1.5096751952    0.0154693519
 C    0.0498402571   -0.0093774512   -0.0032787717
 O    0.6957051738   -0.4756065084    1.1644167797
 C    0.7504871252   -1.8805612750    1.2549507057
 C    1.4140702338   -2.2657726386    2.5779836874
 C    0.6210215251   -1.7334881157    3.7784214016
 C    1.6032423664   -3.7936807604    2.6487620401
 C    2.4838162857   -4.2105256548    3.8051989931
 O    2.2069709775   -5.0472867276    4.6246253755
 H    1.0749015840    1.8924934142    0.0430608355
 H   -0.4431847885    1.9022132096   -0.8782869460
 H   -0.4781279531    1.8828380441    0.8970432839
 H   -0.9824380572   -0.3963548336   -0.0457130728
 H    0.5700815328   -0.3859532651   -0.9005385333
 H   -0.2658337254   -2.3111148454    1.2020932813
 H    1.3219805457   -2.2978625693    0.4073047255
 H    2.4079276334   -1.7962436667    2.5799784259
 H   -0.3698689367   -2.2006976295    3.8258237796
 H    1.1313775779   -1.9468586256    4.7229465480
 H    0.4841990576   -0.6537336998    3.6938568067
 H    0.6461578039   -4.3188328553    2.7310166785
 H    2.1025633410   -4.1405396648    1.7312476978
 H    3.4597270447   -3.6693617462    3.8475006262