15

 O    0.0780258561   -0.0769455182    0.0460428772
 C    0.0689757708    1.1258677127    0.0089665137
 C    1.2924880394    1.9790239757    0.0001781753
 O    2.6177400541    1.3796352532    0.0374103236
 C    2.8669059644    2.8265954587   -0.0035242306
 C    1.7456598505    3.0532732103   -1.0748824127
 C    1.0513130636    4.3601746748   -0.7451286856
 C    1.0323592310    4.4012775335    0.5906106896
 C    1.7158984630    3.1176967815    1.0196178783
 H   -0.8763564136    1.7117421099   -0.0225091738
 H    3.9061109158    3.1625901343    0.0009072918
 H    1.9090288008    2.7227864625   -2.0987873192
 H    0.6726849677    5.0783546337   -1.4585481293
 H    0.6342847934    5.1616210804    1.2475158481
 H    1.8498558329    2.8508904269    2.0661171636