21

 C    0.1005715399    0.6946319097    0.5804423291
 O   -0.0460943705   -0.5209583715   -0.1177434307
 C    0.7107658408   -0.6037122042   -1.3136978138
 C    2.1890751322   -0.9334808313   -1.0675597860
 O    2.2664987191   -2.3441018328   -0.9148463061
 C    1.1087517696   -2.9797440698   -1.4947792238
 C    0.4287664562   -3.7821107526   -0.3856585819
 O    1.3438088145   -4.6658125556    0.2308156486
 C    0.2467322101   -1.8481970880   -2.0804818535
 H    1.1268757487    0.8548628838    0.9421242319
 H   -0.1809549118    1.5552292170   -0.0465590443
 H   -0.5676580644    0.6519587346    1.4435386486
 H    0.5907391605    0.3220522908   -1.8953897852
 H    2.7976252738   -0.6031138986   -1.9243471557
 H    2.5891520492   -0.4609891964   -0.1650524402
 H    1.4627897144   -3.6717503521   -2.2690315894
 H   -0.0140918869   -3.0804102012    0.3367525353
 H   -0.3766346252   -4.3943788701   -0.8074853408
 H    2.1120895678   -4.1241860611    0.4498531528
 H   -0.8247022862   -2.0109759667   -1.9449118670
 H    0.4444770383   -1.7203917340   -3.1480143579