19

 C    0.0979340641    1.4501605715    0.1091327243
 C   -0.0503383209   -0.0685879051   -0.0040594762
 C   -1.5329819877   -0.5374162999    0.0013110028
 N   -2.3640948962   -0.0832052897   -1.1056265444
 C   -1.5409866263   -2.0534245135   -0.0047710181
 O   -1.7251621370   -2.7466566982   -0.9677715789
 O   -1.2502711347   -2.5363518685    1.2465384705
 C   -1.1660648356   -3.8979780289    1.4118081693
 N   -0.8670007229   -4.3326110327    2.5529176345
 H    1.1540222720    1.7347046574    0.1238352755
 H   -0.3644725266    1.9708752818   -0.7362762805
 H   -0.3627169271    1.8259655684    1.0292263841
 H    0.4235687902   -0.4262926512   -0.9271356704
 H    0.4703266287   -0.5487985430    0.8320176054
 H   -1.9834670334   -0.2095528759    0.9464442839
 H   -2.2125782471    0.9033877389   -1.2818804766
 H   -2.1119399639   -0.5955503482   -1.9456492359
 H   -1.3806735995   -4.4501707976    0.4968925320
 H   -0.8447546161   -5.3514300355    2.5381313986