21

 C    0.0151810856    1.5605007058    0.0204528765
 C    0.0185071439    0.0402935480   -0.0095216909
 C    1.2033578554   -0.5939859029   -0.8506454864
 C    1.9128606738   -0.7260413969    0.4782930418
 C    2.9287775920   -0.2504173434    1.1873442545
 C    2.4136381078    0.0540040225    2.5928942796
 C    2.8526306479    1.4087958894    3.1348898989
 O    0.9682604790    0.0374665512    2.4639253657
 C    0.6526422334   -0.6495910372    1.2713335353
 H    1.0114925752    1.9513334136    0.2496215012
 H   -0.2951646829    1.9683955410   -0.9470012759
 H   -0.6710856152    1.9339698890    0.7862454974
 H   -0.9704166216   -0.3473679556   -0.2702898230
 H    0.9148092374   -1.5476966520   -1.3019413843
 H    1.6774273988    0.0329292473   -1.6093589921
 H    3.9191646284    0.0339047257    0.8536255104
 H    2.7031379601   -0.7268167222    3.3167412779
 H    2.6157099144    2.2069445516    2.4252377795
 H    2.3373762469    1.6184114591    4.0765275126
 H    3.9311322012    1.4151608423    3.3241230578
 H    0.1428488685   -1.5982398062    1.4922196536