16

 O    0.0284378929   -0.0170760184   -0.2905152258
 C   -0.0276761666    1.1564105513   -0.0638499218
 C   -1.1776379032    2.1312610482    0.2446354661
 C   -0.0916215569    3.1762096631    0.6683358239
 C    0.2143299270    3.2182735623    2.1425162002
 C    1.3464685013    2.5870217555    2.4569520018
 C    2.0627536426    2.0109437049    1.2548136996
 C    1.0482658524    2.2472266616    0.1171740559
 H   -1.7267960351    2.4070874088   -0.6624610558
 H   -1.8945343579    1.8035081580    1.0021992814
 H   -0.2111006412    4.1653136277    0.2192792062
 H   -0.4426900398    3.7061632511    2.8549239467
 H    1.7447152348    2.4923218899    3.4616153190
 H    3.0173860718    2.5212334567    1.0734185844
 H    2.2964373471    0.9459596243    1.3706217789
 H    1.5015207108    2.5390420049   -0.8333978605