17

 N   -0.1310465248    1.2536071594    0.0098534325
 C   -0.0486898343   -0.0054207195    0.0028326463
 O   -1.1749009064   -0.7505812586    0.0078342681
 C   -1.0185227090   -2.1381519491    0.0000595271
 C   -0.3464491940   -3.0443746873    1.0755588474
 C   -0.9405803077   -3.9897990010   -0.0093159061
 C   -2.2214061419   -3.0996624818    0.0046545988
 C   -0.3629627470   -3.0340921059   -1.0940968309
 H    0.8023069132    1.6601579020    0.0045268035
 H    0.8729215274   -0.5998049519   -0.0074539898
 H    0.7436180591   -3.0093513380    1.1484714665
 H   -0.8210915129   -3.0645080515    2.0593695664
 H   -0.8994328435   -5.0752485376   -0.0147744017
 H   -2.8245877179   -3.1200770692    0.9151255614
 H   -2.8383818495   -3.1114865873   -0.8966799937
 H   -0.8525281916   -3.0449267996   -2.0707147075
 H    0.7258713308   -2.9983145431   -1.1832601783