18

 C    0.0610026182    1.4483390851    0.2292991450
 C   -0.0571390705   -0.0568067896    0.2058859067
 C   -1.3400388890   -0.7102196215   -0.0746546177
 O   -0.3136924613   -0.6531496200   -1.0662138052
 C    1.4616237048    1.9320074068    0.0050618397
 N    2.5214917798    1.2372332370    0.0657517196
 C    3.6400838622    2.1530937751   -0.2009323317
 C    2.9718862275    3.5374069143   -0.4126884865
 O    1.5601651820    3.2641932302   -0.2629184634
 H   -0.5923991617    1.8844383441   -0.5333002239
 H   -0.2826021247    1.8404430291    1.1964321066
 H    0.6811891390   -0.5866410182    0.8044853948
 H   -1.5456960082   -1.6982973235    0.3346155051
 H   -2.2215208628   -0.1024699409   -0.2785435473
 H    4.3373255000    2.1491725790    0.6434412206
 H    4.1959806005    1.8157686375   -1.0819795683
 H    3.2584274040    4.2814935095    0.3359449574
 H    3.1354542902    3.9568871962   -1.4090527415