20

 C    0.2944986326    1.4058717652   -0.1860035446
 O    0.6025236827    0.0339127938   -0.2613175542
 C   -0.2234714781   -0.6588039480   -1.1766313571
 C    0.1970017529   -2.1049658447   -1.1685506211
 N   -0.0324380187   -2.8558349911   -2.3947864823
 C    1.3595143447   -2.5989176973   -1.9876016590
 C    2.1809936457   -1.6547664996   -2.8225962968
 C    3.6772843347   -1.7233990781   -2.5785006381
 O    1.6872418020   -0.8763020895   -3.6059365372
 H    0.4147120065    1.9043974128   -1.1600746730
 H   -0.7378285139    1.5748277048    0.1603671260
 H    0.9843387758    1.8575787994    0.5312639737
 H   -1.2831727468   -0.5837762493   -0.8766064940
 H   -0.1278711434   -0.2535734669   -2.1914836092
 H    0.0624924446   -2.6106690467   -0.2134215898
 H   -0.2758635512   -3.8209926497   -2.1894568311
 H    1.9200184057   -3.4188891429   -1.5432205196
 H    3.8928813968   -1.5468146283   -1.5183756843
 H    4.0595304400   -2.7218460608   -2.8213595186
 H    4.1863435274   -0.9766851731   -3.1883199496