12

 C   -0.0148741262    1.4431124650   -0.0619185606
 N    0.0291201143   -0.0001062166    0.0030963323
 N    0.0595976453   -0.7718153606   -1.1299142819
 C    0.0932149745   -1.9924777966   -0.6344955229
 N    0.0868843808   -2.0799761086    0.7289755568
 C    0.0463287718   -0.8111845667    1.0756207404
 O    0.0232338010   -0.3143663535    2.3187886995
 H    0.8670341808    1.8240246619   -0.5833757458
 H   -0.9118283139    1.7692735427   -0.5947222197
 H   -0.0333768505    1.8336646293    0.9560464813
 H    0.1235927256   -2.8616983065   -1.2744796751
 H    0.0416076164   -1.0708898599    2.9184450458