15

 O    0.2471235186    0.3642179382   -0.7762575092
 C    0.0225097018    1.1636899690    0.0955845194
 O    0.9736511146    1.6637208116    0.9426790802
 C    2.2956836848    1.1906036326    0.6985607807
 C    2.9942418410    2.0356892897   -0.2785730534
 N    3.5510459867    2.7067381910   -1.0355415703
 N   -1.2149832361    1.6524141843    0.4555686214
 C   -1.5633654912    3.0638273348    0.4543526844
 C   -2.1704386765    2.1104303828   -0.5310455213
 H    2.8190180122    1.2330060002    1.6563511647
 H    2.2705594967    0.1615246981    0.3315581754
 H   -2.1371807945    3.4036583823    1.3109341538
 H   -0.8180765354    3.7640715323    0.0883277768
 H   -1.8323411512    2.1581524164   -1.5621417719
 H   -3.1884949914    1.7611138770   -0.3905601009