23

 C   -0.0101904061    1.5495241935   -0.1046315091
 C    0.0168959310    0.0343518432   -0.0160735622
 C    1.3535558761   -0.6787999837   -0.2164723000
 C    0.7046002657   -0.6645769142    1.1457997575
 C    1.3420817207    0.0925257096    2.2864334892
 O    0.1648699509   -1.8487395239    1.6877465541
 C   -0.7065096579   -2.6025769725    0.8639913451
 C   -1.8166318232   -1.7308172583    0.2908290282
 C   -1.2307094767   -0.6367606206   -0.6128142087
 H    0.9183535460    2.0089346955    0.2428869758
 H   -0.1584404576    1.8625553920   -1.1456098317
 H   -0.8335794169    1.9701389015    0.4850651490
 H    1.3521636825   -1.6015829718   -0.7880628812
 H    2.2433944381   -0.0732687343   -0.3602119936
 H    1.8753672088    0.9798775064    1.9419378082
 H    0.5870857047    0.3992106075    3.0176647181
 H    2.0582505015   -0.5590567086    2.7971151618
 H   -0.1496571896   -3.1007854307    0.0529144742
 H   -1.1083650823   -3.3874848837    1.5114350658
 H   -2.5321171415   -2.3470994134   -0.2646255223
 H   -2.3573646754   -1.2764297588    1.1296114434
 H   -1.9934162724    0.1277549236   -0.7949429923
 H   -0.9864328564   -1.0608047481   -1.5950605692