17

 N    0.3966238676    1.1658142831   -0.1605065051
 C    0.1839026899   -0.0732363980   -0.1039290105
 O   -0.9576865047   -0.5353028058    0.4609649857
 C   -1.1731382625   -1.9218887554    0.4558163736
 C   -2.1823007786   -2.4250828872    1.5003326620
 C   -2.7372212289   -3.4137015878    0.4402493081
 C   -2.0603153574   -2.5545579911   -0.6832974670
 C   -2.9648730646   -1.6170217899   -1.3269904709
 N   -3.6959476323   -0.8879059416   -1.8468515008
 H    1.2980397917    1.3477665710   -0.5965777606
 H    0.8468232195   -0.8732894985   -0.4625820988
 H   -0.2211038946   -2.4638233563    0.5072247996
 H   -1.7837887076   -2.8293266054    2.4317766634
 H   -2.9029172559   -1.6358538695    1.7267812663
 H   -2.2792360062   -4.4029959817    0.4988240219
 H   -3.8189328208   -3.5226028933    0.3752434279
 H   -1.5138357245   -3.1057447327   -1.4525696449