21

 C   -0.0983305032    1.5169056512    0.0857500328
 C   -0.0461052125    0.0021836105    0.1755521998
 O   -1.3219015566   -0.5110006702   -0.2021983555
 C   -1.3989588843   -1.8857817450   -0.1538282313
 C   -0.8842290466   -2.8223785513   -1.2565987179
 C   -2.1565358387   -3.7075871191   -1.0596123240
 C   -2.6594758949   -2.7465246961    0.0256754927
 C   -1.6249668102   -2.6233544831    1.1234903469
 O   -0.7803296626   -3.6725106537    1.5065424046
 H    0.8663269938    1.9484168806    0.3693036857
 H   -0.3343426599    1.8335989812   -0.9341698141
 H   -0.8674087938    1.9152604670    0.7538229336
 H    0.7329266427   -0.3992683369   -0.4901797028
 H    0.1976442011   -0.3246816950    1.1975510656
 H   -0.8774561278   -2.3251085290   -2.2288574996
 H    0.0820787922   -3.2995372911   -1.0786161566
 H   -2.7976897686   -3.7251190293   -1.9426479632
 H   -1.9741580404   -4.7341173893   -0.7310935766
 H   -3.6887476397   -2.4462775149    0.1841601779
 H   -1.9393015294   -1.9655578834    1.9351065358
 H   -1.3138370807   -4.3349233431    1.9586360061