18

 C    0.6647376774    1.3556641970   -0.0039835861
 C   -0.1224939223    0.0523169791   -0.0421711189
 C    0.2080988645   -0.8532274740   -1.2517024750
 C    1.2594477980   -1.7798257210   -0.6788250492
 C    1.8320627230   -2.9733312806   -1.3391749821
 N    2.6783095653   -1.7946303777   -1.1045577607
 C    1.0532472510   -1.7589503578    0.8175066434
 O    1.5151939905   -2.4947295166    1.6390186570
 O    0.2053849240   -0.7406343249    1.1248360423
 H    1.7388346720    1.1640567107   -0.0961928987
 H    0.3557587478    2.0093558531   -0.8260504883
 H    0.4894164132    1.8781725324    0.9397311271
 H   -1.1939619276    0.2568319698    0.0254302350
 H   -0.6786399839   -1.4179165025   -1.5571143786
 H    0.5545140155   -0.2770162730   -2.1138748584
 H    2.0795674439   -3.8333589274   -0.7243122429
 H    1.5031642548   -3.1941279555   -2.3515714925
 H    2.7629536829   -1.2585503212   -1.9662831233