16

 C   -0.0006217310    1.5231956395   -0.0029082833
 C   -0.0038633273    0.0165882930    0.0129256374
 C   -0.0950883274   -0.7308066024   -1.1574936502
 N   -0.0993011628   -2.0654482780   -1.2194756246
 C   -0.0197021536   -2.7444640547   -0.0723225242
 N   -0.0896641473   -4.1249327655   -0.1667469301
 C    0.0775628470   -2.0996142861    1.1742556979
 C    0.0872205291   -0.7182888547    1.2027266210
 H    0.9136076630    1.9323666135    0.4427570507
 H   -0.0689188977    1.9045195793   -1.0257289304
 H   -0.8447462084    1.9368626537    0.5612554974
 H   -0.1649922740   -0.2185992595   -2.1163108944
 H    0.0968109538   -4.4693496570   -1.0972905801
 H    0.3673316434   -4.6497861600    0.5625758371
 H    0.1376668317   -2.6799381559    2.0891530423
 H    0.1640832414   -0.2002075451    2.1550302834