21

 C   -0.1998172274    1.4687199241   -0.0326758750
 C   -0.3071531626   -0.0589556842    0.0400222009
 C    0.9359484719   -0.6761923305    0.6908179401
 C   -1.5986989051   -0.4523871080    0.7850840410
 N   -1.8757609375   -1.8787034441    0.8049455627
 C   -2.4407589059   -2.5298574167   -0.2526579181
 N   -2.8245340541   -1.9404385288   -1.3220358788
 C   -2.6034795301   -4.0195981209   -0.0345630196
 O   -3.1041021410   -4.7458349520   -0.8509906960
 H    0.6931635176    1.7732403901   -0.5873525864
 H   -1.0701298068    1.9063250486   -0.5322380694
 H   -0.1313516226    1.9090867918    0.9699260650
 H   -0.4011048027   -0.4484726203   -0.9804054171
 H    0.8695050424   -1.7682812100    0.7334886105
 H    1.8401454687   -0.4246989159    0.1276088116
 H    1.0712928184   -0.3050180526    1.7148788163
 H   -1.5503748267   -0.1042284279    1.8241109665
 H   -2.4536398464    0.0334481701    0.3053002499
 H   -1.4872211008   -2.4344305869    1.5479612050
 H   -3.2510567718   -2.6381740282   -1.9341185886
 H   -2.2291853075   -4.4139352675    0.9388401395