18

 C   -0.1008946841   -1.2408866910   -0.0877985747
 C   -0.0537639382   -0.0419064388   -0.0079588060
 C    0.0150539632    1.4044693822    0.0510388052
 C   -0.2376087486    2.1163635817    1.4013989172
 N    0.8445410596    1.7198781710    2.3268385287
 C    1.0805021799    2.8024228287    1.3343662601
 C    1.4150268778    2.1055016397    0.0336673723
 C    2.7233653917    1.5436959755   -0.4120944130
 C    2.0848264415    2.6873394679   -1.1728180141
 H   -0.1450476750   -2.3006061945   -0.1360719166
 H   -0.6234479724    1.8463084612   -0.7220220974
 H   -1.1951663378    2.4642120363    1.7674136370
 H    0.6424601156    2.1695070318    3.2202785438
 H    1.3627972418    3.8011552076    1.6445515031
 H    3.6005975499    1.7484470336    0.1923993201
 H    2.7092493730    0.5581963044   -0.8659656693
 H    1.6543261641    2.4802581156   -2.1478116322
 H    2.5282081182    3.6745200971   -1.0843090942