14

 N    0.1457057877    1.2859779499   -0.2240217948
 C    0.0096227257   -0.0631343571   -0.0771924602
 N   -1.0848225874   -0.7361801163   -0.1063907569
 C   -0.6891318187   -2.1234463945   -0.0350524244
 C    0.1476141744   -2.6096123523   -1.2012826274
 O    0.2072383170   -1.8833311138   -2.3833458963
 C    0.8364218497   -2.1103469140    0.0513461496
 O    1.1835128018   -0.7342301770    0.0641016864
 H    0.9844143806    1.6836036756    0.1696177207
 H   -0.6991952615    1.8097866220   -0.0579313562
 H   -1.3458486018   -2.7955503160    0.5054392461
 H    0.1901303052   -3.6870455253   -1.3456751612
 H   -0.5392739126   -1.2699053209   -2.3780151086
 H    1.4823231998   -2.7158609203    0.6735831531