19

 C    0.0360171346    1.4681175032   -0.3040692619
 C   -0.0491463818    0.0076369249    0.1581843757
 C   -1.4594726469   -0.5350771468    0.1987197806
 C   -2.5106802682    0.0042616894    1.0993626193
 C   -3.5263262469   -0.8655499583    1.2072911057
 C   -3.2575103876   -1.9941558991    0.2492387368
 O   -3.4059178987   -1.3894428129   -1.1130057994
 C   -2.0170480696   -1.1820290287   -1.1374366538
 C   -1.7141546437   -2.0217549207    0.0498700591
 H    1.0744221012    1.8126798286   -0.3249704445
 H   -0.3821165539    1.5884946007   -1.3086031300
 H   -0.5193872706    2.1326700204    0.3656835622
 H    0.5522144991   -0.6199331434   -0.5127523620
 H    0.4083886580   -0.0922005249    1.1515981106
 H   -2.4768845546    1.0004399030    1.5245303683
 H   -4.4705385937   -0.7067725889    1.7110229223
 H   -3.8347416777   -2.9141731673    0.3203231644
 H   -1.5414562354   -1.0156497314   -2.0971770701
 H   -1.0070248535   -2.8186515078    0.2464774367