17

 O    0.1793537398    1.3593279233   -0.0417947828
 C    0.0627470988   -0.0467392572    0.1123526957
 C   -1.3698324877   -0.4970515232    0.1045585550
 C   -2.3952743122   -0.1370014878    1.1972075739
 C   -2.8650198666   -1.6072050788    1.1526067352
 O   -3.5747693232   -2.2630940565    1.8609270799
 C   -1.9342442857   -1.9690191105    0.0302524154
 C   -2.0849601795   -0.9644930418   -1.1048295571
 O   -3.3047387358   -0.3885117701   -1.4589774870
 H   -0.2530995652    1.6015789769   -0.8677667419
 H    0.6285667834   -0.5909931343   -0.6610979893
 H    0.5272058192   -0.2751246998    1.0777150444
 H   -1.9341449945    0.0901236312    2.1626348434
 H   -3.1289752457    0.6300057097    0.9466320607
 H   -1.4351634169   -2.9195719096   -0.1201499748
 H   -1.4375038471   -1.2066140778   -1.9508664749
 H   -3.8757120910   -1.0772140336   -1.8161502758