15

 N    0.1046125468    1.3838507606    0.1796064525
 C    0.0280173159   -0.0030051897    0.0406467735
 C   -1.0819833092   -0.8413929410   -0.0068669654
 C   -2.4391723698   -0.4743960471   -0.0369286169
 C   -3.6167761965   -0.2042887253   -0.0650141020
 C   -0.5710628052   -2.1888154855   -0.0494999291
 O   -1.3264856947   -3.3139005706   -0.1162184411
 C    0.7927375982   -2.1334833670   -0.0375185149
 N    1.1409835393   -0.7788209868    0.0098826371
 H    0.6246044917    1.8326246852   -0.5673510525
 H   -0.8244009984    1.7859459442    0.2186266139
 H   -4.6485023887    0.0437190875   -0.0862761136
 H   -2.2521500284   -3.0420200527   -0.1200225245
 H    1.5369381155   -2.9082230718   -0.0840739972
 H    2.0676443435   -0.4322402701    0.1849938401