15

 O   -0.0972891877    1.4180747831   -0.1004394011
 C   -0.0753358065    0.0323065433   -0.1061592091
 C    0.7439357262   -0.7315325371   -1.0780284560
 C    0.1408386158   -1.8979313717   -1.3255695787
 N   -1.0764889333   -2.0774216560   -0.5195833674
 C   -0.4488629242   -2.7293291491    0.6312909235
 N   -0.1083831416   -1.9887553795    1.6108335696
 C   -0.5271503018   -0.6639497094    1.2626221039
 C   -1.3647993895   -0.7148042406    0.0222149631
 H    0.6768648411    1.7350286193    0.3769317017
 H    1.6683544268   -0.3755291322   -1.5124476819
 H    0.4705227335   -2.7200307433   -1.9456468087
 H   -0.2400543564   -3.7912990259    0.5672475951
 H   -0.7168116563    0.0367828490    2.0654894657
 H   -2.3540220862   -0.2942199200   -0.1198970096