21

 C    0.2592190512    1.6141541879   -0.0930655221
 C    0.1210604966    0.1090446192   -0.0357759979
 C    1.3480702765   -0.7696282203    0.1288804106
 C    0.3401794527   -0.6359146060    1.2467943713
 O    0.6673236087    0.1188118295    2.3733209756
 C    1.4483133500   -0.5905218908    3.3151611904
 C    1.7509284922    0.3520783205    4.4795460058
 C    2.3750905668   -0.3724504102    5.6497109029
 O    3.4188002561   -0.0741438586    6.1693093155
 H    1.0168640117    1.9635357442    0.6118371932
 H    0.5453322385    1.9412057605   -1.0982457202
 H   -0.6845129752    2.1065992332    0.1649362089
 H   -0.6643711646   -0.2973563434   -0.6677588091
 H    1.4138297282   -1.7055047172   -0.4152643008
 H    2.2948287160   -0.2574598095    0.2689470676
 H   -0.2985162489   -1.4939066300    1.4632600738
 H    0.8999612682   -1.4781591776    3.6743644078
 H    2.3799021285   -0.9489597049    2.8522753431
 H    2.4041853455    1.1709052241    4.1695191499
 H    0.7958986185    0.7778181784    4.8180843729
 H    1.7785277330   -1.2382269091    6.0239807507