18

 O   -1.8156012916    1.7703298630    0.2997875932
 C   -1.7479332983    0.5038941090   -0.3376606805
 C   -1.4694040161   -0.6214108525    0.6622694954
 C   -1.3115646032   -2.0111120015    0.0728318936
 C   -0.7517981333   -3.0517905669    1.0265112731
 O    0.5765523914   -2.7350923054    1.4065159996
 C   -2.0585859402   -2.4713226178   -1.1061184727
 O   -0.6827731303   -2.0907472835   -1.2266741967
 H   -0.9437435120    1.9643877152    0.6585877996
 H   -2.7262014986    0.3697258243   -0.8106248530
 H   -0.9936459460    0.4866146021   -1.1355679848
 H   -0.5415954001   -0.3952178415    1.2044186868
 H   -2.2684595527   -0.6427367992    1.4135741221
 H   -1.3385773756   -3.0805537086    1.9509292454
 H   -0.8075590473   -4.0440306053    0.5554656810
 H    1.0915468970   -2.7029752547    0.5916682559
 H   -2.2604419473   -3.5342081945   -1.2350519686
 H   -2.7679829658   -1.8101839221   -1.5992606796