14

 O   -0.1790946634    1.3358342548    0.0346787108
 N    0.0238876990   -0.0589040737    0.0573942148
 C   -1.0885812045   -0.6694827881    0.0199164140
 C   -1.2253965888   -2.1720089683    0.0423954780
 C   -2.6939530558   -2.3163691964    0.4755523537
 O   -3.3610408139   -1.1920555715   -0.0902985496
 C   -2.4822930202   -0.0796871866   -0.0042623821
 H    0.7212769949    1.6746761029    0.0755310872
 H   -1.0845127884   -2.5800513135   -0.9652875715
 H   -0.5100516778   -2.6540486662    0.7110459970
 H   -3.1816457756   -3.2182436022    0.0993557187
 H   -2.7755119750   -2.3062190445    1.5744805801
 H   -2.6548909909    0.5128305621    0.9088407610
 H   -2.6483137995    0.5784027712   -0.8627445021