19

 N    0.0169987076    1.4255886859   -0.0229521534
 C    0.0611765771   -0.0365126319   -0.1327748809
 C    0.7908296801   -0.5092372420   -1.3327212018
 N    1.3751614843   -0.8378130814   -2.2753324007
 C    0.7074397966   -0.6247078967    1.1248103956
 C   -0.0649301311   -0.6537919308    2.4796639824
 C   -0.8972603698   -1.8531354458    1.9358784610
 C    0.5719911627   -2.1336323383    1.4993266386
 C    0.9849538926   -1.7091451946    2.9403766920
 H    0.9637668543    1.7935764970    0.0220297605
 H   -0.4047110050    1.8255466936   -0.8563014259
 H   -0.9708111273   -0.3854821218   -0.2306915472
 H    1.7322393077   -0.2408133568    1.2009038051
 H   -0.4284246131    0.2081315055    3.0383679371
 H   -1.3087904318   -2.5295403751    2.6891965430
 H   -1.6386308681   -1.6577181254    1.1591257447
 H    0.9462003337   -2.9840440601    0.9286964937
 H    2.0115698136   -1.3583502491    3.0762857065
 H    0.6773984960   -2.3776098325    3.7478492898