17

 C   -0.0988749852    1.4517381186    0.0380008667
 C    0.0917541327   -0.0408806299   -0.0308700821
 O    1.1343428044   -0.6233854065   -0.1506696548
 O   -1.1146266939   -0.6761605762    0.0606144190
 C   -1.0753100908   -2.1132521398    0.0172158489
 C   -2.3277205561   -2.6203206148    0.7377065967
 N   -2.2618286953   -2.2241836448    2.1393427148
 C   -1.0353243113   -2.5740557397   -1.3790625818
 N   -1.0342333306   -2.9585887145   -2.4680583139
 H    0.8724194304    1.9416169931   -0.0119605539
 H   -0.7280067774    1.7833570450   -0.7928925445
 H   -0.6104664357    1.7249521399    0.9649995628
 H   -0.1763877148   -2.4591086955    0.5336196090
 H   -3.2128053628   -2.2617168915    0.1887971781
 H   -2.3255672194   -3.7131303908    0.6753709865
 H   -2.4134205164   -1.2238432932    2.2173699361
 H   -3.0041220778   -2.6757251194    2.6624638824