17

 C    0.0309730128    1.5400377793    0.0411388147
 C   -0.0343266814    0.0144621539    0.0013690518
 N   -1.4038394904   -0.5041874981   -0.0319288901
 C   -2.1164924178   -0.1678774582   -1.2598651170
 C   -1.4116048956   -1.9395932784    0.2142287305
 C   -2.7651464550   -2.4539535679    0.4588251471
 N   -3.8251203175   -2.8737915652    0.6441048450
 H    1.0646585929    1.8605644067    0.2014784260
 H   -0.3100206637    1.9952503289   -0.8925296730
 H   -0.5838350314    1.9279642132    0.8583219780
 H    0.5601684222   -0.3619169481   -0.8549074024
 H    0.4399217305   -0.3802899310    0.9073957195
 H   -1.6183879614   -0.5647016696   -2.1650370406
 H   -3.1299631128   -0.5750479843   -1.2195406428
 H   -2.1985485903    0.9156252509   -1.3606635263
 H   -0.9723326801   -2.5298230375   -0.6149065776
 H   -0.8083031607   -2.1514164746    1.1039446970