21

 C    0.0343644756    1.5434293402    0.0023692073
 C   -0.0271182586    0.0297191827    0.0506059079
 C   -0.8326336548   -0.6050668808    1.1455352287
 C    0.6960433015   -0.6778618660    1.1883907407
 C    1.3725699179   -1.9560460663    0.8887322049
 C    1.1726664253   -2.6422873563   -0.2402513875
 C    0.2199483382   -2.1663449299   -1.3062339004
 O   -1.0972375907   -2.7291109404   -1.1423693003
 C    0.0630674264   -0.6394637976   -1.3138987459
 H    0.9532799994    1.8907643041   -0.4846606531
 H   -0.8139886608    1.9530771302   -0.5591099298
 H    0.0045093423    1.9748638678    1.0079956563
 H   -1.3141757934    0.0511808922    1.8638521303
 H   -1.3605690754   -1.5241300034    0.9257530482
 H    1.1788743695   -0.0538213632    1.9342549031
 H    2.0647812112   -2.3358331662    1.6367646695
 H    1.6892034484   -3.5835505657   -0.4102648444
 H    0.6026656150   -2.4709990856   -2.2925049924
 H   -0.9876002508   -3.6514540114   -0.8883319165
 H   -0.8233253621   -0.3979306183   -1.9124365252
 H    0.9277278360   -0.2201740761   -1.8442750314