12

 C    0.0797259150    1.4427091319    0.0092808383
 C    0.0373872671   -0.0069598426    0.0015658958
 C   -0.0075623378   -1.2136871134   -0.0047459647
 C   -0.0607312749   -2.6487666835   -0.0120841742
 O   -1.0853028284   -3.3010720733   -0.0059628190
 C    1.2430461300   -3.2988620283   -0.0278161634
 C    2.3115055358   -3.8663536558   -0.0408581928
 C    3.5200978250   -4.4990154088   -0.0554530305
 N    4.5513342644   -5.0336176853   -0.0678804434
 H    1.1100602549    1.8116202272    0.0018302272
 H   -0.4370080405    1.8464371006   -0.8680217118
 H   -0.4207103307    1.8365669615    0.9004041586