21

 C    0.1840918087    1.5432689884   -0.1698467775
 C   -0.0690765004    0.0494324869   -0.0061676478
 C   -1.4257266697   -0.3564709344    0.6572754623
 C   -0.6624839916   -1.2223165788    1.7020187950
 C    0.6893883454   -0.6900003399    1.1484141051
 O    1.5966122787   -1.6336643680    0.5951145968
 C    1.4168578077   -1.7055972547   -0.7960169042
 C    0.1103923546   -2.2283919091   -1.3272185779
 C    0.3620434466   -0.7306094661   -1.2457438093
 H    1.2176344416    1.7370471234   -0.4783020418
 H   -0.4791303988    1.9757770465   -0.9279366385
 H    0.0075119665    2.0790329736    0.7687257437
 H   -1.9486483794    0.4947587063    1.1011510617
 H   -2.1264958893   -0.8864655372    0.0085998650
 H   -0.8598456405   -0.9811023732    2.7492635327
 H   -0.7703487423   -2.3013264040    1.5737993796
 H    1.2437535695   -0.0608944299    1.8527315979
 H    2.3468194807   -1.8836237208   -1.3246690785
 H    0.1139329553   -2.6676277820   -2.3197677494
 H   -0.5835896718   -2.6958288967   -0.6381672734
 H    0.4637703583   -0.1802155904   -2.1745667314