16

 O   -0.4698855127    0.6092524916   -1.0974423678
 C   -0.0605784364    1.0845159420   -0.0681523888
 C    1.0999289371    2.0422608383   -0.0013741493
 C    1.1774837397    3.5320067907   -0.2916741309
 C    0.0471982711    4.4163304456    0.2896927482
 C   -1.0138895794    3.6616462945    1.0327342854
 C    0.3325344340    3.8593589949    1.6773798384
 C    1.4860585070    2.9878145773    1.0982524406
 H   -0.4821355357    0.7761667762    0.9145613921
 H    1.9737180588    1.5580607258   -0.4398539349
 H    1.8719500568    3.9013577519   -1.0351706799
 H   -0.0793003967    5.4477417054   -0.0119108380
 H   -1.7915542174    4.2924967744    1.4550762182
 H   -1.3912504787    2.7028776710    0.6961936742
 H    0.4422953803    4.4016397285    2.6071121669
 H    2.4491668023    2.9302099619    1.5897712956