21

 C    0.0383645950    1.5653478092   -0.0647538176
 C    0.0454365325    0.0488134199    0.0302849401
 O    0.7422540068   -0.4828061094   -1.0957533254
 C    1.2034071477   -1.7907412735   -0.7620133505
 C    1.4920755368   -1.7704498339    0.7315482556
 C    1.5559107798   -3.0648632006    1.4996961775
 C    2.2671074381   -0.5483891867    1.1964863974
 C    0.7588999872   -0.5556095993    1.2367487996
 O    0.0709137635   -0.6004547226    2.4474371479
 H    1.0581563181    1.9607960629   -0.0473761611
 H   -0.4422064109    1.8899237051   -0.9916929855
 H   -0.5202997754    1.9926207911    0.7747628313
 H   -0.9939737002   -0.3232385558    0.0536600464
 H    0.4339298989   -2.5504638614   -0.9799275199
 H    2.0773378244   -1.9972103754   -1.3895166756
 H    2.4702489879   -3.6244606210    1.2727946252
 H    1.5304562819   -2.8723156600    2.5756237835
 H    0.7013544279   -3.7071389101    1.2581856575
 H    2.7704757524   -0.6416323125    2.1532745675
 H    2.7754913025    0.0689797957    0.4622479250
 H    0.2304974251    0.2256697483    2.9155429609