16

 O   -0.5324031482    1.2565069435   -0.3752348602
 C   -0.2304490156   -0.0752383645   -0.1161480338
 C   -0.4360476577   -0.5434456071    1.3097358091
 O   -0.9263483020    0.4436286128    2.1694457024
 C   -1.3692208661   -1.0321966144    0.2266239187
 O   -2.6641288385   -0.5235763405    0.3487443763
 C   -3.2347381445   -0.1306500062   -0.8946458848
 C   -4.5722250951    0.4084102655   -0.6414340123
 N   -5.6283908943    0.8398271106   -0.4648128045
 H   -0.6500715564    1.6711031658    0.4945720468
 H    0.6023957372   -0.4597431772   -0.6981601992
 H    0.2582877171   -1.2325391203    1.7803308413
 H   -1.8920579269    0.3982488994    2.1310670430
 H   -1.3104671786   -2.0690264484   -0.1031884807
 H   -2.6141339660    0.6339738004   -1.3752599354
 H   -3.3224961842   -0.9913813793   -1.5730120066