18

 O   -0.1123306560    1.5046125857   -0.0568734513
 C    0.0203405044    0.0922622514    0.1100290098
 C   -1.3897808399   -0.4729965647    0.0287993365
 O   -2.2157539356    0.1603965736    0.9638376528
 C   -1.9804838031   -0.7601242073   -1.3713827605
 C   -1.1487347688   -2.0661304457   -1.5563891043
 C   -2.4361323778   -2.8225508620   -1.8512253382
 N   -2.9278153606   -1.8485811194   -0.7861655942
 C   -1.5620273575   -1.9910391231   -0.0527072195
 H    0.6992669964    1.9276690626    0.2360133793
 H    0.6724169584   -0.3379281407   -0.6615017605
 H    0.4427376451   -0.1472453046    1.0966130157
 H   -1.9650146033    1.0933013865    0.9416252170
 H   -2.3362200792   -0.0758887723   -2.1434121256
 H   -0.1442399343   -2.1786347725   -1.9787289131
 H   -2.9104624429   -2.6769269573   -2.8274181660
 H   -2.5022777786   -3.8723498353   -1.5461901135
 H   -1.4280388267   -2.7487129848    0.7220852855