16

 O   -0.5761026278    0.7220630507    0.6126937747
 C    0.2330857117    0.9281964236   -0.2601764001
 C    1.3798496714    1.8426470928   -0.1030245810
 C    1.7277059328    2.6733641043    1.1329864361
 C    2.1342351008    3.8636910945    0.2091856977
 C    1.7755031082    3.0213260498   -1.0345053093
 N    2.4835786684    1.7550764793   -1.0502828898
 C    1.1639693677    3.5167924801   -2.2213639161
 C    0.6461411883    3.9868254468   -3.1999475504
 H    0.1671531266    0.4550582555   -1.2619979615
 H    0.8487077689    2.8886718445    1.7412945259
 H    2.5068701992    2.2476631233    1.7720745622
 H    1.4822535473    4.7299247291    0.3278949622
 H    3.1765500666    4.1954650394    0.2425062501
 H    3.3915897167    1.8043638465   -0.5900696361
 H    0.1907374233    4.3874789099   -4.0717879449