17

 C   -0.0902390111    1.5195445743   -0.0143520459
 N    1.1932396455    0.7701332040    0.0519200516
 C   -0.0755056521    0.0494291255    0.0147277336
 C   -0.4609065092   -1.0059910982    1.0540261945
 C   -1.9309031520   -1.3476068417    0.7361851772
 C   -1.6107920594   -2.5678763469   -0.0395163416
 C   -0.1205860001   -2.1398542152   -0.0051686787
 C   -0.4697070195   -1.0000629038   -1.0159329990
 N   -1.9436557824   -1.3106133089   -0.7770326976
 H   -0.3281395982    2.0853199277    0.8824088610
 H   -0.3574262334    2.0127597716   -0.9456121528
 H    1.6322986867    0.7621825804   -0.8665435376
 H   -0.1048135296   -0.9951896661    2.0809474316
 H   -2.8378079412   -1.0498642769    1.2463351154
 H   -2.1360048887   -3.5026266687   -0.1904257933
 H    0.7834575541   -2.7411807306    0.0125071835
 H   -0.1973973895   -0.9546772463   -2.0701856418