24

 C   -0.0991530738    1.3659396470    0.0345603451
 O   -0.2007604779   -0.0257289906    0.2074016054
 C    0.8014057524   -0.5498272457    1.0504237738
 C    0.6013051363   -2.0540637637    1.1725700965
 C    1.6527644667   -2.7178003988    2.0720064251
 C    1.5077281053   -4.2258047710    2.1363935669
 C    2.0249763482   -5.0068386443    3.2969040675
 N    0.5917846165   -4.9277734456    3.0410481550
 C   -0.2211233537   -4.1852586655    3.9910327027
 H    0.8612395624    1.6538240762   -0.4230669360
 H   -0.9112666716    1.6752652231   -0.6281126470
 H   -0.1957007999    1.9064363604    0.9901998435
 H    1.8031502212   -0.3275281029    0.6406253209
 H    0.7529675219   -0.0726879954    2.0459192912
 H   -0.4059034400   -2.2439619741    1.5601287042
 H    0.6363501914   -2.4947477042    0.1689318508
 H    2.6563937939   -2.4931235017    1.6851055522
 H    1.6161210568   -2.2833677096    3.0774163491
 H    1.5531075453   -4.6996402719    1.1550202656
 H    2.4872619009   -5.9817002645    3.1617776094
 H    2.4231316012   -4.4305746134    4.1330334841
 H    0.2741946521   -3.3108324422    4.4417193759
 H   -1.1391526316   -3.8455483841    3.5003836097
 H   -0.5058568739   -4.8600497073    4.8049811886