24

 C    3.0455494029    1.5984345833   -0.0836321152
 C    2.3125262230    0.2832422488    0.2098458926
 C    1.9659749953   -0.4819681353   -1.0538177244
 C    2.9038839301   -1.4791024752   -1.7107017899
 C    4.2765259731   -1.8110087081   -1.1611415552
 C    1.6144471117   -1.9558233924   -1.0660756863
 C    1.5735547601   -2.8148614319    0.1840668609
 C    1.6359016633   -4.3144992236   -0.1327572381
 H    3.9959835063    1.4156183835   -0.5955915357
 H    2.4442837141    2.2484797224   -0.7290766579
 H    3.2591775035    2.1498089852    0.8376834961
 H    2.9229374634   -0.3270469676    0.8825669903
 H    1.3877986377    0.5002533514    0.7613553999
 H    1.3920795885    0.1245671689   -1.7529758784
 H    2.8863105243   -1.4658723422   -2.7982094085
 H    4.3067142752   -1.8278256861   -0.0690384117
 H    4.6096360711   -2.7949661457   -1.5105424109
 H    5.0189468817   -1.0773251592   -1.4954164228
 H    0.8312334566   -2.2269745574   -1.7725580256
 H    2.3908201915   -2.5560617128    0.8642950874
 H    0.6480846654   -2.6001676917    0.7352381591
 H    0.8087725827   -4.6133015770   -0.7864034728
 H    2.5687523530   -4.5719339248   -0.6449713776
 H    1.5741045355   -4.9173595724    0.7789522847