18

 C    0.0482228491    1.4938057414    0.0819483381
 C   -0.1000881293    0.0076307487   -0.0379688302
 C   -0.9727142212   -0.8228524584    0.8157438446
 N    0.4990936737   -0.9400462354    0.9681448548
 C    1.0820774103   -1.7268940998   -0.1779784696
 C    0.1630888564   -2.2347185492   -1.2390837345
 C    0.5362125190   -0.7634242398   -1.2369920618
 C    1.1911789699   -0.1227116788   -2.3210336984
 C    1.7367630080    0.4348325600   -3.2389595202
 H    1.0635815221    1.8069041554   -0.1792629322
 H   -0.6451533262    2.0076932314   -0.5934805114
 H   -0.1621513124    1.8147058358    1.1057151292
 H   -1.4193640603   -0.3282463343    1.6738908281
 H   -1.5637940897   -1.6473933404    0.4359226502
 H    2.0933304484   -2.0911079933   -0.0519517052
 H    0.6780024299   -2.7927977876   -2.0145475533
 H   -0.8496108645   -2.5770118279   -1.0617622787
 H    2.2220086167    0.9228578723   -4.0471570496