18

 O   -0.6999586256    0.8505964146   -0.6242584690
 C    0.1239226737    1.0004652971    0.2413628240
 C    1.3459636555    1.8871745223    0.1244285384
 C    1.4342496005    2.6167216167   -1.2142923757
 C    2.7465840837    3.3925320813   -1.2990450064
 N    2.9761126441    4.1813373029   -0.0938203425
 C    2.4867933179    3.9502922171    1.1615386215
 O    2.8756191420    4.5748720453    2.1302885640
 C    1.3741041426    2.9087921352    1.2788208895
 H    0.0253626773    0.4815885900    1.2230114881
 H    2.2171188018    1.2219432498    0.2431453168
 H    1.3667780685    1.9129148788   -2.0475199412
 H    0.5828196896    3.2998184788   -1.3076099248
 H    3.5792093279    2.6898607314   -1.4581410060
 H    2.7313148394    4.0674973891   -2.1616884445
 H    3.7218803365    4.8627202820   -0.1100921405
 H    0.4274140998    3.4643055286    1.3051702566
 H    1.4854206447    2.4321901290    2.2556530418