17

 C   -0.0050469523    1.4625486947    0.2385708720
 O    1.2924887840    1.6371586128   -0.3780695066
 C    1.4240912369    0.2277731510   -0.6248608040
 C    0.0413293101   -0.0726040327    0.0489487058
 N   -0.4184712806   -0.6226793340   -1.2441660516
 C   -1.5408380853   -0.3654847828   -2.1504366719
 C   -0.7511851093   -0.3279933628   -3.5095921751
 N    0.6558352234    0.0448230340   -3.1722923443
 C    0.7113377839   -0.1679895598   -1.9232994343
 H    0.0141643209    1.7834006789    1.2859556974
 H   -0.8002726182    1.9973246518   -0.2931914582
 H    2.3983850885   -0.1802366331   -0.3580489991
 H   -0.1334603418   -0.7087363573    0.9152573325
 H   -2.3003494754   -1.1496430811   -2.1150606936
 H   -2.0204573895    0.6010717087   -1.9365751037
 H   -0.7632675464   -1.3150447140   -3.9886972284
 H   -1.1701010788    0.3906476758   -4.2179148470