16

 O    0.0962046012    1.3509581326    0.0589659045
 C    0.0804624570   -0.0526400895   -0.0162196709
 C   -1.3214915710   -0.6396565085   -0.1338265726
 N   -1.2979541176   -0.5882539644   -1.6294305456
 C    0.2686110071   -0.6331926707   -1.4368405722
 C    0.2247043224   -2.1616152927   -1.2886786039
 C   -1.2254147082   -1.9270867939   -0.9085284098
 C   -2.3540544904   -2.8753042700   -0.9918918435
 O   -2.2150945943   -4.0670110087   -1.1162601563
 H   -0.5175726477    1.6923562648   -0.6032313682
 H    0.7471759298   -0.4090111308    0.7741974861
 H   -2.2086494291   -0.3685381912    0.4293051903
 H    0.9054300731   -0.1277395568   -2.1602621322
 H    0.2917590580   -2.6809533819   -2.2466514182
 H    0.8976401537   -2.6278636685   -0.5636608013
 H   -3.3586673640   -2.3993415296   -0.9403019064