16

 O   -0.3311779930    1.3002585519    0.0802997716
 C    0.0383894212   -0.0584096252   -0.0611092810
 C    0.8874181141   -0.3192321870   -1.3232592633
 C    0.1385561105    0.0381135004   -2.5860797104
 C    0.4636939425   -0.6330821629   -3.8665769021
 N   -0.8133973268   -0.9147825506   -3.1849033612
 C    0.7390360351   -0.5487182749    1.1441912244
 N    1.3177342035   -0.9101519205    2.0768722250
 H    0.4674157140    1.8167748471    0.2411499120
 H   -0.9079876988   -0.6041483030   -0.1460897940
 H    1.8121193819    0.2681739718   -1.2443542113
 H    1.1866038852   -1.3743642425   -1.3437456107
 H   -0.2154130139    1.0652931737   -2.6178574442
 H    0.3735920886   -0.0921834308   -4.8040028433
 H    1.2378565526   -1.3967541046   -3.8589339733
 H   -0.7518156167   -1.8140689929   -2.7112357881