22

 C   -0.1622552781    1.4965372349    0.0015664665
 C    0.0779016551   -0.0158168435    0.0555415509
 C    0.7014874758   -0.5421469563   -1.2418849450
 C    0.9256507096   -0.4305053591    1.2879452713
 C    2.2507722784    0.1936857656    1.2968402817
 C    3.3446146155    0.6919436828    1.3002155504
 N    0.2090066613   -0.0858742928    2.5246326816
 C   -0.6996911026   -1.1086008854    3.0371157516
 C    0.5932342846   -0.8270996174    3.7192777745
 H    0.7777220598    2.0336853158   -0.1617153498
 H   -0.8419570480    1.7468722598   -0.8192146385
 H   -0.5971708957    1.8541974733    0.9375464591
 H   -0.8908436150   -0.5137350345    0.1972392741
 H    1.6861672661   -0.0947416535   -1.4121861290
 H    0.8268412339   -1.6304177360   -1.2178999870
 H    0.0677171139   -0.2972882342   -2.0998723393
 H    1.0784668657   -1.5258431525    1.2266414790
 H    4.3101129146    1.1341201613    1.3077112871
 H   -1.6370228987   -0.7449271375    3.4476951447
 H   -0.7768974271   -2.0463879387    2.4881116261
 H    1.3790202528   -1.5743796883    3.6236291275
 H    0.6223948681   -0.2531599439    4.6406839723