14

 C    0.5390211065    1.0038441711   -0.5703742144
 C   -0.3400279263    0.3067947673    0.4817009535
 C    0.4482353406   -0.3076442382    1.5806878964
 N    0.3915024197   -0.0232662852    2.8344814018
 N    1.3222927270   -0.8740801435    3.3978950724
 C    1.9463046129   -1.6725309499    2.4828602556
 O    2.7907486087   -2.5124127778    2.5933589424
 O    1.3513607342   -1.2825825909    1.2745615278
 H    1.2446053034    0.2996594132   -1.0185238853
 H   -0.0845156439    1.4178617975   -1.3669267768
 H    1.1105789601    1.8220065320   -0.1228694794
 H   -1.0360641677    1.0121461916    0.9427625033
 H   -0.9374686332   -0.4770716492    0.0002474942
 H    1.4913658181   -0.8668382377    4.3878565285