20

 C   -0.0175952272    1.4127538057    0.1238035481
 C   -0.0132732559   -0.0741421392   -0.0429573456
 N   -0.0077028377   -0.6576112773   -1.1734099794
 C   -0.0042988553   -2.1187554215   -1.0758072523
 C   -1.0761655342   -2.5628416380   -0.0361357890
 C   -0.0117143363   -2.1759441671    1.0255908366
 C   -0.0152632745   -2.7471252470    2.4193894748
 C    1.0623242930   -2.5573485568   -0.0284397921
 O   -0.0159004870   -0.7293246901    1.1539396552
 H    0.8609354358    1.7353796562    0.6919023122
 H   -0.0158159497    1.8882675947   -0.8563325372
 H   -0.9011729974    1.7308633633    0.6865835913
 H    0.0004251472   -2.5663143091   -2.0690403092
 H   -2.0277108184   -2.0269049483   -0.0257450530
 H   -1.2429534090   -3.6424010960   -0.0457294648
 H   -0.0122899654   -3.8398782673    2.3786191023
 H    0.8681527230   -2.4156942073    2.9741374774
 H   -0.9043599912   -2.4202790478    2.9677456360
 H    1.2347194573   -3.6360371032   -0.0368091487
 H    2.0110060329   -2.0165334638   -0.0112128626