16

 C    0.0872535923    1.4554889832    0.0362580658
 O    0.0403932329    0.0293528038    0.0517324657
 C    0.5536396024   -0.5936743381   -1.0197443415
 C    0.6541392536   -1.9448851844   -1.1908129109
 C    0.2673762986   -3.1260389043   -0.3840832645
 O   -0.8595779403   -3.8378245524   -0.8907131246
 O    1.2338091664   -2.1249833813   -2.4338524033
 C    1.4376479807   -0.8896541031   -2.9070722558
 N    1.0587599584    0.0700511146   -2.1192652713
 H    1.1184860875    1.8163245334   -0.0273696358
 H   -0.4786269174    1.8603762955   -0.8082062410
 H   -0.3632923639    1.7744953285    0.9769372024
 H    1.0803384846   -3.8590514641   -0.3619560937
 H    0.1010268168   -2.7802573897    0.6461829655
 H   -1.5860537072   -3.2094575420   -0.9621307545
 H    1.8907494747   -0.8035067695   -3.8822981825