15

 C    0.0324888462    1.5322044303   -0.1528309915
 C    0.0626784565    0.0077529190    0.0246227487
 O    0.7052350172   -0.3541647062    1.2386050926
 C   -1.3201812600   -0.5824776366   -0.0284496034
 C   -2.0059959392   -1.2470081398   -1.0158657045
 N   -3.2091824899   -1.5164582936   -0.4522957218
 N   -3.2789961357   -1.0610870202    0.8093271859
 N   -2.1364265749   -0.4925819874    1.0631534327
 H    1.0461634617    1.9316736622   -0.0635649906
 H   -0.3728993604    1.8089742767   -1.1318661906
 H   -0.5955327606    1.9890246211    0.6184496029
 H    0.6672187617   -0.4331065466   -0.7765381624
 H    0.0491762071   -0.2488277350    1.9390425833
 H   -1.7523790915   -1.5410437650   -2.0201541898
 H   -4.0007676983   -2.0008175789   -0.8450114115