19

 C    0.1056672497    1.4561967723   -0.4317974943
 C    0.0824084664   -0.0227146983   -0.0991365455
 C    1.2889396766   -0.8309321997   -0.4154264689
 N    0.9509540605   -0.5239052289    0.9875623697
 C   -1.2670077823   -0.7046656559   -0.1431650824
 C   -2.4305217382   -0.1416898955    0.7344064726
 N   -3.1691451555    0.0849311023   -0.5107450346
 C   -2.1891996142   -0.3768176016   -1.3543716992
 O   -2.1111387252   -0.4610407159   -2.5511473475
 H    1.1284082693    1.8440395059   -0.3957464878
 H   -0.2867975387    1.6350751679   -1.4378975372
 H   -0.4961942122    2.0402761534    0.2737443341
 H    1.1907414592   -1.8766262963   -0.6932891874
 H    2.1323841990   -0.3218234222   -0.8743619810
 H    1.5458373746    0.2288083411    1.3265047107
 H   -1.1389477964   -1.7807574962   -0.0091053640
 H   -2.8923725573   -0.8692096288    1.4083095470
 H   -2.1966079864    0.7717572576    1.2892017017
 H   -4.0966064692    0.4373936788   -0.6950179060