18

 O    0.1089080101    1.3587724583   -0.1809412996
 C    0.0353297625   -0.0494843472    0.0119437572
 C    0.5963842637   -0.4802479501    1.3970093058
 C   -0.6390304199   -0.7950087062    2.2079484034
 C   -1.7288672626   -0.8552722431    1.4401893553
 C   -1.4162463645   -0.5675385549    0.0166338957
 C   -2.4316950137   -0.0107533213   -0.9550681274
 C   -1.9592569325   -1.4288513563   -1.1086629552
 H   -0.4803039630    1.7672167456    0.4634710005
 H    0.6181513757   -0.4677332200   -0.8125931354
 H    1.2461735362   -1.3620210020    1.3134379081
 H    1.2125577898    0.3234292645    1.8150166093
 H   -0.6137065571   -0.9787006014    3.2759852940
 H   -2.7320458187   -1.0920507199    1.7790155665
 H   -3.4410323919    0.1588573838   -0.5941471171
 H   -2.0733529117    0.7319573045   -1.6590798414
 H   -1.2886114012   -1.6597253659   -1.9301554122
 H   -2.6401244413   -2.2327386885   -0.8485364074