15

 N   -0.2486865938    1.4376307644   -0.0779657448
 C   -0.0717630299    0.0135212404   -0.0582872296
 C   -1.2279307188   -0.7735440802   -0.0624064117
 O   -2.4300699001   -0.1788491669   -0.0841247226
 C   -1.1107245108   -2.1685077778   -0.0437824255
 C    0.1657936059   -2.7013229991   -0.0218985411
 N    1.2928093848   -1.9731974001   -0.0173599097
 C    1.1550132342   -0.6534778007   -0.0353223450
 O    2.2831207495    0.0944019814   -0.0309984695
 H    0.2060059818    1.8475541837   -0.8893554548
 H    0.1873618564    1.8676403905    0.7332573852
 H   -2.2315511372    0.7775855362   -0.0934382288
 H   -1.9933781405   -2.7948728585   -0.0466160081
 H    0.3028418673   -3.7794999146   -0.0069456109
 H    3.0125979313   -0.5412108388   -0.0143584530