18

 O    0.1095690411    1.2098161465    0.4289672501
 C    0.1346182536   -0.1523706757    0.2021286868
 C    0.6790966107   -0.9740247116   -0.9976153631
 N    0.0213774226   -2.0432948970   -0.1124212375
 C    0.6998821364   -1.3147650255    1.0598999829
 C   -1.1287588571   -1.0189502476    0.0388046632
 C   -2.1543194824   -1.2396182060    1.1410589596
 C   -3.2654866832   -0.2083320531    1.0904567610
 O   -3.7231920324    0.3482934474    2.0529812878
 H    1.0113249120    1.5288066724    0.5460304610
 H    0.1976407374   -0.8524076263   -1.9711331158
 H    1.7603587319   -1.1017547136   -1.0902177994
 H    1.7837503308   -1.4555994895    1.0767754262
 H    0.2651957328   -1.5252120510    2.0364428821
 H   -1.6485289769   -0.8886033101   -0.9178744254
 H   -2.6213389827   -2.2210612216    0.9658658665
 H   -1.7438070758   -1.2423769191    2.1515574182
 H   -3.6617021288   -0.0044738986    0.0679822259