18

 C   -0.0504109375    1.4414558786    0.0411319682
 N   -0.0136002330   -0.0073175121    0.0437947480
 C   -1.2463015506   -0.7900258381    0.0662094482
 C   -1.0927733652   -1.9071428156    1.1380755739
 C   -0.2392621378   -2.6080775678    0.0528347436
 C   -1.1290463384   -1.9114608151   -1.0057810472
 O    1.0783477759   -2.0365359980    0.0293565982
 C    1.1891603646   -0.6699205732    0.0247531272
 O    2.2777622571   -0.1507511029    0.0052919762
 H    0.9785986889    1.7991164278    0.0231516108
 H   -0.5792843660    1.8233136051   -0.8410079115
 H   -0.5495732936    1.8273073511    0.9386999776
 H   -2.1067461717   -0.1215514845    0.0794535218
 H   -0.6065683239   -1.6489511870    2.0804593825
 H   -2.0288171513   -2.4398497873    1.3165840534
 H   -0.0977784108   -3.6881754046    0.0526381326
 H   -2.0705484086   -2.4448120319   -1.1504314697
 H   -0.6749401178   -1.6570889545   -1.9650654839