15

 O   -0.0166364348   -0.0135971287   -0.0767985997
 C    0.0256752331    1.1776744075    0.0023988805
 C   -1.0588548521    2.2957304227    0.1040094575
 C    0.0181947277    3.3603151528   -0.2275411825
 O    0.5209701166    4.0996793854    0.9070729796
 C    1.4820473319    3.0763928925    1.1752674653
 C    2.8420198897    3.1818972094    0.4409839287
 O    2.4074498705    2.2496730655   -0.5959172943
 C    1.1069196705    2.2315279285   -0.0771435642
 H   -1.8225068348    2.1871348565   -0.6706848854
 H   -1.5400851199    2.4017238192    1.0784271591
 H   -0.1324511854    3.9747352332   -1.1148150686
 H    1.4847070064    2.7326804338    2.2107586141
 H    3.0555695529    4.1779432131    0.0417381806
 H    3.7077068678    2.7876085787    0.9815863292