17

 C   -0.0296882345   -1.1606388515   -0.0246088949
 C   -0.0112633229    0.0415518356    0.0008401991
 C    0.0181971167    1.4721835894    0.0137266411
 C    0.4134586964    2.2647920721   -1.2173642470
 C    1.2917190438    2.3144923471    0.0093636118
 C    1.0826099956    3.3671802791    1.0723072249
 C   -0.0043895031    4.4136976652    0.9072368846
 C   -0.3017355450    3.1196304239    1.6160734858
 O   -0.9120082231    2.0775147626    0.8915767350
 H   -0.0480117493   -2.2221770314   -0.0404093733
 H    0.7845019277    1.6933148796   -2.0607643148
 H   -0.2025386477    3.1154013216   -1.4819497496
 H    2.2608851388    1.8340355245   -0.0333120388
 H    1.9211971822    3.5800282489    1.7235588903
 H    0.0803753310    5.3008435471    1.5264269603
 H   -0.4397772411    4.5923871981   -0.0684130972
 H   -0.5565503855    3.1070976584    2.6702830927