20

 C   -0.0215400832    1.5267924119    0.0508390290
 C   -0.0088673677   -0.0022989123   -0.0614111076
 C    0.6880208960   -0.5434499339   -1.2809434412
 C    2.0816153216   -0.1680506352   -1.8923724764
 C    1.4308503664   -1.2044129273   -2.8542412414
 C    1.0220444379   -2.0317288619   -1.6071479951
 N    0.1209011599   -0.4852225981   -2.7034018123
 C   -0.2526509758    0.6023750891   -3.4481104434
 O    0.0781129116    0.8012226838   -4.5983006917
 H    0.9951263658    1.9321961254    0.0370802619
 H   -0.5767025640    1.9903229716   -0.7696624164
 H   -0.4932518080    1.8385184087    0.9870614544
 H    0.4993504651   -0.4273051161    0.8135098827
 H   -1.0320113827   -0.3971031051   -0.0438245993
 H    2.1872958012    0.8457537887   -2.2818608544
 H    2.9655226799   -0.4923296940   -1.3361510388
 H    1.7781720522   -1.5468226714   -3.8254175162
 H    1.8330198734   -2.4787949361   -1.0298781477
 H    0.1672804269   -2.6978647713   -1.7300175278
 H   -0.9871047666    1.2405849536   -2.9166997084