17

 O    0.1516522993    1.3687807719   -0.2562288834
 C    0.1298146169   -0.0220591394   -0.0325062825
 C   -1.3189073803   -0.5187598052    0.1135280651
 O   -2.0775210445   -0.0434856616   -1.0090846234
 C   -1.4190662588   -1.9953042342    0.2754974087
 C   -1.8276621665   -2.8197183964    1.2762432170
 C   -1.6676019485   -4.1604724623    0.7935450285
 C   -1.1799469356   -4.0502565754   -0.4677159724
 O   -1.0158263642   -2.7405996371   -0.8008638452
 H   -0.5524277439    1.5320495853   -0.8980144773
 H    0.6155542119   -0.5791201068   -0.8516774265
 H    0.6909145462   -0.2240475656    0.8858686953
 H   -1.7657533198   -0.0406422456    0.9905233353
 H   -1.8978117053   -0.6402286839   -1.7454028072
 H   -2.2015038494   -2.5115916991    2.2401263228
 H   -1.8923682669   -5.0762894265    1.3169711821
 H   -0.9098319107   -4.7635381280   -1.2286334770