19

 O   -0.0712989347    1.4711612519    0.0192320279
 C    0.0067514767    0.0539326010   -0.0033344318
 C   -1.3741810896   -0.5448053556   -0.2059609750
 C   -1.5927116661   -0.6562106273   -1.7011642594
 C   -0.3358705657   -0.1120824876   -2.3803813999
 C    0.6592605479   -0.5416342166   -1.2825293798
 C    0.3197099314   -2.0460604257   -1.1199985426
 O    0.9144907487   -2.6788821320    0.0032135301
 C   -1.1760447127   -1.8756346287   -0.9026939462
 H    0.8083519922    1.8118853957    0.2089175689
 H    0.4897285396   -0.3288226487    0.9033495287
 H   -2.1836219730   -0.3703452089    0.4892989859
 H   -2.5791295902   -0.5728942052   -2.1374746988
 H   -0.1289441619   -0.5864216197   -3.3455321978
 H   -0.3640186762    0.9722724616   -2.5111465999
 H    1.7116035124   -0.3007285785   -1.4452136379
 H    0.5400139544   -2.6111236610   -2.0385702435
 H    1.8539360318   -2.7815274593   -0.1793429743
 H   -1.8299718451   -2.7209277055   -0.7363554348