17

 C    0.0066433823    1.4926384097    0.3571634868
 C    0.0283724681    0.0391358555   -0.1349292246
 C   -1.3500458485   -0.5615656166   -0.2329348747
 O   -2.0077691308   -0.8872642500    1.0151641812
 C   -1.7116141840   -1.9476960037    0.0850080810
 C   -2.9057676376   -2.3083465164   -0.7975524984
 O   -3.4293400131   -3.3907894743   -0.8922395578
 C   -3.2400091887   -1.0614310783   -1.5497394708
 C   -2.3575638976   -0.0973045124   -1.2611948144
 H    1.0232348431    1.8871541469    0.4382645398
 H   -0.5472040178    2.1449808721   -0.3260397974
 H   -0.4655293061    1.5571226436    1.3415004466
 H    0.5101878961   -0.0213347443   -1.1187290700
 H    0.6221716707   -0.5741560894    0.5503376329
 H   -1.0209312436   -2.7140959168    0.4227774771
 H   -4.0955547199   -0.9956408865   -2.2093173053
 H   -2.3574910425    0.9076884709   -1.6665804421