18

 C   -0.0700504058    1.6175919751    0.0105996399
 C    1.4380775254    1.2648570277   -0.0281708630
 C    1.1474583464    0.1803561921    1.0636459615
 C    2.1171986921   -0.9880963770    1.2253477062
 C    2.5364877752   -1.5424765688   -0.1086918497
 C    2.0453492058   -0.9865345844   -1.2142373311
 C    1.0959107729    0.1671895197   -1.0948435091
 C   -0.0092389819    0.0694746796    0.0136858690
 H   -0.4380040975    2.0950510516    0.9232505851
 H   -0.4853984393    2.0891255867   -0.8847540293
 H    2.2856680172    1.9525099929   -0.0615485314
 H    0.8402398484    0.5862813876    2.0334703949
 H    2.9985826124   -0.6632052438    1.7978168918
 H    1.6519939547   -1.7753999218    1.8367793344
 H    3.2273958947   -2.3800022678   -0.1371341773
 H    2.3129390055   -1.3451684179   -2.2036985372
 H    0.7506269759    0.5515136273   -2.0581531282
 H   -0.8449668421   -0.6331740990    0.0289868236