19

 C   -0.2713510956    1.6280894145   -0.0790832815
 C    0.0088659810    0.1299157494   -0.0872506044
 C    0.7025500735   -0.5662886745   -1.2755665838
 C    2.1433827270   -0.2330976200   -1.3630294200
 O    2.6051251711    1.0518942874   -1.0583753653
 C    1.7442096577   -1.2537579492   -0.3107827621
 C    2.3156648273   -2.6411808047   -0.2294758557
 C    1.0850130858   -0.5091165191    0.8223428617
 O    1.2411733815   -0.5427919007    2.0115298405
 H    0.6277218210    2.1976123978   -0.3146798927
 H   -1.0453789251    1.8816006684   -0.8113087658
 H   -0.6340663234    1.9326586052    0.9079861798
 H   -0.9154752820   -0.4176080311    0.1463495388
 H    0.1771546771   -1.0338848381   -2.0998356354
 H    2.6578941703   -0.6965177069   -2.2078249830
 H    3.4594785676    0.9698088652   -0.6211345418
 H    2.6073787985   -3.0105641635   -1.2175650791
 H    3.2045608269   -2.6558775532    0.4108096041
 H    1.5943109699   -3.3460995768    0.1964153658