14

 O    0.1373157737    1.4912455716   -0.0294150605
 C    0.1087511840    0.0665773342   -0.0102821675
 C    0.6546199776   -0.5133798372   -1.2401045930
 C    1.1186471110   -0.9430978763   -2.2611492782
 C    0.7932774448   -0.4563992642    1.2330528936
 N    1.2388153123   -1.7064014420    1.3639198286
 N    1.7179087214   -1.7252388652    2.6000461114
 N    1.6327378009   -0.5980726102    3.2919079603
 C    1.0375388455    0.2327022706    2.4352483957
 H    1.0361240480    1.7570311907   -0.2565963742
 H   -0.9593475049   -0.1806945654    0.0485418807
 H    1.5222144397   -1.3367090447   -3.1613289164
 H    2.1403227403   -2.5535036858    2.9879682984
 H    0.8159081957    1.2530068339    2.6987853610