18

 C   -0.0032887666    1.5119537026   -0.0666937007
 C    0.0176283188    0.0582762391   -0.0007171620
 C    0.0285145300   -1.1441503608    0.0742020801
 C    0.0553378207   -2.5989278194    0.1009072742
 O    1.0217099395   -3.1243466230   -0.8015439752
 C    0.2501071448   -3.3318618288    1.4815079882
 C   -1.0855506709   -4.0440603746    1.2536746761
 N   -2.1059115490   -2.9705318336    1.1589910210
 C   -1.3049187214   -3.3338781672   -0.0304659694
 H    1.0007361336    1.9179388171   -0.2325738046
 H   -0.6445036691    1.8665618826   -0.8813087902
 H   -0.3850639573    1.9417315782    0.8659443859
 H    0.9569148696   -2.6143904362   -1.6164872527
 H    1.1194049399   -3.9870478248    1.4111515922
 H    0.3065422748   -2.6980128453    2.3674958163
 H   -1.3599951224   -5.0489843854    1.5476906472
 H   -3.0149622803   -3.4205201547    1.0510013268
 H   -1.7639796647   -3.6572103258   -0.9571757333