17

 C    0.1993727774    1.3818305484   -0.0074825984
 N   -0.2477320965    0.0001841246   -0.0021539315
 C   -0.0875448934   -0.7178910313    1.2506129737
 C   -0.0373626149   -0.7445609993   -1.1515130959
 C    0.0174154220   -2.1170879655   -1.3582139525
 C    0.1962753551   -2.2568036341   -2.7515690634
 N    0.2620643418   -1.0927510998   -3.3802300062
 N    0.1205044034   -0.1790241009   -2.3800241266
 H    1.2899976900    1.4902396440   -0.1286591149
 H   -0.2953054892    1.9436913190   -0.8072953723
 H   -0.0900461211    1.8512620076    0.9353384766
 H   -0.4175834263   -0.0782701598    2.0729387838
 H   -0.7171199863   -1.6113296669    1.2460626092
 H    0.9521677333   -1.0292244434    1.4424611793
 H   -0.0560912586   -2.8944250287   -0.6175809384
 H    0.2837240940   -3.1732289759   -3.3178126754
 H    0.1384266293    0.7968881321   -2.6136193071