18

 C   -0.1102410480    1.4511520494    0.0973004024
 N    0.0999371185    0.0191425623   -0.0475427161
 C    0.6790337497   -0.6261780205    0.8617358883
 C    0.9535167524   -2.1101690744    0.8357379913
 C    1.6897177578   -2.3773633932    2.1361602241
 O    2.1650229372   -3.4120766743    2.5203295281
 C    1.7356220755   -1.0520968831    2.9071149487
 C    3.1448116738   -0.6551629267    3.3258667091
 O    1.1613881052   -0.0758110208    2.0310267998
 H    0.5623079832    1.9857414774   -0.5844276006
 H   -1.1321253132    1.6902122140   -0.2144438479
 H    0.0522780733    1.8316536550    1.1115287566
 H    0.0279577157   -2.6929179261    0.7918653971
 H    1.5545051932   -2.4045058325   -0.0290353803
 H    1.0918138324   -1.1450334349    3.7932062685
 H    3.7884926845   -0.5340417373    2.4498206516
 H    3.1290840707    0.2863981096    3.8796718093
 H    3.5633594582   -1.4388907640    3.9624522499