21

 C   -0.7945943724    1.0604534700    0.0140139314
 C    0.1706403579   -0.1116213317   -0.1356811643
 C    1.3641558055    0.1294817534   -1.0917187547
 C    2.4151119477   -0.8167030204   -0.5657468840
 C    2.1231056206   -1.2543198229    0.6559626279
 C    0.8328850953   -0.6418774769    1.1944125129
 C    1.1811113234    0.4826448151    2.2027171612
 C   -0.0254815631   -1.6260822252    1.8540082674
 C   -0.7391616805   -2.4243291328    2.4022366483
 H   -0.2925052942    1.9625051448    0.3781417861
 H   -1.2491738199    1.3050364518   -0.9518000434
 H   -1.6050677185    0.8182344146    0.7093092698
 H   -0.3872051956   -0.9643765051   -0.5376459243
 H    1.0943864606   -0.0596787476   -2.1369679003
 H    1.7168861600    1.1710828538   -1.0498766856
 H    3.3124260386   -1.0705004631   -1.1195111192
 H    2.7272841768   -1.9182656521    1.2634057375
 H    1.7861794886    1.2561545801    1.7204928820
 H    0.2769794488    0.9428181601    2.6101186929
 H    1.7559327316    0.0734786601    3.0382670095
 H   -1.3651078512   -3.1355980758    2.8814165089