17

 O    0.6657342598    0.6525629450   -0.8178790199
 C    0.2157185166   -0.4304585077   -0.0664824115
 C    0.0886017751   -0.2177260413    1.4464880422
 O    0.4499807616    0.7099031683    2.1239209351
 C   -1.1766014058   -1.0760849166    1.5603787208
 O   -2.1451610274   -0.6508355378    2.4665285772
 C   -1.3005310424   -0.7546473927    0.0445458693
 C   -2.3775309993    0.1059153631   -0.5356606930
 C   -2.2245621823   -1.3342861345   -0.9762979020
 H    0.6580802163    1.4256187395   -0.2383648553
 H    0.7904401141   -1.3212811785   -0.3442580253
 H   -0.9787465428   -2.1416621396    1.7229519205
 H   -1.8997513599    0.2394283426    2.7506358516
 H   -3.2152308699    0.3531732754    0.1078775716
 H   -2.0719786818    0.8833116792   -1.2279848134
 H   -1.8279119425   -1.5245825777   -1.9686946894
 H   -2.9657386693   -2.0522065267   -0.6391879285