15

 C   -0.0181604159    1.4101498645    0.1560845586
 N   -0.0699214209   -0.0108685578   -0.1394974378
 C   -1.2299811440   -0.7152710602   -0.0643041724
 N   -1.2641464767   -2.0372368642    0.0104739013
 N   -2.6153048239   -2.2842371938   -0.0004343090
 C   -3.1832134599   -3.5599708429    0.0598021493
 O   -2.5696866231   -4.5860074355    0.1212054412
 C   -3.2923388595   -1.0997536932   -0.0676841429
 N   -2.4671279082   -0.0911408145   -0.1077321457
 H    0.9150220425    1.8195468294   -0.2377896565
 H   -0.8540686099    1.9091748671   -0.3355998671
 H   -0.0724948843    1.6300511350    1.2317355264
 H    0.7545575990   -0.5557785328    0.0596372843
 H   -4.2864882963   -3.4857248952    0.0431994903
 H   -4.3713210489   -1.0457021158   -0.0830324800