19

 C   -0.0338186561    1.5832492871    0.0561407077
 C    1.4789870631    1.8125641942   -0.0154731302
 C    2.0200149955    0.9025071004   -1.1656846477
 C    1.0161396667   -0.3095019949   -1.1643516211
 C    0.0224985596    0.0541076362   -0.0135418372
 C    1.1322489084   -0.4033122972    0.9880178717
 C    2.1361184507    0.8087007853    0.9866937089
 C    2.9474431569    0.1267710086   -0.1681558165
 C    1.9520982615   -1.0749518663   -0.1668431574
 H   -0.4778393363    1.9520486919    0.9888559141
 H   -0.5736864234    2.0294894251   -0.7879787588
 H    1.8435280331    2.8401597435    0.0096461754
 H    2.3416885576    1.3265915692   -2.1164923260
 H    0.6583448689   -0.7057606602   -2.1142561180
 H   -0.9192140019   -0.4953736067    0.0133109000
 H    0.8766633085   -0.8821542050    1.9328686437
 H    2.5600005473    1.1502065074    1.9306505088
 H    4.0332234583    0.0737418659   -0.2290339432
 H    2.2063342115   -2.1319414042   -0.2266284843