21

 C    0.0218242755    1.5562052266   -0.0027845822
 C    0.0375061325    0.0448912014    0.0492257667
 C   -0.5783992227   -0.6666320531    1.2355450001
 C    0.9158000099   -0.7272653638    1.0160497394
 C    1.5381273783   -1.9189027293    0.2780346782
 C    1.1127899726   -1.8160220375   -1.1941560948
 C   -0.3231844381   -2.0744669565   -1.5687212919
 O   -1.2186251894   -2.7508443279   -0.7317056915
 C    0.1181401436   -0.6577634583   -1.2996104858
 H    0.8522204988    1.9466224487   -0.6037867006
 H   -0.9104862762    1.9326408295   -0.4406741471
 H    0.1086762747    1.9821795327    1.0017117544
 H   -0.9143015478   -0.0297504813    2.0492067475
 H   -1.1783768990   -1.5488710913    1.0723224259
 H    1.5452388749   -0.1983178169    1.7254664269
 H    2.6293760188   -1.8605413154    0.3364312957
 H    1.2527422054   -2.8793699324    0.7256084863
 H    1.8711675956   -1.9948522334   -1.9502080876
 H   -0.4875894071   -2.2893073406   -2.6264849793
 H   -0.9404441660   -3.6723981190   -0.6931537766
 H    0.1226823756    0.0009908777   -2.1621797236