19

 O    0.6055711344    0.4998420447    0.7730629786
 C   -0.0156013800    0.1655890417   -0.4541374989
 C   -1.3688432635   -0.4664300020   -0.2255137534
 O   -2.2281505604    0.4014692050    0.4856890472
 C   -1.9784371048   -1.4247901743   -1.2174546804
 C   -1.5342716241   -1.9072287366    0.1511531006
 C   -0.3509349371   -2.8480609518    0.3295733790
 C   -0.7356600672   -4.2532596032    0.2367152272
 C   -1.0703462033   -5.4051716345    0.1632090926
 H   -0.0852527553    0.9058805257    1.3114916873
 H   -0.1446695251    1.0581245599   -1.0931127832
 H    0.6588802447   -0.5114469912   -0.9858905274
 H   -2.5164340470    1.0938925207   -0.1213025109
 H   -3.0439898741   -1.3468074115   -1.4026291485
 H   -1.3856676337   -1.7143424697   -2.0802215125
 H   -2.3428717057   -2.0786329159    0.8546736948
 H    0.4176815846   -2.6383558995   -0.4237220941
 H    0.1226254783   -2.6569024071    1.3006899417
 H   -1.3567009610   -6.4253054506    0.0978855201