20

 O   -0.1977637593    1.4270209766   -0.0537770209
 C   -0.0124156999    0.0170703711    0.0329715787
 C    0.5927379824   -0.5730497064   -1.2335889020
 C    0.1706932375   -0.0844236348   -2.5637586457
 N    1.5282359632    0.2117319649   -2.0568602571
 C    0.8182456966   -0.3329801725    1.2663530385
 C    0.1598921196   -0.1131116149    2.6447579069
 C    0.3208403914   -1.6389464406    2.8021218269
 O    0.8972772481   -1.7580829205    1.4805065263
 H    0.6225332109    1.8575830316    0.2114418585
 H   -1.0155984036   -0.4070680897    0.1694940605
 H    0.8729690396   -1.6174583576   -1.1213526019
 H    0.1330912834   -0.7657227244   -3.4086648680
 H   -0.5457524153    0.7315619783   -2.5907176118
 H    1.5223885774    1.1757499453   -1.7275919463
 H    1.8251083292    0.1042256303    1.1608831389
 H    0.7250777684    0.4961575553    3.3508846294
 H   -0.8679722227    0.2505380377    2.5976823208
 H    1.0235247608   -1.9619833009    3.5791491228
 H   -0.6042274478   -2.2190076987    2.8963006452