20

 C    0.0693968030    1.3852078204   -0.3762018451
 C   -0.0551382068    0.0274959860    0.3244765771
 C   -1.4476618931   -0.5558994551    0.1955112409
 C   -1.8624972071   -1.3272894737   -1.0317087555
 C   -1.6624310290   -2.0525330596    0.2931916335
 O   -0.5266044658   -2.8338209915    0.4663709358
 C   -0.6121527359   -4.1245311675   -0.1256744730
 C   -2.8392850263   -2.5315074918    0.9925626800
 N   -3.7725116957   -2.9289101508    1.5490665742
 H    1.0799364821    1.7894470441   -0.2653268871
 H   -0.1437551646    1.2993964723   -1.4468546534
 H   -0.6300155476    2.1164080728    0.0433290251
 H    0.6712615868   -0.6799288092   -0.0851361681
 H    0.1887833285    0.1352105262    1.3881628338
 H   -2.2324215102    0.0357663610    0.6593475016
 H   -2.8683745241   -1.2200702894   -1.4201761436
 H   -1.0967356902   -1.5248917744   -1.7749170856
 H   -0.7773414160   -4.0568808568   -1.2092417924
 H    0.3429220906   -4.6163042849    0.0664126536
 H   -1.4208579286   -4.7162565681    0.3216117981