16

 O   -0.7626298927    0.8102217277    0.5530296346
 C    0.0561403179    1.0210856372   -0.3074269125
 C    1.2639508274    1.9041522378   -0.1633002187
 C    1.1658506428    3.4269252561   -0.5629809201
 C    0.3514333967    3.6583295900    0.7411033639
 C    1.5180527461    2.7060274559    1.1461106250
 C    2.4478387525    3.6537996144    0.3082118243
 C    3.7310072264    3.1629056840   -0.1686549139
 N    4.7578317396    2.7868218317   -0.5448719593
 H   -0.0310866868    0.5375915516   -1.3073872505
 H    2.1318659003    1.3940793056   -0.5964425726
 H    0.9875150110    3.8335533633   -1.5579672243
 H    0.3860812345    4.6693101353    1.1536973887
 H   -0.6494271526    3.2365000913    0.7858087357
 H    1.7390335704    2.2984765090    2.1309323517
 H    2.5554029266    4.6649590190    0.7082165879