17

 O    0.0079402743    1.4267377977    0.0937339184
 C   -0.0127917797    0.0348183722   -0.0291636066
 C   -1.3188433572   -0.7343830814    0.0094448056
 C   -2.0062119101   -0.7782327495   -1.4024322268
 C   -1.5773407213    0.1881767892   -2.4458444029
 C   -0.2357215229    0.2084118198   -2.5193639452
 C    0.3297823449   -0.6576155042   -1.4319179002
 C   -0.8288731770   -1.6619927717   -1.0579990586
 O   -0.7818781564   -3.0330317272   -1.0149317674
 H   -0.5529656770    1.7783606561   -0.6086011618
 H    0.6723284514   -0.3586282847    0.7248273256
 H   -1.9216317436   -0.9474314836    0.8837249331
 H   -3.0049829400   -1.1983277099   -1.3816435798
 H   -2.2662318944    0.7686489531   -3.0476118427
 H    0.3632301246    0.8378395186   -3.1655051175
 H    1.3490412282   -1.0225631720   -1.5468005295
 H   -0.7816950636   -3.3656987824   -1.9202515138