16

 C    0.1155428395    1.4403217335    0.1185038252
 N    0.2311702252   -0.0004462784    0.1007935025
 C    0.5216993355   -0.6439386614   -0.9548641113
 C    0.6557402889   -2.0672017770   -1.0593323904
 C    0.9698194153   -2.6621592622   -2.2345665754
 C    1.1251132396   -4.1421195576   -2.4130208118
 O    1.1749468462   -1.9871485236   -3.3633015098
 N    1.0333122219   -0.4079403179   -3.2787804469
 N    0.7549698201    0.0602521860   -2.2171898069
 H    0.8189642805    1.8407069188    0.8583172755
 H    0.2974076421    1.9291511557   -0.8451959163
 H   -0.8882663230    1.7084789323    0.4690647182
 H    0.4986252005   -2.6596441969   -0.1692057461
 H    0.4178304264   -4.5077499601   -3.1644816335
 H    2.1322736712   -4.3749873137   -2.7736131132
 H    0.9506767301   -4.6647358576   -1.4704074199