18

 C    0.2734388821    0.9298247979    0.5291882820
 O    0.1012986206   -0.3421420678   -0.0568312220
 C    0.4078122580   -0.3988222449   -1.4360816644
 C    1.9138395396   -0.4896454277   -1.7108175260
 O    2.2739152902   -1.8512920455   -1.4799264510
 C    1.1152243030   -2.6789417785   -1.5619517644
 C   -0.0670755854   -1.7594799326   -1.9497605365
 C    1.3346503345   -3.7605975868   -2.5347607246
 N    1.4867032256   -4.6157194099   -3.2965669123
 H    1.3205404952    1.2648970214    0.5128788256
 H   -0.3411569802    1.6910342513    0.0243623085
 H   -0.0476268982    0.8482024070    1.5698472334
 H   -0.0589223104    0.4412298340   -1.9706551935
 H    2.1340205436   -0.1997703231   -2.7487976964
 H    2.5139607280    0.1342424722   -1.0429379297
 H    0.9419551249   -3.1357146354   -0.5796927293
 H   -1.0048187852   -2.0656846091   -1.4863498155
 H   -0.1934399158   -1.7340795024   -3.0343400737