19

 C   -0.0904969739    1.4836979865    0.1123767124
 C    1.3634176962    1.9075353223    0.1136323363
 C    2.1694302099    0.9378624681   -0.3368895341
 C    3.5156606987    0.6228024768    0.2302885650
 O    3.3114814455   -0.4582521526    1.1725943072
 C    1.9685933098   -0.6299191010    1.6479524500
 C    1.0014606320   -0.9511889676    0.4979141978
 C    0.0116906180   -0.0043279827   -0.2150814170
 C    1.3791782326   -0.2599299138   -0.7842584408
 H   -0.5378153776    1.6825746662    1.0953389594
 H   -0.7171543467    2.0092638651   -0.6222500790
 H    1.7093592829    2.7912408611    0.6408857599
 H    4.2431333870    0.2499082583   -0.4996747373
 H    3.9490719184    1.4931217830    0.7431867897
 H    2.0359874344   -1.4815483713    2.3299855025
 H    1.6426591376    0.2359862160    2.2385073767
 H    0.7089651503   -1.9950711774    0.4245807100
 H   -0.8555176507   -0.5001880813   -0.6370744531
 H    1.6043347155   -0.7912709457   -1.7026326153