21

 C   -0.0901619866    1.5026485973    0.1217438020
 C   -0.0415689440   -0.0112939666   -0.0889120604
 C    0.7318533240   -0.4740525564   -1.3578327514
 N    0.2000232274    0.0829507236   -2.6145652653
 C    2.1376026518   -0.0292746622   -1.2404328251
 N    3.2308529498    0.3248488681   -1.1179501003
 C    0.7314413956   -2.0083114380   -1.4172718575
 C   -0.3021468035   -2.7670770681   -2.2123687382
 C    1.1372372814   -2.7446543547   -2.6618570409
 H    0.9154119166    1.9203658262    0.2322332173
 H   -0.5782949002    2.0121144698   -0.7152625953
 H   -0.6545096556    1.7439410328    1.0268241512
 H    0.4083335763   -0.4923693755    0.7870063985
 H   -1.0563426799   -0.4186326916   -0.1802968677
 H   -0.8152071460    0.0729879367   -2.5765317830
 H    0.4799808755    1.0524882306   -2.7168946104
 H    1.0287967784   -2.4572413264   -0.4744766617
 H   -0.7047589705   -3.6741152495   -1.7755418362
 H   -1.0095090569   -2.2083265883   -2.8138469708
 H    1.3613042783   -2.1404941005   -3.5328585905
 H    1.7371166679   -3.6405435474   -2.5514231843