18

 C   -0.1700503849    1.6065631545    0.1570038722
 C   -0.0815842599    0.0964004943    0.1447117289
 C    1.0708963052   -0.6415714784   -0.4027197984
 C    0.8186222567   -0.7157745960    1.1203269400
 C    1.7798495058    0.0333836497    1.9525263734
 O    2.1252494400   -0.2385371672    3.0850048027
 C    0.1826739595   -2.0154011894    1.5831254875
 N    0.4804980545   -2.4056901727    2.8417313259
 O   -0.5560171403   -2.6406740577    0.8373900543
 H    0.8097316164    2.0908199335    0.1729080936
 H   -0.6831187320    1.9437634320   -0.7498969484
 H   -0.7433308137    1.9692069592    1.0161040937
 H   -1.0304769593   -0.4183502787    0.0279300889
 H    0.8900993860   -1.5755202285   -0.9204923051
 H    1.9468891689   -0.0816930932   -0.7156643627
 H    2.2175385585    0.9209693220    1.4512709640
 H    1.1199622603   -1.8611579794    3.4050584206
 H    0.0845952482   -3.2709426641    3.1697968387