19

 O   -0.0862282676    1.4357649743    0.0644177768
 C    0.0065785396    0.0552572194    0.0586353945
 C   -0.1631053292   -0.7651469742   -1.1854349943
 C   -1.1428835623   -0.9361367134   -0.0383308164
 C   -0.5314599231   -1.7747643214    1.0934971312
 C   -0.2375955583   -3.2579408311    0.8200756984
 C    0.4676815889   -3.9027979632    1.9216846281
 C    1.0490844334   -4.4059685096    2.8459868111
 C    0.6694655130   -0.7686504599    1.1717712439
 H    0.6767987334    1.7924803711   -0.4035715423
 H   -0.5729257425   -0.2143235252   -2.0262199348
 H    0.5446191146   -1.5447732272   -1.4588504584
 H   -2.2003456264   -0.7482194856   -0.1798172037
 H   -1.1381483666   -1.7003160908    1.9995727623
 H   -1.1833772913   -3.7831507951    0.6316454545
 H    0.3533075274   -3.3602495385   -0.0987229904
 H    1.5619040733   -4.8625896180    3.6556207899
 H    1.6652973616   -1.1707821963    0.9567880491
 H    0.6992746822   -0.2347148952    2.1232363507