17

 C   -0.1022941141    1.5228353534   -0.0491194763
 C    0.0543613139    0.0229184401    0.0722933062
 C    1.3690026200   -0.7328040682   -0.1861681725
 C    2.6319444667    0.0534861897   -0.0901613822
 O    3.4947319199    0.2011081068   -0.9053692558
 O    2.7145118534    0.6310628656    1.1561709120
 C    1.6997291553    0.1396565252    2.0391515795
 C    0.7312643629   -0.6803395132    1.1927914177
 O    0.0629628917   -1.7323082121    1.8000994175
 H    0.7711158037    2.0652803757    0.3212567907
 H   -0.2492974948    1.8079107401   -1.0953112308
 H   -0.9767711130    1.8616501634    0.5163780674
 H   -0.7899016031   -0.5492878003   -0.3042421365
 H    1.3564081271   -1.5962531211   -0.8373645441
 H    2.1679834495   -0.4939286741    2.8032215883
 H    1.2286083213    0.9924147194    2.5372830391
 H    0.7114023896   -2.3898907503    2.0789166997