20

 C    0.1877810103    1.5559166024    0.0781024596
 C    0.0599407612    0.0244793863   -0.0194779076
 C   -1.4078494147   -0.4805656058    0.0732051072
 N   -2.1036884133   -0.1018970184    1.2929825008
 C   -3.0220919232    1.0277280389    1.2857679522
 C   -2.0033541506   -0.8798806450    2.4107156777
 O   -2.5585991350   -0.6769728859    3.4697369932
 C    0.6571882460   -0.4822270247   -1.2530286246
 C    1.1125700306   -0.8980471433   -2.2850576608
 H    1.2348001577    1.8561804256   -0.0086849894
 H   -0.3711971185    2.0467552976   -0.7247202609
 H   -0.1898805882    1.9097980172    1.0406566146
 H    0.6017207772   -0.4137865163    0.8300618326
 H   -1.9753600830   -0.0993322425   -0.7813862645
 H   -1.3977049459   -1.5719100752   -0.0142100108
 H   -3.8201494312    0.8724791719    0.5496583279
 H   -3.4593912670    1.1017322365    2.2815537061
 H   -2.5077934540    1.9629274816    1.0455950406
 H   -1.3364991912   -1.7491470793    2.2413827584
 H    1.5315446031   -1.2674202616   -3.1883228523