14

 N    0.0382743716    1.3534729083    0.2514802847
 C    0.0006903211    0.0998874291    0.1296092957
 O    1.0720223969   -0.7762076737   -0.0316400951
 N    0.6422490822   -2.1596983208    0.1208968909
 C   -0.6331800759   -2.0257224760    0.1635501443
 C   -1.9378356618   -2.5524409629    0.7016186253
 C   -2.2071419968   -1.7611457803    1.9810092125
 C   -2.4013197973   -1.0863119064    0.6578664047
 N   -1.1038491605   -0.7414132250    0.0447129973
 H    0.9989347998    1.6895363739    0.2518026253
 H   -2.4623654107   -3.4540171110    0.4262107466
 H   -3.1185200192   -2.0433136049    2.5002723804
 H   -1.3840889613   -1.4737296087    2.6269191228
 H   -3.3185173179   -0.6521638416    0.2878338846