13

 C    0.1070753019    1.3922253134   -0.0820659464
 N   -0.1776852460   -0.0122984060    0.1436337747
 C    0.5462844906   -0.7346609045    1.0539784907
 N    0.6386150601   -2.0552698689    1.0890103287
 C    1.4116477822   -2.2671913740    2.1928893864
 N    1.8097820574   -1.1909592110    2.8388488072
 N    1.2417575127   -0.1955878216    2.0824055858
 H    1.1534258267    1.5885424589   -0.3608159495
 H   -0.5390303098    1.7588505858   -0.8814826379
 H   -0.1271313129    1.9779328778    0.8147013550
 H   -0.4148994780   -0.5601000548   -0.6691591567
 H    1.6898506215   -3.2567006433    2.5249388288
 H    1.3639064335    0.7654275083    2.3485612931