25

 C   -0.0776363234    1.5146443964   -0.2132366009
 C    0.0275822714   -0.0095345536   -0.0627032592
 C    0.8568790867   -0.6077732390   -1.2083612511
 C    0.6291605874   -0.4311278590    1.2913045021
 C   -0.1193163926    0.0166989052    2.5669933196
 C   -1.5358399532   -0.5649429865    2.6547394328
 C    0.7415567677   -0.3430653993    3.7681687369
 C    0.2404497790   -0.7547747773    5.0856765971
 O    0.7756089000   -1.7166592205    4.1725505496
 H    0.9067889811    1.9869253284   -0.1063701534
 H   -0.4668035201    1.7827444630   -1.2010376897
 H   -0.7430512595    1.9600698922    0.5324645695
 H   -0.9849278595   -0.4276980803   -0.1393230486
 H    1.8824711423   -0.2193207494   -1.1935789005
 H    0.9146105438   -1.6986532551   -1.1324665328
 H    0.4231363290   -0.3605877201   -2.1830316042
 H    0.7165769056   -1.5249813135    1.3180461627
 H    1.6581276080   -0.0457252100    1.3402925238
 H   -0.1878090550    1.1134563768    2.5628370511
 H   -2.1078517373   -0.3514793058    1.7485485948
 H   -1.4956891063   -1.6507400485    2.7851836551
 H   -2.0935645585   -0.1397831978    3.4944089697
 H    1.7317159882    0.1194277802    3.7487627252
 H    0.8461092431   -0.5653331605    5.9714869711
 H   -0.8285617276   -0.8338951360    5.2689340791