18

 C   -0.2373851592    1.4816588507   -0.1493176599
 N   -0.0392804419    0.0469912727    0.0204896069
 C    1.3073014681   -0.4579407140   -0.2063641861
 C    0.7563010133   -0.4345682204    1.1767540822
 C    1.2803077585    0.4806444866    2.2303295350
 C    0.5603325794    0.5411890002    3.5519911589
 N    2.3116913498    1.1890530754    1.9546000173
 O    2.6529651537    2.0385401556    3.0178625512
 H    0.6229937271    2.0962304998    0.1505722602
 H   -0.4461522649    1.6722755859   -1.2067506172
 H   -1.1117247827    1.7968086625    0.4299077969
 H    1.3786592488   -1.4027821884   -0.7393840835
 H    2.0940745972    0.2600080488   -0.4246498533
 H    0.3505345619   -1.3584556219    1.5852355433
 H    1.2717954792    0.4687177030    4.3792638998
 H    0.0491692410    1.5041846809    3.6637283239
 H   -0.1811168100   -0.2554624107    3.6347329883
 H    3.4535579106    2.4616485032    2.6899834161