23

 C    0.0174608719    1.5509743276   -0.1940438854
 C    1.5212881854    1.5481724141    0.2262422855
 C    1.3215910222    0.1166552385    0.6888490539
 C    1.8726565423   -0.6450997692    1.6255431652
 C    1.3859458956   -2.0209462772    2.0186379306
 C    0.5003392060   -2.7188538430    0.9707570119
 C   -0.9493579757   -2.2121618991    0.8339047716
 C   -1.1265337057   -0.6840974925    0.7017393234
 C    0.0025362573   -0.0071318339   -0.0675749586
 H   -0.6167951455    2.0206439839    0.5632893402
 H   -0.2265103203    1.9737241286   -1.1712073968
 H    2.1862401280    1.6244881252   -0.6421743970
 H    1.8460019363    2.2818678684    0.9696092008
 H    2.7396357035   -0.2690865166    2.1680436814
 H    2.2636826177   -2.6531291077    2.2084355591
 H    0.8602973113   -1.9714545483    2.9853787420
 H    1.0060138670   -2.6449632396    0.0004649763
 H    0.4574551853   -3.7892385801    1.2051965201
 H   -1.3868271019   -2.7044066640   -0.0438752821
 H   -1.5373605505   -2.5578925270    1.6934533089
 H   -2.0937320779   -0.4696893445    0.2289796691
 H   -1.1655376283   -0.2291890233    1.6994229177
 H    0.1299666260   -0.4683166700   -1.0563144477