19

 O   -0.0573603462    1.3766422710   -0.0195463986
 C    0.0152201046   -0.0145928026   -0.0604496131
 C    0.8528123956   -0.7142359556   -1.1480723354
 C    0.6896759358   -2.1281944342   -0.5453363991
 C    1.3379224091   -1.9231635292    0.8489858979
 C    0.3494378308   -0.8334307249    1.2894591845
 C   -1.0330035288   -1.5012254228    1.1534486576
 C   -0.8347094661   -2.1668163492   -0.1991978596
 C   -1.3409147854   -0.7368719432   -0.1065196208
 H    0.8378653374    1.7223180068    0.0615377194
 H    0.3999648215   -0.5986393550   -2.1375004482
 H    1.8990750047   -0.3875383530   -1.1880224645
 H    1.0548717982   -2.9624006444   -1.1432286483
 H    1.2884768935   -2.8123338492    1.4855189872
 H    2.3799114131   -1.5912883404    0.7830837166
 H    0.5567925902   -0.2339784737    2.1743276639
 H   -1.6893101432   -1.8654018543    1.9341127716
 H   -1.4882804597   -2.9636128371   -0.5281419613
 H   -2.2731910449   -0.3630950990   -0.5111332999