17

 C   -0.0168322854    1.3880155446   -0.0106779477
 N    0.0714716974   -0.0563683096    0.0842560148
 C   -1.1781904955   -0.8110718970    0.3481439509
 C   -0.3992724613   -1.6267687361    1.3902674113
 O   -0.6126032601   -2.6026407094    2.0406512473
 C    0.7805893083   -0.6446779909    1.2553472759
 C    2.1568246057   -1.2067065883    0.9111294946
 O    2.1088801674   -1.9462924197   -0.2869016270
 H    0.9863249667    1.8153891278   -0.1015561590
 H   -0.5819279522    1.6693149891   -0.9046392293
 H   -0.5092274071    1.8468806165    0.8660737926
 H   -1.9746929296   -0.2133746011    0.8207957385
 H   -1.5951697153   -1.3466166207   -0.5107066540
 H    0.8326923220    0.0253320508    2.1299468781
 H    2.8854394732   -0.3799300829    0.8515125218
 H    2.4830792421   -1.8793683626    1.7117084177
 H    1.5609345438   -1.4154535004   -0.8835004864