18

 C    0.0229164230    1.5522609927   -0.0272111569
 C    0.0042814946    0.0477044824   -0.0798745168
 C    0.4028186878   -0.8139203866   -1.2932254136
 C   -0.3189891832   -1.9595947272   -0.5376878183
 C    0.6216057912   -2.1700989872    0.6671814969
 C    0.3418771551   -0.7704499485    1.2425825964
 O   -1.0814607689   -0.8739424874    1.5555619443
 C   -1.2486836235   -0.8384453765    0.1354021659
 H    1.0491170081    1.9373204245   -0.0015198814
 H   -0.4719182597    1.9872098703   -0.9023507469
 H   -0.4936129662    1.9124127251    0.8687575583
 H   -0.1383213487   -0.4850399848   -2.1863535810
 H    1.4607602291   -0.9530533376   -1.5376736210
 H   -0.7215831200   -2.8299647752   -1.0519024331
 H    0.3036043961   -2.9439634067    1.3687731902
 H    1.6583489220   -2.3446202988    0.3662236831
 H    0.9431286198   -0.3706960783    2.0589582235
 H   -2.2609327666   -0.6542974603   -0.2232076897