17

 C   -0.0130962938    1.4281798248    0.0377731001
 N   -0.0846375310   -0.0112931925    0.1504317037
 C   -1.4556948861   -0.5676413876    0.1603704147
 C   -1.2393596100   -1.8931886140    0.8157858229
 C   -1.7336952682   -3.1200109483    1.0922822438
 O   -0.8366484107   -3.8140780946    1.8304765665
 N    0.3016956872   -3.0232869539    2.0558483488
 C    0.0286898350   -1.9048462510    1.4465194087
 C    0.7152512477   -0.5903387727    1.2475627555
 H    1.0300963121    1.7420346334   -0.0706274381
 H   -0.5542761867    1.7583487773   -0.8548843223
 H   -0.4396764247    1.9591391763    0.9110021032
 H   -2.1589696246    0.0544513474    0.7465707850
 H   -1.8466906374   -0.6223743982   -0.8621586110
 H   -2.6457769783   -3.6482862758    0.8630903031
 H    1.7684637274   -0.6740014051    0.9593416901
 H    0.6707910423    0.0094319243    2.1764253153