24

 C   -1.1083967599    2.0910234736    1.2833061621
 C   -0.7342079624    1.2964557102    0.0301512495
 C    0.7099674301    0.7732673361    0.1002598489
 O    0.8804911702   -0.1357771636    1.1686377934
 N   -1.5960984853    0.1131837042   -0.0682637857
 C   -2.9918068959    0.2660422105   -0.4641055943
 C   -2.0312687525   -0.4507079252   -1.3571250569
 C   -1.6406505356    0.1901503081   -2.6770710162
 C   -2.0414503834   -1.9671754299   -1.3883420839
 H   -0.4964290094    2.9954927265    1.3546318644
 H   -2.1595560848    2.3930455525    1.2603574133
 H   -0.9364415030    1.4883334886    2.1781608053
 H   -0.8206557347    1.9567947837   -0.8473566308
 H    0.9709111292    0.3074669061   -0.8649994737
 H    1.4045743116    1.6048668344    0.2626107797
 H    0.0899049293   -0.6933453806    1.1447680225
 H   -3.7227392779   -0.2813500782    0.1272059346
 H   -3.3219547455    1.2544110558   -0.7830990054
 H   -1.7196865191    1.2789302866   -2.6611554085
 H   -0.6148181528   -0.0752714156   -2.9574034335
 H   -2.3011828452   -0.1743036747   -3.4710481553
 H   -2.7671423131   -2.3376802070   -2.1211500559
 H   -1.0561389996   -2.3583118808   -1.6675116347
 H   -2.3007552804   -2.3710964310   -0.4068301491