20

 O    0.0127013256    1.3851189270   -0.1615320785
 C   -0.0297868727   -0.0116888394    0.0918956764
 C   -1.4228828255   -0.5071161160   -0.2862138616
 C   -1.5467350475   -2.0116942753   -0.1369700197
 N   -1.3823631340   -2.6422641587    1.2761486212
 C   -2.8344424886   -2.2099691609    1.5339871488
 C   -2.8801704846   -2.7515141693    0.0821425322
 O   -3.9138878793   -2.7770738764   -0.8375287932
 C   -1.9959974660   -3.8974570134    0.6413018106
 H    0.8700310646    1.7144152798    0.1229847350
 H    0.7294696541   -0.5483229679   -0.5007450605
 H    0.1650496646   -0.2382354791    1.1502384537
 H   -2.1606730699    0.0431295922    0.3033871741
 H   -1.6135620834   -0.2503216280   -1.3351276413
 H   -0.8702029597   -2.5060766791   -0.8439845070
 H   -3.3211168057   -2.8007258606    2.3150609951
 H   -2.9649085737   -1.1436614809    1.7145652273
 H   -4.6472267973   -3.2815755889   -0.4684422429
 H   -1.3234523212   -4.4155398899   -0.0471195799
 H   -2.4323315898   -4.5801315253    1.3754315002