21

 C   -0.1414001658    1.5131337151   -0.0195164581
 C    0.0517286536   -0.0064116472   -0.0293999597
 C    0.9418819686   -0.4791730174   -1.1734154636
 C    2.3654188784   -0.6363237647   -0.6175284919
 C    2.3116779030   -0.2750699529    0.8589900329
 C    0.8289856393   -0.5561853181    1.1953065650
 C    0.6324688477   -2.0740153025    1.2483327761
 O    1.0531810619   -2.7074458976    0.0381976922
 C    1.5358127002   -1.8444142460   -0.9585963674
 H    0.8153082349    2.0425352408    0.0325782688
 H   -0.6510929069    1.8461741559   -0.9299509510
 H   -0.7488368877    1.8270965891    0.8363430961
 H   -0.9370038587   -0.4817032656   -0.0787898190
 H    0.7555608355   -0.1210244982   -2.1808031515
 H    3.2430614347   -0.3963712069   -1.2075636995
 H    2.9887053189   -0.8791625294    1.4736223376
 H    2.5725129686    0.7766185552    1.0166951428
 H    0.5050559247   -0.1127375247    2.1411576626
 H    1.2095633052   -2.5064818399    2.0778067776
 H   -0.4264402397   -2.3187637342    1.4143575934
 H    1.8096028835   -2.4279397507   -1.8304515132