20

 C   -0.1260084921    1.5000946769   -0.1352435710
 C    0.0248695234    0.0188758913    0.1116043264
 N    1.2888291391   -0.7199219081   -0.0891089760
 C    2.5175770485    0.1096091811   -0.1124396870
 C    2.6690346461    0.6691678944    1.2841714595
 C    1.6635785525    0.2626412081    2.0581616557
 C    0.7183134484   -0.5977558187    1.2896312356
 C    0.2058692666   -1.8778625550    1.9115999570
 O    1.2594124471   -2.7778165573    2.2048365450
 H    0.6179057021    2.0963877075    0.3958807592
 H   -0.0436809963    1.7180089840   -1.2065332404
 H   -1.1187963046    1.8278039573    0.1896571488
 H   -0.8151847175   -0.5573750564   -0.2772798395
 H    3.3689814263   -0.5201591532   -0.4015547746
 H    2.4406132415    0.8962957380   -0.8754874157
 H    3.4800050494    1.3265015781    1.5765129187
 H    1.5242120039    0.4946352390    3.1069026980
 H   -0.2922556539   -1.6648480713    2.8644846591
 H   -0.5388072504   -2.3340009894    1.2418165941
 H    1.7517305498   -2.8828821663    1.3819436969