19

 C   -0.2056870783    1.5127108987    0.0079256822
 C    0.0755303005    0.0202564586    0.0405430890
 O    0.8967052580   -0.3370094416   -1.0658180890
 C    1.2923591521   -1.6768074266   -0.8346718965
 C    1.5044445894   -1.8199968509    0.6965619133
 O    2.8703411704   -1.8439871984    1.0872689187
 C    0.8479987005   -0.5348352405    1.2708605083
 C    1.8957809457    0.4567222506    1.7526457918
 O    1.8946897406    0.9384629441    2.8561397024
 H    0.7194939398    2.0943200074    0.0284981800
 H   -0.7485520153    1.7688993158   -0.9055515771
 H   -0.8161405666    1.8031791912    0.8677365973
 H   -0.8817285682   -0.5273013440   -0.0246591783
 H    0.5101200302   -2.3734986660   -1.1778010937
 H    2.2116407877   -1.8705885262   -1.3942097397
 H    0.9892857778   -2.7134755085    1.0727469782
 H    3.2534336610   -2.6844872691    0.8196036915
 H    0.1840946671   -0.7439848627    2.1116459780
 H    2.6556608777    0.7405585381    0.9975440435