23

 C    0.0022855299    1.5530986177   -0.0208295626
 C    0.0087652365    0.0232644506    0.0257795641
 C    0.7336257802   -0.5410452183    1.2447040389
 C    0.6590544113   -2.0715648046    1.3288686763
 C    1.4840800914   -2.5951887476    2.5021172188
 O    1.4547730094   -4.0146202313    2.4462767844
 C    2.9067523452   -2.0295711494    2.4270765391
 C    2.8578995124   -0.5049154047    2.2900231249
 O    2.0900885973   -0.1094863027    1.1702707250
 H    1.0236312140    1.9411709109   -0.0173677755
 H   -0.5022267341    1.9174586913   -0.9207938941
 H   -0.5195483479    1.9726912584    0.8468412783
 H   -1.0184794012   -0.3607310702    0.0307401022
 H    0.4919173304   -0.3776448470   -0.8737258446
 H    0.2806889435   -0.1143504089    2.1600520814
 H   -0.3817063121   -2.3966849053    1.4317253216
 H    1.0523417672   -2.5061051802    0.4019592386
 H    1.0182946538   -2.2439213114    3.4402489492
 H    1.9964885390   -4.3516094069    3.1673814865
 H    3.4832683842   -2.3056397625    3.3199055380
 H    3.4113209146   -2.4613911118    1.5551147521
 H    2.4447208631   -0.0575140295    3.2113696152
 H    3.8591311420   -0.0906391266    2.1404429623