16

 C    0.0620033253    1.5279431915   -0.0381749950
 C    0.0442533168    0.0283605346   -0.0957650710
 C    0.0877141950   -0.7626097205    1.1998842289
 C    1.2878304728   -0.5215982990    1.9911617311
 C    2.2805384388   -0.3248280322    2.6509684365
 C    3.4762584279   -0.0725694061    3.4130348551
 O    3.7740087806   -0.6495707123    4.4335817281
 N   -0.0324661949   -0.6871423278   -1.1505934517
 O   -0.1164814283    0.0805565159   -2.3166990598
 H    0.3747579309    1.9500288094   -0.9928198900
 H   -0.9405353433    1.9110937860    0.1899841830
 H    0.7321307601    1.8707096272    0.7549215271
 H   -0.7892266301   -0.5097085130    1.8140192144
 H    0.0081246448   -1.8277750470    0.9588520508
 H    4.1281906049    0.7154413835    2.9836650403
 H   -0.1208146713   -0.5945757003   -3.0036067779