20

 C    0.0527556684    1.6131802081   -0.0102557348
 C    0.0661908661    0.0810924904    0.0014895399
 C    0.7652126255   -0.5832490887   -1.1878911914
 C    2.2228598001   -0.4269244713   -1.4243671473
 N    1.7227289215   -1.6136057339   -0.7175350201
 C    1.7165600587   -1.5620620409    0.7427870657
 C    2.1673427404   -0.3345225883    1.5248676822
 C    0.7066309492   -0.5701037440    1.2420918108
 O   -0.1464354216   -0.8964288077    2.2988279256
 H    1.0664080558    2.0255381706    0.0055506000
 H   -0.4485902029    1.9963983388   -0.9046006751
 H   -0.4830227922    2.0055544308    0.8612874770
 H   -0.9716310414   -0.2721058851    0.0061906410
 H    0.1345216878   -0.8721991103   -2.0252001643
 H    2.6234676938   -0.6340592969   -2.4132638204
 H    2.7808372495    0.3262295684   -0.8783884873
 H    1.8347218864   -2.5275695078    1.2206824835
 H    2.4855563640   -0.5420932305    2.5417947455
 H    2.7050874295    0.4790807615    1.0531159104
 H   -0.2017005886   -0.1344967235    2.8854165191