14

 O   -0.1124062706    1.4011055806   -0.0553109118
 C   -0.0089263787    0.0343372262   -0.0576921349
 C    0.7232517180   -0.8017315810   -1.1251586598
 C   -0.5068177450   -1.7491992374   -1.0998732528
 O   -0.8484566543   -2.6678229354   -1.7810828388
 C   -1.1959893495   -0.9363997995   -0.0293967953
 C   -0.2572131482   -0.7839907255    1.1855788503
 C    0.6238606562   -1.8250702874    1.6448268493
 N    1.3575759472   -2.6446909191    2.0027930687
 H    0.7260566474    1.7784201710    0.2364085744
 H    0.7709279023   -0.2831287653   -2.0868180561
 H    1.7000170027   -1.2197360418   -0.8715607314
 H   -2.2574517037   -0.7637021273    0.0969069797
 H   -0.7288423838   -0.2135420181    1.9805286984