20

 C    0.2161799702    1.4919256453   -0.4513602842
 C    0.3617066311    0.0090808881   -0.1635234489
 O    0.5544990243   -0.6670635579   -1.4049648973
 C    0.6484986338   -2.0678956787   -1.3034589166
 C    0.6225748292   -2.6817321773   -2.7168170483
 O    1.8050184077   -2.5241601293   -3.4473384351
 C    1.9790052041   -1.2573004358   -4.0624329650
 C    1.8632313376   -2.4831400989   -0.5645378192
 N    2.7969734381   -2.7905164500    0.0422566663
 H    1.1187230308    1.8809442179   -0.9306514996
 H   -0.6340203477    1.6760992290   -1.1139998504
 H    0.0560441614    2.0409063233    0.4810053278
 H    1.2148771288   -0.1798224135    0.5029582211
 H   -0.5401951602   -0.3865758603    0.3304410777
 H   -0.2194003765   -2.4688352256   -0.7508168852
 H    0.4632738358   -3.7600274234   -2.6103373200
 H   -0.2442812501   -2.2465831187   -3.2376092727
 H    1.1165843844   -1.0041533338   -4.6971745831
 H    2.1181191277   -0.4584111518   -3.3273342717
 H    2.8696548493   -1.3379510386   -4.6895163456