17

 C   -0.1592012123    1.4776537036    0.4819804184
 C    0.0442415167    0.0073752712    0.1925192028
 C    1.3773058175   -0.4983688235   -0.3273920724
 C    0.9364377308   -0.8411578398    1.0587582758
 O    1.6608550998   -0.1910768421    2.0956345369
 C    1.3186138687   -0.4957763982    3.3480435741
 O    0.4775492611   -1.2862496289    3.6960322214
 C    2.1436880447    0.2868188624    4.3756345197
 O    2.9610247828    1.1199506054    4.1040069412
 H    0.7453137494    1.9285781179    0.8980022288
 H   -0.4188427163    2.0197587423   -0.4329232844
 H   -0.9706735861    1.6283349212    1.2021280578
 H   -0.8366696506   -0.5102538694   -0.1781088726
 H    1.4030637376   -1.2881931365   -1.0695487859
 H    2.1773348333    0.2298485952   -0.4093830110
 H    0.6384689104   -1.8472144313    1.3246534828
 H    1.8797092227   -0.0092532896    5.4106436466