19

 C    0.0444417093    1.6250865221    0.0043011149
 C    0.0030696343    0.0860864694    0.0003847760
 C   -1.3822961814   -0.4873192346    0.0168328042
 C   -2.1677873196   -0.7866201755    1.0980324928
 N   -1.9833738983   -0.6367732418    2.4550208993
 O   -3.3562994958   -1.2650579297    0.7143265273
 N   -3.3948284314   -1.2966288288   -0.6993457385
 C   -2.2273574476   -0.8339369407   -1.0807637850
 C   -1.9202868157   -0.7357853960   -2.5413963576
 H    1.0762031558    1.9916869784   -0.0061698591
 H   -0.4690240222    2.0329046820   -0.8719787488
 H   -0.4526512764    2.0273586438    0.8924980911
 H    0.5391935249   -0.2870391627   -0.8804072482
 H    0.5693141371   -0.2886787699    0.8646359381
 H   -1.0155468359   -0.6432752415    2.7437136227
 H   -2.5533905264   -1.2575227535    3.0134328309
 H   -1.7197611983    0.2999187557   -2.8355436326
 H   -1.0335157290   -1.3257236556   -2.7976608796
 H   -2.7650886534   -1.1062825811   -3.1251270079