18

 N    0.0949105821    1.3311814027   -0.0195520384
 C    0.0403594506    0.0716979800   -0.0284585522
 C   -1.2144305131   -0.7686501246    0.0584228493
 C   -0.7667091239   -2.1398874635   -0.4461628658
 C   -1.5934453823   -3.4045802482   -0.1383444471
 C   -1.7937607473   -3.4808948179   -1.6641424080
 O   -0.9848614573   -2.3036533693   -1.8714545140
 C    0.7231127719   -2.1289218714   -0.0875526684
 O    1.1302722973   -0.7556063378   -0.1120300509
 H    1.0645736643    1.6478875913   -0.0760006924
 H   -1.5336767342   -0.8315444813    1.1055875405
 H   -2.0299737241   -0.3446020580   -0.5267469551
 H   -1.0255049656   -4.2279248785    0.3005692471
 H   -2.4948535179   -3.2372179704    0.4533967098
 H   -1.3697720845   -4.3615079754   -2.1600680003
 H   -2.8219011800   -3.3357999544   -2.0153354863
 H    0.8918098646   -2.5427931581    0.9158494134
 H    1.3188367694   -2.6831013153   -0.8161450514