19

 C    0.3387454284    1.5171260778   -0.4878600977
 C    0.1783819647    0.0210686482   -0.2495882245
 C    1.4157538934   -0.8337131625   -0.6354145976
 N    1.7240769304   -1.1840013867    0.8042850814
 C    0.4515064002   -0.4264791808    1.1896779545
 C    0.5242563296   -1.8855098668    1.3319665942
 C   -0.2807599021   -2.8709006357    0.5053554665
 N    0.4034483820   -4.0222113979    0.2414998101
 O   -1.4262112992   -2.6821751791    0.1461265102
 H    1.2839696858    1.8868274871   -0.0742893073
 H    0.3277485595    1.7444742440   -1.5591084578
 H   -0.4758766445    2.0802593411   -0.0197930558
 H   -0.7774401748   -0.3318763736   -0.6421969342
 H    1.2532638206   -1.7028927131   -1.2807895729
 H    2.2400425690   -0.2426072008   -1.0411462120
 H    0.4258085700    0.2272602886    2.0574316226
 H    0.7179058333   -2.2515676122    2.3393956399
 H    1.3866463962   -4.0992913276    0.4396622065
 H   -0.0325512526   -4.7179510603   -0.3418629863