19

 C   -0.0847492002    1.5746356152    0.0065685442
 C   -0.0409216655    0.0573610826    0.0147344854
 O   -1.3093367926   -0.5011071596   -0.2271093848
 C    1.1938472854   -0.6593942760   -0.6524981956
 N    2.0108260590   -0.1105564970    0.5148340901
 C    0.7402383649   -0.6730423032    1.1462066685
 C    0.8551910367   -1.8889390576    0.2058696932
 C    0.2011459124   -3.1815531784    0.0168523162
 N    1.6317554852   -3.0916088517    0.4482513290
 H    0.8954351701    1.9955452838    0.2257682964
 H   -0.4072326715    1.9386392432   -0.9779768892
 H   -0.8076078039    1.9304293308    0.7479251806
 H   -1.7553980800    0.0481494892   -0.8788955515
 H    1.5489815588   -0.6054967257   -1.6843665640
 H    2.7676290941   -0.7704338792    0.7115745606
 H    0.5639615632   -0.6436302979    2.2219949497
 H   -0.4758934049   -3.5727836669    0.7705490126
 H   -0.0124323730   -3.5094808087   -0.9973204168
 H    2.2389264219   -3.2945495427   -0.3433221945