14

 C   -0.0287150615    1.5237384608   -0.0034009410
 C   -0.0561151124    0.0239040022    0.0022579725
 C   -1.1787958689   -0.7248875550   -0.1512518530
 C   -1.1269316848   -2.1539251207   -0.1350340541
 C    0.0729288350   -2.7402096367    0.0376355535
 O    1.2086535490   -2.0405941478    0.1932303423
 C    1.2321732545   -0.6375420180    0.1885182824
 O    2.2978142140   -0.0993108217    0.3365773966
 H    0.6265762349    1.8973519607   -0.7973767996
 H   -1.0306449458    1.9349613164   -0.1483245772
 H    0.3810503634    1.9084505572    0.9364615319
 H   -2.1367859966   -0.2314130263   -0.2895855510
 H   -2.0158326413   -2.7578307849   -0.2562826972
 H    0.2491595903   -3.8087956063    0.0690645340