12

 O    0.1064266289    1.2966192777    0.0888919170
 C    0.0697916705   -0.0362712154    0.0490351872
 N    0.0756965896   -0.6092313670   -1.1560338443
 C    0.0383044691   -1.9469549690   -1.1612836556
 C   -0.0041428174   -2.7016123454    0.0074150399
 C   -0.0054119940   -1.9736621054    1.1961648258
 N    0.0310619802   -0.6460630336    1.2365492298
 C    0.0436017836   -2.5949785121   -2.4483501933
 N    0.0467188958   -3.1450789879   -3.4650997695
 H    0.1317770508    1.6051714274   -0.8275960445
 H   -0.0340778724   -3.7820332920   -0.0111704295
 H   -0.0371767446   -2.4830088074    2.1562287472