21

 C   -0.1932070087    1.5302225843    0.1831876564
 C    0.0334469459    0.0387450731    0.0294729739
 C    0.6743544554   -0.6650765776   -1.1640891904
 C    1.5746744922    0.1068420467   -2.1158025024
 C    0.9075261484    1.0325183656   -3.1220947041
 O    2.4310865550    0.8864208660   -1.2669847081
 C    2.6252266216    0.1832170820   -0.0469966037
 C    1.3671551686   -0.6514797356    0.1710885825
 O    1.4987112776   -1.8207346260    0.9218765175
 H    0.6469575372    2.1107455023   -0.1997648994
 H   -1.0955857584    1.8442981517   -0.3529562645
 H   -0.3370610746    1.7886608833    1.2387862451
 H   -0.7690232086   -0.5687784934    0.4444065874
 H    0.2082157593   -1.5749090944   -1.5245589333
 H    2.1852871979   -0.6311491237   -2.6655577246
 H    0.2531103034    1.7529538177   -2.6263900668
 H    1.6652006903    1.5831041111   -3.6872939159
 H    0.3093874001    0.4495241578   -3.8293547286
 H    3.4841765001   -0.5042941966   -0.1002512746
 H    2.8240698365    0.9282030430    0.7323449032
 H    1.3918622506   -1.5928863571    1.8514377604