19

 C   -0.0773702273    1.5400533018    0.1599303504
 C   -0.0021594895    0.0230818339   -0.0450275076
 C    0.7241980240   -0.4527995449   -1.3350016931
 C    0.0030193094    0.0011637648   -2.6085704731
 C    2.2003367774    0.0015204388   -1.3394704143
 C    0.7405303655   -1.9754393447   -1.2594113962
 O    0.2468980838   -2.7262883636   -2.0599376737
 H    0.9144605088    1.9937728991    0.2450621316
 H   -0.6053956892    2.0363355897   -0.6595949791
 H   -0.6194318565    1.7660239977    1.0833732074
 H    0.4973253243   -0.4277419956    0.8230935148
 H   -1.0209119258   -0.3847631460   -0.0564634116
 H    0.0367875634    1.0890748592   -2.7138306492
 H    0.4684237082   -0.4416529905   -3.4931055060
 H   -1.0440764032   -0.3143248254   -2.6011576675
 H    2.7298831580   -0.3450429676   -0.4449697515
 H    2.7262418755   -0.3891638247   -2.2165870746
 H    2.2718571405    1.0919262896   -1.3696631336
 H    1.2703113626   -2.3711385316   -0.3588880029