19

 C    0.3186048857    1.6070410665    0.2694263676
 O    1.4758036648    2.0074021175   -0.4702037069
 C    2.0844783178    0.8618557951   -1.0583188612
 C    0.9216424328   -0.1227362135   -1.2572890310
 C    0.1064344911    0.0954085289    0.0247395075
 O    0.5093595286   -0.6960613271    1.1421811894
 C    1.8617515286   -1.0609602837    1.2439351586
 O    2.7618127359    0.0093341438    1.1588111752
 C    3.2011768808    0.3280153327   -0.1539871259
 H    0.4590068710    1.7946528567    1.3383965927
 H   -0.5372607250    2.1936301136   -0.0882423281
 H    2.5338412549    1.1730776091   -2.0089923708
 H    0.3224488865    0.1936214359   -2.1159543345
 H    1.2207072858   -1.1600337759   -1.4188440281
 H   -0.9521516493   -0.1385418305   -0.1087223358
 H    1.9594289281   -1.4872406898    2.2456622041
 H    2.1250251938   -1.8269013776    0.4938189530
 H    3.6764969505   -0.5478016193   -0.6268038407
 H    3.9598714674    1.1047246775   -0.0265157850