22

 C   -0.4265687567    0.9152685533    0.6342098696
 C   -0.1760860721   -0.4779148740    0.0535060350
 C    0.4962497351   -0.4400741474   -1.3261420326
 O    1.7341695562    0.2004286081   -1.1722562716
 C    2.4318846910    0.4341826697   -2.3781001971
 C    0.6585486415   -1.8800880617   -1.8642555383
 O    1.6572641141   -2.5435310552   -1.6579202419
 N   -0.4245064036   -2.3419428542   -2.5555633616
 C   -0.5046567464   -3.6934369514   -3.0748234016
 H    0.5107516632    1.4693069410    0.7187074680
 H   -1.1050178049    1.4947706295   -0.0024870642
 H   -0.8786504329    0.8469578381    1.6282655014
 H    0.4743926533   -1.0578681238    0.7174114644
 H   -1.1184551365   -1.0312212016   -0.0338449915
 H   -0.1394462810    0.1326901376   -2.0292741448
 H    3.3298832597    1.0000312235   -2.1197007848
 H    2.7285712210   -0.5034690628   -2.8632536286
 H    1.8294083913    1.0306646565   -3.0819939446
 H   -1.2004562299   -1.7189025309   -2.7078566250
 H   -0.6185727011   -3.6966201803   -4.1646070242
 H    0.4283422095   -4.1941687274   -2.8133082716
 H   -1.3431607009   -4.2440940969   -2.6337024442