22

 C   -0.3028738487    1.4060646599    0.1145368729
 C   -0.0966892174   -0.0943779298   -0.1104994743
 C    0.8616443693   -0.4266409204   -1.2757134341
 C    1.1512385023   -1.9337201014   -1.4287151830
 C    0.1758586914   -2.4126387157   -2.5252188837
 N   -0.1065354880   -1.2024988287   -3.2729398869
 C   -0.8570671072   -1.2095748034   -4.5051844726
 C    0.2332315513   -0.0451464926   -2.6224816986
 O    0.0314463771    1.0789212994   -3.0434965852
 H    0.6427522194    1.8927314074    0.3782837834
 H   -0.6812091049    1.8902151912   -0.7881085223
 H   -1.0086446899    1.5822142845    0.9323391471
 H    0.3103185335   -0.5524319164    0.7997598343
 H   -1.0648336313   -0.5820400699   -0.2887624878
 H    1.7804938630    0.1529616996   -1.1447615230
 H    2.1803768502   -2.0876902905   -1.7650537128
 H    1.0219686369   -2.4884227786   -0.4962149669
 H    0.6188899473   -3.1776360410   -3.1739449748
 H   -0.7471306610   -2.8405636196   -2.1044362135
 H   -1.8592241903   -1.6356204795   -4.3618947705
 H   -0.9522126420   -0.1750063977   -4.8393940404
 H   -0.3431038909   -1.7964241467   -5.2760592673