21

 O   -0.0080372778    1.3940384188   -0.1330707101
 C    0.0012922680   -0.0158305558    0.0057054387
 C   -1.4029099558   -0.5715993479    0.1239645188
 C   -2.2516387911   -0.0942567081    1.3229742414
 C   -3.4662659456   -1.0765750586    1.2797115272
 C   -3.1507556488   -1.9523131001    0.0434530897
 C   -3.2439910524   -1.0563076600   -1.2012892990
 O   -2.1095435707   -0.1789743858   -1.0799559395
 C   -1.6160315645   -2.0935573029    0.1460225727
 H   -0.6138954837    1.5811025190   -0.8600151736
 H    0.5071263834   -0.4990771671   -0.8450740817
 H    0.5731040472   -0.2421354027    0.9117768637
 H   -1.6922859747   -0.1748793275    2.2601630753
 H   -2.5354894892    0.9509990220    1.1936462699
 H   -3.5164172485   -1.6890925933    2.1847505784
 H   -4.4257508680   -0.5605352114    1.1818483394
 H   -3.7299476576   -2.8738780901   -0.0299768566
 H   -3.1650201104   -1.6264425613   -2.1367679604
 H   -4.1688615827   -0.4669641340   -1.2329665662
 H   -1.1572496064   -2.5969853223   -0.7092481926
 H   -1.2861706406   -2.5666284507    1.0748379844