13

 N    0.0125676149    1.2261687163    0.0148330156
 C   -0.0195640238   -0.0213234329    0.0607628009
 O    1.0108630413   -0.9555866685    0.1989984216
 C    0.0793283255   -2.0390536303   -0.0176104126
 C   -0.9088655952   -2.0687990238    1.0808323161
 C   -1.0963228263   -1.0622817707   -0.0811988874
 C   -2.2583014542   -1.0058355401   -0.8922037263
 C   -3.2460944355   -0.9573249747   -1.5759603555
 H    0.9643588711    1.5809863160    0.1187481212
 H    0.3756338015   -2.8334727925   -0.6878204391
 H   -1.6329897552   -2.8763805139    1.0586168254
 H   -0.6293821665   -1.7060091966    2.0646073835
 H   -4.1146339775   -0.9045604382   -2.1845657435