17

 C    0.7749612559    1.3177242914   -0.1368843410
 O    0.7889496765   -0.1017708478    0.0520743977
 C    0.2644708331   -0.5508476938    1.2063443904
 N   -0.2163013697    0.2256682287    2.0805147157
 C    0.3973109313   -2.0730302246    1.2310065365
 C    1.8926947267   -2.5118889971    1.3090024207
 O    2.0374184477   -3.9074230085    1.2494414095
 C   -0.3410505304   -2.6617448469    2.3454713445
 N   -0.8764877857   -3.1461851090    3.2481390434
 H    1.3408759740    1.8163920482    0.6540027735
 H    1.2362569888    1.4881192754   -1.1098533312
 H   -0.2504599115    1.6954041769   -0.1224413938
 H   -0.5720266066   -0.2859613211    2.8854045347
 H   -0.0061966263   -2.4736735934    0.2946494530
 H    2.4034590587   -2.0966696809    0.4386320150
 H    2.3416782282   -2.0800661824    2.2144180977
 H    1.7083513094   -4.2857294552    2.0727500137