22

 C   -0.1089292130    1.5412153919    0.0122835768
 C   -0.0237930083    0.0245617695    0.0026194450
 O   -1.3361260197   -0.5013332676    0.0123685635
 C   -1.3741309126   -1.9091628937    0.0046213719
 C   -2.8318829597   -2.3523711695    0.0161900398
 C   -2.9802938789   -3.8754993103    0.0088771653
 C   -4.4601699473   -4.3069779752    0.0206741726
 C   -4.6235177797   -5.7592405368    0.0139295684
 N   -4.7330870244   -6.9096121078    0.0083705541
 H    0.8935607088    1.9792390145    0.0049990380
 H   -0.6517418961    1.9006800676   -0.8664962713
 H   -0.6343631810    1.8903730411    0.9056602948
 H    0.5194928125   -0.3275988735   -0.8909103220
 H    0.5367964623   -0.3379218194    0.8812067172
 H   -0.8604607673   -2.3058760773   -0.8890339357
 H   -0.8432896415   -2.3160930999    0.8835262759
 H   -3.3186316032   -1.9281641099    0.9028484884
 H   -3.3356660451   -1.9180562649   -0.8559409374
 H   -2.4935094303   -4.3003462557   -0.8763491656
 H   -2.4765736151   -4.3104347189    0.8796118452
 H   -4.9654010111   -3.9048958903    0.9067144921
 H   -4.9823574494   -3.8947989036   -0.8507767668