21

 C   -0.1335650875    1.6146346053   -0.0774362254
 C    0.0103701426    0.0871519973   -0.0169690605
 C    0.5838926394   -0.5515199177   -1.2652690269
 C    1.4301676092   -1.5423240310   -0.9903135921
 C    1.6259140178   -1.7374678554    0.4948420128
 C    3.0919999375   -1.6422373614    1.0030151755
 O    3.1302557114   -0.5582869140    1.9221447127
 C    2.1528423436    0.3745631249    1.4915253764
 C    0.9313477563   -0.4776833156    1.1007743657
 H    0.8191784616    2.1104343852   -0.2847783656
 H   -0.8317669088    1.9010994239   -0.8709379053
 H   -0.5251773778    2.0125940304    0.8645987982
 H   -1.0003415954   -0.3194207078    0.1395096036
 H    0.2903598730   -0.2357932867   -2.2616691887
 H    1.9303468497   -2.1616804729   -1.7280478868
 H    1.1674583747   -2.6736990857    0.8333314457
 H    3.4290943623   -2.5377052124    1.5328561165
 H    3.7798601736   -1.4596211433    0.1623734942
 H    1.9676903422    1.0685363879    2.3151256546
 H    2.5231823076    0.9486755979    0.6269531005
 H    0.3665148372   -0.7194009188    2.0044272848