15

 C   -1.0795733965    1.1830945040   -0.3065462195
 N   -0.2392896256    0.0157958079   -0.0017040874
 C   -0.2090182177   -0.3891726351    1.3847954220
 N    0.5619961304   -1.4572574291    1.6646231915
 O   -0.8566462312    0.2295786037    2.2044295024
 C    0.4440788555   -0.5962228457   -1.0269387793
 N    1.2111903228   -1.6198160502   -0.9047773520
 C    0.2479875604    0.0044511643   -2.3388613142
 N    0.1492370579    0.4166769444   -3.4147210621
 H   -0.4799638893    1.9967757334   -0.7222648675
 H   -1.8693068137    0.9199375068   -1.0146019669
 H   -1.5233705875    1.5008019112    0.6334234183
 H    1.0795996280   -1.9326220494    0.9324895938
 H    0.5854297509   -1.7436225223    2.6278449638
 H    1.6079289756   -1.8967489639   -1.7973221429