17

 O   -0.0183082216   -0.1268888619   -0.0418722424
 C   -0.0489080038    1.0846083928   -0.0171759841
 C    1.1645916889    1.8655515849    0.1685122243
 C    2.1538686031    2.5345274668    0.3213454957
 C   -1.3214865532    1.9068034099   -0.1321674038
 C   -2.5756001564    1.0992389529   -0.5380354308
 C   -3.5729372477    1.3758859392    0.6072717764
 O   -3.1351419755    2.5832331055    1.2197193145
 C   -1.7274047504    2.5164795166    1.2486386040
 H    3.0390281131    3.1076370223    0.4572249475
 H   -1.1300184092    2.7276585990   -0.8293276645
 H   -2.9630001272    1.4541369810   -1.4952090842
 H   -2.3393782180    0.0380032061   -0.6320386529
 H   -4.6019669054    1.5254987723    0.2730548484
 H   -3.5600626105    0.5523540339    1.3383314671
 H   -1.3810416553    1.8637211378    2.0673999881
 H   -1.3343671809    3.5214166508    1.4134117365