15

 O   -0.9460253673    0.0473330377   -2.0848602884
 C   -0.1655816872   -0.3743210749   -0.9798553249
 C   -0.9229927752   -0.1707857103    0.3094938774
 O   -1.9555224354   -1.1156112258    0.6051408457
 C   -0.8471263698   -1.0555541618    1.4962834626
 C    0.0729839021   -2.2425546265    1.6065422305
 O    0.9164892065   -2.2785263265    2.4765007171
 C   -0.1182919340   -3.3381443410    0.6744257589
 C   -0.2527938170   -4.2870616029   -0.0539401647
 H   -1.7313704258   -0.5108809857   -2.1068791097
 H    0.1513226206   -1.4194501391   -1.0801660653
 H    0.7305690501    0.2552796233   -0.9771716223
 H   -1.2124337871    0.8641580128    0.4996302977
 H   -1.0385141056   -0.6021986603    2.4684612542
 H   -0.3723399848   -5.1236115090   -0.6993398689