15

 C    0.0293925922    1.6876367619   -0.2242451277
 C    0.0178819270    0.1703859550   -0.0559038745
 C    1.1817687588   -0.6089181748   -0.7439765160
 O    1.5910813719   -1.1806917476    0.5056999184
 C    0.6043927688   -0.4232158765    1.2414055872
 C   -1.3319496823   -0.3918295435   -0.4460478864
 O   -2.0161120766   -1.1078073529    0.2378300559
 H    1.0307659365    2.0869499516   -0.0385164142
 H   -0.2645209629    1.9760101902   -1.2400516674
 H   -0.6635056064    2.1689563614    0.4741241836
 H    0.8955024394   -1.3724743818   -1.4790222041
 H    1.9521250142    0.0389996855   -1.1841312883
 H    1.0678521084    0.3097410844    1.9132167891
 H   -0.0797962212   -1.0669074812    1.8019606814
 H   -1.6623457477   -0.0893996716   -1.4682508071