19

 C   -0.2047058628    1.4919782915    0.1207350577
 C    0.0773338319    0.0055500847    0.1736224206
 O    0.9909720931   -0.4529309422   -0.8760833795
 C    1.7929730961   -1.1295486544    0.0988884773
 C    2.4175905757   -0.1601489431    1.0468023539
 C    0.9767073175   -0.5956369453    1.2559153568
 C    2.2955469748   -2.4812219909   -0.2478425532
 C    3.7061192782   -2.7155336700   -0.5940302699
 O    3.1952028143   -3.0671613544    0.6933795872
 H    0.7066191941    2.0791420107    0.2596413821
 H   -0.6418988279    1.7596789831   -0.8464735701
 H   -0.9190973082    1.7660840397    0.9044563396
 H   -0.8581083886   -0.5629451027    0.0900767633
 H    3.1111910318   -0.6010391948    1.7550050099
 H    2.6632949729    0.8420806236    0.7081274625
 H    0.6404074006   -1.0857807930    2.1594524023
 H    1.5455237716   -3.1624706115   -0.6509670010
 H    3.9693236727   -3.5545500525   -1.2357811994
 H    4.3943290023   -1.8726456487   -0.6064973401