15

 O    0.0458948178    0.3771863794   -1.0907288283
 C   -0.0062382811    1.2511201791   -0.2666397552
 C   -1.2650452133    1.5206234381    0.5573769102
 N   -1.5639356673    2.9048593899    0.8744396023
 C   -0.7938186197    3.5654541461    1.6358300698
 N    0.4471446821    3.1783023429    2.1470886788
 C    1.4529840221    2.4658370348    1.4949540808
 O    2.4844843805    2.1946782684    2.0645315431
 C    1.1968903712    2.1481352654    0.0321177911
 H   -2.1100247375    1.0745350900    0.0302127602
 H   -1.1139836080    0.9491039829    1.4908681722
 H   -1.1102505218    4.5561714008    1.9657230322
 H    0.7508507454    3.5883694140    3.0212324815
 H    2.0932380504    1.6906832207   -0.3839411327
 H    1.0060229593    3.0964297875   -0.4898764961