21

 C   -1.6658035570    0.4559472545    0.2070225472
 O   -0.8640969689   -0.7064466377    0.0851541607
 C    0.4882411194   -0.4528018573   -0.2073950918
 C    1.2501156774   -1.7871268019   -0.0742475344
 N    2.6825424087   -1.6102798358   -0.2641215892
 C    3.4860897555   -2.1108143096    0.8399505495
 C    3.1659843854   -2.0824366372   -1.5548095734
 C    0.6427672517    0.1346716226   -1.5590331689
 N    0.7234898234    0.5930598950   -2.6171303123
 H   -1.2883769201    1.1200351138    0.9986022251
 H   -1.7109290674    1.0181356108   -0.7350261078
 H   -2.6695226109    0.1182255021    0.4714438640
 H    0.9230818793    0.2639426151    0.5071231825
 H    1.0321976838   -2.1552685465    0.9327589673
 H    0.8167764640   -2.5113393694   -0.7773358754
 H    3.4501017086   -3.2112944578    0.9483505501
 H    4.5318702344   -1.8251423056    0.6887237141
 H    3.1516772244   -1.6657490177    1.7819845212
 H    2.5888212074   -1.6277233197   -2.3628297666
 H    4.2113484571   -1.7853979477   -1.6837982225
 H    3.1084102639   -3.1822464802   -1.6606534094