20

 C    0.0505330927    1.4320789641   -0.0260929700
 C   -0.1659702415   -0.0472014580   -0.0003033555
 C   -0.2936350308   -0.8968978979   -1.0258068309
 C    0.2514438038   -1.1052771635   -2.4223713569
 C    0.8788529611   -2.4217090813   -1.8270371463
 C   -0.1584016944   -2.3525017530   -0.6459635087
 C    0.1403578139   -2.3031368807    0.8402964813
 N    1.3450398454   -1.5391388456    1.2226181238
 C    0.0091545719   -0.8655867922    1.2503332395
 H    1.0225655020    1.6947551423    0.4107322096
 H    0.0150855326    1.8241655881   -1.0462969075
 H   -0.7124018285    1.9610322997    0.5597259052
 H   -0.5165586389   -1.3352081179   -3.1689271719
 H    0.9278736750   -0.3483780193   -2.8263222410
 H    0.8466683660   -3.3113173842   -2.4603729930
 H    1.8918249563   -2.2478393851   -1.4614435467
 H   -1.0384519251   -2.9698825598   -0.8607756502
 H   -0.1908104175   -3.1011218422    1.4965518488
 H    1.5939133950   -1.8083565686    2.1731792934
 H   -0.3901388489   -0.5622119247    2.2140297570