14

 O   -0.0502384829    1.3824243571   -0.0666015917
 C    0.0007075659   -0.0162559136   -0.0130148883
 C   -0.4800561428   -0.6948196618    1.2690215219
 C   -1.3570098844   -0.6810557955    0.0516343397
 C    1.0505768332   -0.6419574729   -0.7593682258
 C    1.9573423296   -1.1584497136   -1.3731981978
 C    3.0341501564   -1.7476075368   -2.1179242673
 O    3.2249251822   -2.9385811609   -2.2278980186
 H    0.7550124901    1.7254662604    0.3376832447
 H   -0.0051634716   -1.6230401104    1.5629258411
 H   -0.7279069534   -0.0145810958    2.0757108961
 H   -2.1923178675    0.0091347382    0.0371740250
 H   -1.4960294441   -1.5992110417   -0.5050635465
 H    3.7027070894   -1.0068285124   -2.6028681225