18

 C    0.0481591722    1.5398862780    0.0459410529
 C   -0.0176582469    0.0159614738   -0.0285063872
 N   -1.3975542119   -0.4967021386   -0.0074760516
 C   -2.1359689987   -0.1577551032   -1.2242117485
 C   -1.4194950320   -1.9419745452    0.2309577891
 C   -0.7525864081   -2.2942505772    1.5015004956
 N   -0.2154733627   -2.5924900049    2.4784478081
 C   -2.8007421021   -2.4634316957    0.2774257175
 N   -3.8722034502   -2.8917792801    0.2904466296
 H    1.0895884927    1.8526402576    0.1639845218
 H   -0.3361732415    2.0222375816   -0.8565385823
 H   -0.5220792830    1.9049840791    0.9044527007
 H    0.5209973823   -0.3442690049   -0.9258122764
 H    0.5025146246   -0.3953252107    0.8408570634
 H   -1.6736881813   -0.5802017917   -2.1352801696
 H   -3.1636270817   -0.5196514900   -1.1551317433
 H   -2.1732287188    0.9265997085   -1.3299869190
 H   -0.8976871629   -2.5106374962   -0.5675674210