20

 C    0.1054100779    1.3864995212   -0.1737102925
 C   -0.0594944919   -0.1239409454    0.0661662839
 C   -1.5420103005   -0.5033241166    0.1267263429
 C    0.7061741350   -0.9138626670   -1.0109401078
 O    2.0760813595   -0.8466253175   -0.6209528179
 C    2.1236511548   -0.9724976976    0.7940322676
 C    0.7203402554   -0.5633960673    1.3357535865
 C    2.4821685434   -2.3521393313    1.1823603199
 N    2.7571680440   -3.4311434587    1.4917577743
 H    1.1602601944    1.6571570489   -0.2795421562
 H   -0.4135243392    1.6951596975   -1.0874982774
 H   -0.3132873812    1.9626149095    0.6580960245
 H   -2.0507721146   -0.2416655381   -0.8075354431
 H   -1.6742131728   -1.5773996937    0.2933260469
 H   -2.0518628991    0.0280370671    0.9370705158
 H    0.3647666055   -1.9598352217   -1.0507378049
 H    0.6331595403   -0.4823805206   -2.0124035522
 H    2.9173127289   -0.3103802586    1.1540895175
 H    0.7992073169    0.2360635324    2.0752450335
 H    0.2350585333   -1.4157648924    1.8160756587