22

 C    0.1310887063    1.6354479750   -0.3694632912
 C    0.2449840046    0.1343149288   -0.1831613975
 C    1.4803530082   -0.6938670792   -0.4211271283
 C    2.7346081109    0.0092671012    0.1136556787
 C    2.1189444798   -0.0238625674    1.5530662177
 C    2.0740234422    1.2247029604    2.4297453242
 C    0.8284134081   -0.6419455297    0.9757172074
 C    0.0311212509   -1.6855328465    1.7101746766
 H    1.0682578384    2.1629262763   -0.1814226985
 H   -0.1653432754    1.8633511281   -1.3999038219
 H   -0.6293777029    2.0632972173    0.2935941508
 H   -0.6414235893   -0.3819481716   -0.5524905016
 H    1.4892941566   -1.5132818476   -1.1318463621
 H    3.6425745896   -0.5917470176    0.0290242370
 H    2.9447691881    0.9990548404   -0.3058580699
 H    2.6324512889   -0.8128659243    2.1157905900
 H    1.5883473184    2.0688671176    1.9350469990
 H    1.5259852502    1.0268839042    3.3581996418
 H    3.0863932623    1.5391567072    2.7086448605
 H   -0.5444566765   -1.2442044787    2.5339143538
 H   -0.6824968974   -2.1850621240    1.0462261435
 H    0.6820354881   -2.4560029798    2.1410740101