20

 C   -1.5190883626   -0.4082411352   -0.0418026527
 C   -0.0185211046   -0.1278653077    0.1060129905
 C    0.5266125892   -0.7071304588    1.4175502616
 C    0.7519103520   -0.6308343860   -1.1503440817
 C    2.2431022592   -0.1817150563   -1.1839347447
 C    2.3968104163    1.2705004369   -1.1398679548
 N    2.5037929825    2.4208844114   -1.1086273533
 C    0.6948931515   -2.0829827950   -1.3051610080
 C    0.6734013859   -3.2788340150   -1.4276850218
 H   -1.9236709354    0.0476039510   -0.9517139904
 H   -1.7148945923   -1.4844584991   -0.0883485671
 H   -2.0711842998   -0.0008301067    0.8104289199
 H    0.1230231536    0.9599385737    0.1241568810
 H    0.4522383538   -1.7993589539    1.4256241119
 H    1.5729559997   -0.4362629336    1.5897202031
 H   -0.0490380456   -0.3237438240    2.2652407241
 H    0.2658845431   -0.1772028890   -2.0241077293
 H    2.7902777489   -0.6245837744   -0.3465385229
 H    2.7119319978   -0.5560607699   -2.0991528517
 H    0.6401203769   -4.3341073384   -1.5443243238