14

 O    0.0714116490    1.5127623599   -0.0163095132
 C    0.0204314701    0.1213659926    0.0078061448
 C    0.6546408630   -0.4848081678   -1.2747747036
 C   -0.0701876895   -0.1120189154   -2.4750135821
 C   -0.6837787179    0.1924720718   -3.4693560151
 C   -1.3761982218    0.5324386589   -4.5957296102
 N   -1.9657773137    0.8175219586   -5.5551757342
 C    0.7308466248   -0.4232111380    1.2366140582
 O    1.2378821500    0.3136637514    2.0443983280
 H    0.5508032702    1.7766528574    0.7855579389
 H   -1.0239515123   -0.2335791557    0.0623315147
 H    1.6914963475   -0.1347280582   -1.3473929608
 H    0.6812215208   -1.5795776656   -1.1924044801
 H    0.7517815397   -1.5260310899    1.3517640147