17

 O   -0.0495708204    1.3483160896   -0.1659788011
 C   -0.0086465425   -0.0439724420   -0.0470253294
 C   -0.4777358115   -0.6892436966    1.2426686464
 C   -1.3286618701   -0.7300777837    0.0004039529
 C   -2.7303065029   -0.0970413822   -0.1695220943
 C   -3.1402544752   -1.3727869755   -0.9257797293
 N   -2.2290865353   -1.4885441081   -2.0919039067
 C   -1.7845248901   -1.9638651950   -0.7531108305
 H    0.6731498740    1.7126239964    0.3558031050
 H    0.7979388224   -0.5325142002   -0.5947917943
 H    0.0084846734   -1.6019129810    1.5748415261
 H   -0.7942352483   -0.0231955146    2.0397649175
 H   -3.2549899984    0.0252718347    0.7814222866
 H   -2.7759973006    0.8292750620   -0.7455845230
 H   -4.1112634155   -1.8518607239   -0.9314954702
 H   -2.5241005963   -2.3162252676   -2.6115738526
 H   -1.4781372827   -2.9910360224   -0.5943816732