14

 N   -0.0209494843    0.9399229336    1.2102012466
 C    0.0302597255    0.1157631848    0.2290473483
 N    1.2544755055   -0.3431785913   -0.2878160122
 N    1.6301166927   -1.1711466488   -1.2663986497
 C    0.8606962263   -1.8225609271   -2.0627707029
 C   -0.6113174767   -1.9122684011   -2.2063533666
 O   -1.0630571221   -2.6353867991   -3.0802098051
 C   -1.5325736390   -1.1612393717   -1.3330833524
 C   -1.2516848308   -0.3245621756   -0.3271043832
 H    0.9082365603    1.2030671590    1.5460892167
 H    2.0614353367    0.0374132547    0.1861661894
 H    1.3858796176   -2.4405176093   -2.7870264369
 H   -2.5741749836   -1.3459187040   -1.5790826027
 H   -2.0725340582    0.1405674260    0.2083341405