22

 C   -0.2616603430    1.4465328354    0.0989052895
 N   -0.0415978535    0.0137920352    0.2200178634
 C    1.2328099097   -0.5309115399   -0.2340352182
 C    0.8863074047   -0.5287956095    1.2194574806
 C    1.6688305522    0.3755580416    2.1563029087
 C    0.3540410187   -1.8257752449    1.8245552249
 O    1.3892496198   -2.6488871404    2.3773585718
 C   -0.7422750779   -1.6211307275    2.8733045813
 O   -1.1955918884   -2.8642680843    3.3674549097
 H    0.6455055569    2.0630223049    0.1906893016
 H   -0.7015928307    1.6463492817   -0.8833698066
 H   -0.9780884029    1.7727908441    0.8598202362
 H    1.1869291751   -1.4481498916   -0.8164443521
 H    1.9982050011    0.1740403313   -0.5587610657
 H    2.0764637717    1.2452210845    1.6382599694
 H    1.0550078359    0.7371885348    2.9881448000
 H    2.5243348809   -0.1636562501    2.5784193223
 H   -0.0723391063   -2.4254990331    1.0153019195
 H    1.8029421025   -2.1625486341    3.0998016796
 H   -0.3626626361   -0.9844370272    3.6936041929
 H   -1.5950772781   -1.1060343469    2.4208187029
 H   -0.4031512523   -3.4108966238    3.4490126685