20

 C   -0.1373449545    1.5918601762    0.0534099347
 C    0.0343244685    0.0782868818    0.0293771218
 C    1.1324504611   -0.5473746231   -0.9179936373
 O    2.0173536535    0.3294300227   -1.5887096380
 C    1.7637272793   -1.2387779840    0.2789021795
 C    2.1505403466   -0.2178248353    1.3163932594
 C    0.7088669370   -0.6314173567    1.2188625649
 C   -0.0401003868   -1.2718970894    2.3528256705
 H    0.8160961138    2.1064418953    0.1959583528
 H   -0.5698569066    1.9539406172   -0.8870638704
 H   -0.8125912740    1.8964261968    0.8603970784
 H   -0.9313497877   -0.3961226970   -0.1810426660
 H    0.6879897681   -1.2623242657   -1.6228009758
 H    1.5345490916    0.7506513701   -2.3071131841
 H    2.1833406869   -2.2379248628    0.2732842240
 H    2.6824945172   -0.6222597172    2.1722932337
 H    2.4905122027    0.7660409075    1.0098399766
 H   -0.4780393812   -0.5183583400    3.0190403922
 H   -0.8584895788   -1.9025974755    1.9856079039
 H    0.6200499034   -1.9003467808    2.9600779091