15

 C   -0.0012357933    1.6302642768   -0.0375222775
 C    0.2736600965    0.1352148827    0.1477468482
 C    0.6663595251   -0.5537813630   -1.1430046669
 C    0.6634209707   -2.0932974139   -1.1837408641
 C   -0.4665495224   -1.9040026478   -2.1965571256
 O   -1.1806011885   -2.5820264938   -2.8614101519
 O   -0.4304368064   -0.5344099714   -2.1333521475
 H    0.8894199081    2.1551278595   -0.3998141177
 H   -0.8024860036    1.7863049215   -0.7651606406
 H   -0.3016109895    2.0934187705    0.9064024539
 H    1.0851981606   -0.0180900972    0.8709612246
 H   -0.6130553735   -0.3650143555    0.5565100667
 H    1.5502059239   -0.0913336960   -1.5930500890
 H    1.5529807621   -2.5771137877   -1.5898210881
 H    0.3607798302   -2.5940312445   -0.2618181245