18

 C   -0.2631135660    1.2960257939    0.0414878104
 N    0.1895969672   -0.0693489096   -0.1254798357
 C    0.5695159927   -0.6812304513    0.9027046771
 O    1.0084111648   -1.9633378776    0.8048689615
 C    1.3817276181   -2.5808601260    2.0202656636
 C    0.2604190735   -3.1546474559    2.8697331667
 C    1.1242921604   -4.0651954639    2.0384005531
 C    2.5580501970   -2.0437376630    2.6505775977
 C    3.5365374698   -1.5799704404    3.1734481961
 H    0.3519214291    1.9632430539   -0.5729370680
 H   -1.2926860355    1.3882377521   -0.3225833102
 H   -0.2300065426    1.6564846800    1.0826379644
 H    0.5897856237   -0.2709495131    1.9217396969
 H    0.3895501837   -3.1474814102    3.9453756701
 H   -0.7461169973   -2.9581176705    2.5188226078
 H    0.7007361440   -4.4703432760    1.1271110103
 H    1.8544458574   -4.6920791654    2.5347793610
 H    4.4063096800   -1.1751798472    3.6290630873