20

 O    0.0798680368    1.4711259465    0.1585992752
 C    0.0404247315    0.0532430050    0.1752960179
 C   -1.3344892887   -0.5047957245   -0.2122450263
 C   -1.3577363490   -2.0055085776   -0.2400092565
 C   -0.7188918120   -2.9121589430   -1.3084046874
 C   -1.9122917869   -3.9130247616   -1.1039483684
 O   -1.6243411709   -5.1982862073   -0.5943002122
 C   -2.4895897868   -2.9801193687   -0.0405705339
 N   -1.5107271133   -2.7384817500    1.0143198087
 H   -0.5229250593    1.7873568667    0.8391559182
 H    0.7958572452   -0.2700170792   -0.5496170454
 H    0.3354957773   -0.3497258608    1.1559910300
 H   -2.0809446687   -0.1573649964    0.5129144845
 H   -1.6149852852   -0.1024119429   -1.1930759614
 H   -0.7054606774   -2.4775311735   -2.3117421353
 H    0.2776146059   -3.2991962765   -1.0697951774
 H   -2.5473818528   -3.9679225591   -1.9978951058
 H   -1.1618102279   -5.6979119513   -1.2747501917
 H   -3.5391944690   -2.8169130240    0.1767373469
 H   -0.8681070189   -3.5233120718    1.1078415601