18

 C    0.3971062386    1.5085773269    0.2058562924
 O    1.2523575012    0.4115496616   -0.1369892221
 C   -0.1272753007    0.1441028049    0.0917992254
 C   -0.4665881243   -0.7218122023    1.2845861624
 C    0.0651275108   -2.1477805996    1.1398326026
 C   -0.1993042837   -2.9187276756    2.4359291649
 N    0.1792379991   -2.1698689578    3.6313882556
 C    0.2964984941   -0.9170825016    3.5315290081
 O    0.0720691610   -0.1064431564    2.4641184487
 H    0.5629206206    1.9296450587    1.1929226448
 H    0.2098823085    2.2215533108   -0.5956261050
 H   -0.6907036603   -0.1251384346   -0.8040653933
 H   -1.5618907248   -0.7424084897    1.3899075306
 H   -0.4057065693   -2.6355837216    0.2798939767
 H    1.1408406675   -2.0910725904    0.9433503118
 H   -1.2608328034   -3.1898099002    2.5170268693
 H    0.3556175654   -3.8629280406    2.4393535232
 H    0.6175865696   -0.3151021725    4.3796384537