16

 C   -0.0126764427    1.4022490363    0.0091610054
 O    0.0049789604   -0.0117339844    0.0027769486
 C   -1.1820904766   -0.6553272302    0.0114659278
 C   -1.4038677417   -2.0060652247    0.0102216457
 C   -2.8266649880   -2.1899385845    0.0212096160
 C   -3.5481711129   -3.4567799631    0.0238987497
 O   -4.7563096661   -3.5717291817    0.0345425418
 C   -3.4130101686   -0.9391157251    0.0293485299
 N   -2.4057799606   -0.0111313329    0.0230843997
 H    1.0297089702    1.7230585434    0.0015902526
 H   -0.5131807930    1.8070059126   -0.8817926085
 H   -0.4978504448    1.7990761823    0.9120640904
 H   -0.6434390811   -2.7699660359    0.0021535556
 H   -2.8915634106   -4.3566129973    0.0172492520
 H   -4.4515067208   -0.6552155672    0.0387517997
 H   -2.5424528632    0.9842027523    0.0265636934