19

 O    0.0583330760    1.4457198600    0.0217838479
 C   -0.0110800024    0.0573993250    0.0575641257
 C   -0.3930572460   -0.7464307661    1.2674543528
 C   -1.1730385585   -0.0364350892    2.3729932908
 C   -2.4804166745    0.4509125352    1.7415017967
 O   -2.4238489081    1.7846980385    1.1408277772
 C   -2.9244364018    1.2564135176   -0.1234490803
 C   -2.6378530840   -0.1879899656    0.3390369387
 C   -1.2766824339   -0.7861618558    0.0063166341
 H   -0.6701572860    1.8137254957    0.5510703590
 H    0.8088978396   -0.3496242416   -0.5271982147
 H    0.2246561955   -1.5910632659    1.5551832745
 H   -1.3990566725   -0.7409454588    3.1802345354
 H   -0.6256797713    0.8018575158    2.8202727059
 H   -3.3395896763    0.3940443763    2.4181705137
 H   -3.9900812807    1.4854878763   -0.2402878635
 H   -2.3587659536    1.6414664235   -0.9744870642
 H   -3.4414853395   -0.9115067045    0.1934020449
 H   -1.2661104719   -1.6496850565   -0.6503928947