23

 C    0.1518780863    1.6508162322   -0.0108375890
 C    0.0015022361    0.1231410125   -0.0209044940
 C    0.6688392357   -0.4882961432   -1.2743827761
 C    0.2391026546   -1.9232346154   -1.6204114631
 C    0.6070738805   -3.0209985180   -0.6121318878
 C   -0.0754777783   -2.8731453285    0.7528608412
 O    0.0451600952   -4.1331285572    1.4080507051
 C    0.5172216698   -1.7625033664    1.5919313025
 C    0.5418915364   -0.4726942467    1.2639041754
 H    1.2099232686    1.9379353471    0.0072577093
 H   -0.3010056861    2.1002163652   -0.8999263588
 H   -0.3262871704    2.0897917285    0.8709975556
 H   -1.0740426908   -0.1076908327   -0.0832778149
 H    0.4267599240    0.1485989900   -2.1349199230
 H    1.7590282872   -0.4434664654   -1.1530314420
 H   -0.8495338072   -1.9360224767   -1.7749849352
 H    0.6797030612   -2.1888432822   -2.5885817597
 H    0.3032048649   -3.9925281879   -1.0174994606
 H    1.6925023342   -3.0608927399   -0.4634145355
 H   -1.1433461449   -2.6531770483    0.5676119657
 H   -0.3737395508   -4.0576421372    2.2713448141
 H    0.9702954235   -2.0883141962    2.5265830074
 H    1.0068664804    0.2272065364    1.9559833833