20

 C    0.2713761101    1.3789775106    0.1212336185
 O   -0.2188638179    0.0887800842   -0.1652242295
 C    0.4434277314   -0.5314507579   -1.2347061923
 C    1.8026223500   -1.2075514129   -0.8894677324
 N    1.0968087508   -2.4976984438   -0.7717382320
 C    1.7478642558   -3.6751035887   -1.3146707677
 C    0.9025093320   -4.8625914550   -1.2210913848
 C    0.1975710932   -5.8338359226   -1.1663789228
 C   -0.0921673402   -1.9590449690   -1.4647248942
 H    1.3281747392    1.3642778405    0.4274880592
 H    0.1745538467    2.0509646104   -0.7464466352
 H   -0.3256461692    1.7765088828    0.9451857565
 H    0.4596537178    0.1291418106   -2.1120561961
 H    2.5127556580   -1.1637178755   -1.7321869528
 H    2.3102372518   -0.8788720810    0.0240489411
 H    2.0463954022   -3.5346107095   -2.3751702986
 H    2.6768504093   -3.8417606604   -0.7535300363
 H   -0.4214889686   -6.6944984329   -1.1074608283
 H   -1.0476644170   -2.1920275723   -0.9874745366
 H   -0.1412512855   -2.2217290976   -2.5329752157