19

 O   -0.7228532270    1.1207971739    1.2134293377
 C   -0.1560770460    0.1537812356    0.3720467002
 C   -0.6867295525   -1.2567522229    0.4056361600
 C   -1.0339169472   -0.3312123779   -0.7427444567
 C   -2.4050495825    0.2747922716   -0.9211484186
 O   -3.1698292886   -0.3427848723   -2.0064924139
 C   -4.3140547494   -0.4367879333   -1.1557906752
 C   -4.0585100872   -1.3831943965   -0.0317207284
 C   -3.5561169951    0.0488384891    0.0576192993
 H   -0.4411028904    0.9345954741    2.1148936495
 H    0.9037611943    0.2999455195    0.1641830162
 H   -0.0023267997   -2.0792093389    0.2273978644
 H   -1.4711092510   -1.4573167904    1.1269265135
 H   -0.5419414312   -0.5207279634   -1.6928675214
 H   -2.3042145893    1.3445228020   -1.1434674235
 H   -5.2812646863   -0.1806406197   -1.5719708653
 H   -4.9094412772   -1.5907654439    0.6103101489
 H   -3.3757839543   -2.2137463437   -0.1813984814
 H   -3.8416157394    0.7281038571    0.8475922547