17

 C   -0.0800396042    1.4877088572   -0.4222558567
 C    0.0523702377    0.0357007021   -0.0096585163
 O    1.1046089880   -0.4842496165    0.2662841252
 C   -1.2608085710   -0.7522970586    0.0528147777
 O   -1.0699738726   -2.1616168852    0.1761580242
 C   -1.4644132707   -2.1565348399    1.5598956706
 C   -1.9900765093   -0.6986020953    1.4460337872
 C   -1.5966419574    0.2740112622    2.4409719260
 C   -1.2665699617    1.0768945570    3.2731599054
 H    0.8870267659    1.9844199777   -0.3376323129
 H   -0.4369025642    1.5542768971   -1.4567777463
 H   -0.8155345289    1.9965659188    0.2102036315
 H   -1.8966232919   -0.4944424631   -0.8036566802
 H   -2.2128789360   -2.9232071764    1.7820676226
 H   -0.6048360825   -2.2608346542    2.2301251719
 H   -3.0735158565   -0.6779640680    1.3024883107
 H   -0.9693813747    1.7799579352    4.0118341694