18

 C    0.0102246583    1.5443975150   -0.4225134743
 C   -0.0096843252    0.0799208027   -0.0608953092
 C    1.2218179719   -0.7539860601   -0.1520358698
 C    0.6377353531   -0.4384280928    1.2259341772
 C    1.3080514867    0.4432826029    2.1330092906
 C    1.8649170083    1.1866011359    2.8980660258
 O   -1.1781110798   -0.6016523977   -0.4712885081
 C   -2.2964160306   -0.3847911173    0.2605473371
 N   -3.3963304304   -0.8668716468   -0.1241383533
 H    0.9454354893    2.0071007354   -0.1013705854
 H   -0.0917134125    1.6609845360   -1.5056254201
 H   -0.8128031726    2.0827233851    0.0588645123
 H    1.1059767777   -1.7718796448   -0.5040705086
 H    2.1479081117   -0.2634742428   -0.4267414349
 H    0.1086215366   -1.2660014092    1.6894027037
 H    2.3581287423    1.8383494280    3.5758263207
 H   -2.1168080037    0.2037895112    1.1688331928
 H   -4.1284132912   -0.6342003008    0.5439354835