15

 O    0.0226111486    0.0278281418    0.3561103906
 C   -0.0093810491    1.1748876912    0.0180927133
 O   -1.1878301316    1.7744568739   -0.2691065290
 C   -1.2303275877    3.0010187664   -1.0215663205
 O   -0.1793171398    3.8606692325   -0.7643239850
 C    1.0594352340    3.2271303155   -1.0322760990
 C    1.2514425069    2.0660642061   -0.0379080898
 C    1.5402760692    2.5525723387    1.3075941535
 C    1.7776606785    2.9671830175    2.4093165118
 H   -1.2652068026    2.7202430444   -2.0864703203
 H   -2.1544065741    3.4989673473   -0.7263486933
 H    1.0775323241    2.8442073403   -2.0648858520
 H    1.8416652146    3.9782840526   -0.9168994845
 H    2.0649662119    1.4140067010   -0.3734807434
 H    1.9867878371    3.3238365608    3.3877456675