18

 C   -0.4186915312    1.4835665045   -0.2155847185
 C    0.1503477509    0.0905075991    0.0864904921
 C    0.8915140820   -0.4969403884   -1.0828528161
 O    0.1095253318   -0.8707575727   -2.2464015878
 C    0.8388127964   -1.8864318911   -1.5644776424
 C    2.1540412820   -2.1853268149   -2.2438436677
 O    2.8543605660   -0.9287372134   -2.2879353439
 C    2.2354402324    0.0145861906   -1.5154584853
 N    2.7312126102    1.1331099793   -1.2032559923
 H    0.3863321306    2.1818870973   -0.4530694948
 H   -1.1043778585    1.4401189914   -1.0668990050
 H   -0.9709040646    1.8649312892    0.6480858230
 H    0.8369615917    0.1412966043    0.9387032079
 H   -0.6584530707   -0.5962242385    0.3592422130
 H    0.2618813471   -2.6691828084   -1.0804986147
 H    2.7473289784   -2.9098644468   -1.6733811356
 H    2.0315653473   -2.5446550936   -3.2697860744
 H    3.6719575182    1.2326946422   -1.5890003076