21

 C   -1.7121062483    0.7992583876    1.2642405916
 C   -0.8482697942   -0.3961078175    0.9243311991
 C    0.2022844193   -0.3340767847   -0.1356865012
 N    0.5717930721   -0.5045260818    1.2604941185
 C    1.3052600553    0.4989485028    2.0094583804
 C    1.6091850825    1.8509573672    1.3878080331
 C    1.0969718143    0.4164320895    3.5019990867
 C    2.3819664006   -0.0939378061    2.8936680321
 H   -1.2664499501    1.7457941547    0.9517016282
 H   -2.6815362908    0.7078094683    0.7622904508
 H   -1.9031015617    0.8548669129    2.3413635421
 H   -1.3678398715   -1.3459035138    1.0546255819
 H    0.4005106457   -1.1801347815   -0.7909036844
 H    0.3562322013    0.6364050685   -0.6046514134
 H    0.7100795727    2.4321543522    1.1623162803
 H    2.2168036881    2.4462334828    2.0755654722
 H    2.1808182948    1.7389153086    0.4597882777
 H    1.1213715094    1.3371608585    4.0751429327
 H    0.3883803720   -0.3209519289    3.8613360172
 H    2.5135458314   -1.1673836377    2.8359414264
 H    3.2910503870    0.4762769985    3.0535046479