21

 C    0.0081078438    1.4669255650    0.0442662727
 C   -0.0005999397   -0.0523646064    0.0026423986
 C    0.2535098773   -0.6922915204   -1.4102778750
 C   -1.0701682423   -1.4526981465   -1.2844117250
 C   -1.2198456775   -2.1862259093    0.0303517419
 C   -0.1079489885   -2.8067791247    0.8554064431
 O    1.0914815979   -2.0522321491    0.8775276340
 C    0.8953782279   -0.6630891083    1.0833257215
 C   -1.4092987728   -0.7002120611    0.0046903578
 H    1.0078908875    1.8628833813   -0.1681948245
 H   -0.6832944999    1.8827540628   -0.6961035803
 H   -0.2979075496    1.8395767377    1.0294433700
 H    0.2002484858    0.0677580497   -2.1948852966
 H    1.1668205992   -1.2781223823   -1.5351771282
 H   -1.7304853174   -1.6844412026   -2.1123469081
 H   -2.1483512131   -2.7505343862    0.0907550931
 H   -0.4838301622   -2.9468235740    1.8852454655
 H    0.1712413573   -3.7933730783    0.4693143473
 H    1.8980643851   -0.2219503970    1.0574798838
 H    0.4632519940   -0.4700786065    2.0812919074
 H   -2.3259106325   -0.2018524437    0.2992595008