16

 C   -0.1037427346    1.5627299887   -0.0765440859
 C    0.0710998055    0.0513054133   -0.0166994447
 N    0.9451639265   -0.4493050461   -1.1165103267
 C    1.5818985457   -1.4024931133   -0.5863056870
 O    2.7889041486   -1.9978086843   -0.8295932921
 C    2.9590006620   -2.1469174682    0.6398300537
 C    1.4714128904   -1.7449086512    0.8530147592
 C    0.7862369843   -0.4317312912    1.3052177143
 O    0.7955896800    0.1217164059    2.3639707646
 H    0.8695416555    2.0608076723   -0.0918418342
 H   -0.6479957906    1.8445295590   -0.9806479177
 H   -0.6576755677    1.9111618622    0.7989045885
 H   -0.9166092991   -0.4329308971   -0.0509419065
 H    3.2217212838   -3.1721695705    0.9011169288
 H    3.7065980089   -1.4364421992    0.9974943747
 H    0.8334302009   -2.5928910903    1.1148506909