17

 C    0.0067537317    1.4234103492   -0.0034742706
 C   -0.0002333822   -0.0698123391   -0.0063957955
 C   -0.9784269611   -0.9752984647    0.7524759599
 C    0.5268988779   -1.0829536685    0.9705478275
 C    0.5314250522   -2.0417047140   -0.2381418644
 C   -1.0322498028   -2.1540986921   -0.2487172874
 C   -0.9837912665   -1.4960885591   -1.6395330905
 N    0.3328880749   -0.8776419032   -1.2300485249
 H    0.9851269401    1.8123894288   -0.3031008180
 H   -0.7417761124    1.8213159979   -0.6988393547
 H   -0.2260089714    1.8088604555    0.9946614876
 H   -1.7427912622   -0.6022381583    1.4209383829
 H    1.1436153462   -0.9836525073    1.8535540686
 H    1.2416693662   -2.8271744982   -0.4894193929
 H   -1.6024470697   -3.0485234222    0.0022935086
 H   -0.8110198931   -2.2088151406   -2.4519651699
 H   -1.7666267778   -0.7855032442   -1.9239684165