19

 O    0.0202776402   -0.0446809944   -0.0217874808
 C   -0.0129596885    1.1711580798    0.0132089915
 C   -1.3332996326    1.9340245511    0.1015697534
 N   -1.1662751065    3.3167487126    0.5383735789
 C   -0.1587686639    4.0037905716   -0.2627358682
 C    1.1824714320    3.3700044697    0.0310793736
 C    2.4497149232    4.0553303393   -0.3877595029
 C    2.0856537109    3.9655511338    1.0827533863
 N    1.1134563389    1.9366713714   -0.0959733977
 H   -1.7992876591    1.8382497031   -0.8976824563
 H   -1.9677614005    1.3899506363    0.8052617820
 H   -2.0537314705    3.8037689718    0.4866165618
 H   -0.3559061414    3.9454737215   -1.3509075766
 H   -0.1327395518    5.0607555803    0.0155311734
 H    3.2653784242    3.4365753088   -0.7489417647
 H    2.3732307764    5.0159072082   -0.8868566635
 H    1.7597507492    4.8651161754    1.5935474956
 H    2.6544740542    3.2801174680    1.7015115041
 H    1.9729198654    1.4072627618   -0.1452362499