18

 C   -0.1486784205    1.5540334475   -0.0274707486
 C    0.0539181957    0.0357302065   -0.0062806794
 N    0.7109524415   -0.4417331130    1.1984034706
 C    2.0728165577   -0.7258967684    1.2707236221
 O    2.8693317471   -0.5703601672    0.3752874851
 C    2.2557480567   -1.2666172762    2.6909248424
 N    0.9387682600   -1.2375342313    3.3200786818
 C    0.1357373408   -0.7835983965    2.4289996318
 N   -1.2294788697   -0.6841847770    2.5757975166
 H    0.8139390419    2.0675343154    0.0413177571
 H   -0.6354230539    1.8569622636   -0.9594674383
 H   -0.7736212805    1.8962569184    0.8048404146
 H   -0.8995989937   -0.4915131296   -0.1156788986
 H    0.7004696082   -0.2618669701   -0.8367008215
 H    2.6698353425   -2.2815716157    2.6520102082
 H    2.9789058363   -0.6515243517    3.2395667030
 H   -1.5139992151   -0.8220746812    3.5358762683
 H   -1.6672360850    0.1176007766    2.1460208949