13

 N    0.0135594357    1.3067132627    0.0093998476
 N    1.2602974641    1.8530326222    0.0003974103
 C    2.1080431434    0.8441465104   -0.0135714269
 C    1.4181777826   -0.4047137357   -0.0139840590
 C    0.0488423161   -0.0484270008    0.0013451337
 N   -0.9767595323   -0.9012791999    0.0064526173
 C   -0.5843876074   -2.1707515694   -0.0045861002
 N    0.6755018677   -2.6556301406   -0.0195808174
 C    1.6726411164   -1.7779199644   -0.0242708870
 H   -0.7947288781    1.9061766398    0.0206684485
 H    3.1707468792    1.0362415106   -0.0227983603
 H   -1.3744212470   -2.9169520698   -0.0011546634
 H    2.6843030297   -2.1784918850   -0.0363747933