14

 O    0.0774575254    1.3869534460    0.2391377007
 C    0.0915175418   -0.0060652735    0.0964244074
 C   -1.3026147369   -0.6688720360    0.1450928450
 C   -2.4905238417    0.2868066576    0.1981230562
 C   -3.7670246314   -0.4075913659    0.0483337257
 N   -4.7742034763   -0.9626864330   -0.0574113267
 O   -1.0909539291   -1.2138908773   -1.2014013633
 C    0.1125123665   -0.5671888003   -1.3391391692
 O    0.8196954520   -0.5138982844   -2.2905846988
 H    0.8866204753    1.7412355567   -0.1466142938
 H    0.8285238416   -0.4923657198    0.7491986052
 H   -1.4103618867   -1.4870122031    0.8590769665
 H   -2.4764978100    0.8123195773    1.1595631812
 H   -2.3876826505    1.0483453457   -0.5795766560