18

 O    0.0547440042    1.2822612067    0.4964952899
 C    0.0183815804    0.0385946105   -0.1853609025
 C   -1.3759859611   -0.5222194941   -0.2340101855
 C   -2.5846024311    0.2522973717   -0.7417585395
 C   -3.3984981779   -0.4928514816    0.3674415409
 C   -3.9425032609   -1.7728300524   -0.2169667188
 C   -2.9162040009   -2.5987827975   -0.4235397274
 C   -1.6850961413   -1.9589328980    0.1175960523
 N   -2.0810013379   -0.8818628477    1.0574943308
 H   -0.3580952841    1.1251354685    1.3545764088
 H    0.3889334459    0.2306267778   -1.1987622706
 H    0.6955509102   -0.6930616480    0.2826562258
 H   -2.4548592076    1.3088261579   -0.5010064245
 H   -2.9019309084    0.1387122400   -1.7821603982
 H   -4.0687801273    0.0969223597    0.9910287972
 H   -4.9673202990   -1.9033211462   -0.5401315508
 H   -2.9279940509   -3.5626519583   -0.9145209503
 H   -0.8451176924   -2.5666363189    0.4413396427