21

 O   -0.0870525813    1.3749443616    0.1845362990
 C    0.0495957229    0.0105261550   -0.1587988734
 C   -1.2954730324   -0.6968113298   -0.1712667603
 O   -2.0938927291   -0.0231887902   -1.1432909795
 C   -3.4031183166   -0.4565759074   -1.2023675714
 C   -3.7919959575   -1.7215569000   -1.9165428460
 C   -4.3402164216   -0.3911686502   -2.3940546146
 C   -5.4905861640    0.0449256138   -1.4772086109
 C   -4.5139835283    0.0097217906   -0.2515978275
 H   -0.7854803905    1.7173142956   -0.3858218673
 H    0.5263929628   -0.1117687487   -1.1446809473
 H    0.7024104336   -0.4499013801    0.5900951605
 H   -1.1848169625   -1.7595001602   -0.4330230516
 H   -1.7661161787   -0.6271393135    0.8197657421
 H   -3.0073476616   -2.1324784011   -2.5438777837
 H   -4.4473954830   -2.4606996895   -1.4596703056
 H   -4.1516649910   -0.0318438736   -3.3979090204
 H   -5.8591967298    1.0509589865   -1.6868417858
 H   -6.3430183564   -0.6403731212   -1.4345663864
 H   -4.7696447704   -0.6560134653    0.5787564698
 H   -4.3183367344    1.0103534778    0.1409573004