17

 N    0.5983576377    1.3714352720    0.0739120251
 C    0.2468006757    0.0396809959    0.0266466082
 N   -0.9737996257   -0.4571904875    0.1531593631
 C   -0.7510575076   -1.8004257223    0.0915969766
 N    0.5021631705   -2.1707689891   -0.0678449398
 N    1.1551238512   -0.9595390558   -0.1027312051
 C    2.6009786936   -0.9123379803   -0.1762168546
 C    3.1499738926   -0.3928708821   -1.5078077641
 O    2.9745517728    1.0139746523   -1.6806425310
 H    1.2999273086    1.6191779538   -0.6168158396
 H   -0.2193979339    1.9638719600    0.0349442143
 H   -1.5473329399   -2.5272095950    0.1617703312
 H    2.9857026139   -0.2940994302    0.6458454638
 H    2.9393803459   -1.9384364799   -0.0162517771
 H    4.2128070827   -0.6597135414   -1.5853446287
 H    2.6201858738   -0.8712532271   -2.3361646448
 H    3.6348756981    1.4623673170   -1.1416984273