22

 C   -0.2397551590    1.4921754061   -0.2545477236
 C    0.0725857950    0.0215614223   -0.0551022985
 N    1.3379564125   -0.5659644810   -0.7263327060
 C    2.1125795135    0.0347495695    0.4607785646
 C    0.8608323669   -0.5483795005    1.1661927880
 C    1.1097034399   -1.7532218965    0.2225416854
 C    0.4892338365   -0.5428482504    2.6125455980
 C    1.5524892422   -0.6446717212    3.6807466138
 C    0.8087164847    0.6502727040    3.4834721748
 H   -0.4351397710    1.6887705183   -1.3140793395
 H   -1.1440202805    1.7538689781    0.3051973206
 H    0.5561492873    2.1652323151    0.0706405014
 H   -0.8079642910   -0.5706528865   -0.3334390854
 H    3.0713140623   -0.4610304988    0.6379283386
 H    2.2476261576    1.1157443934    0.4090465217
 H    0.2550359407   -2.3776637002   -0.0549833366
 H    2.0075513555   -2.3554697211    0.3862577137
 H   -0.4486313106   -1.0496598185    2.8279537299
 H    1.3371819105   -1.2360417721    4.5636090341
 H    2.5881368387   -0.6861733183    3.3599709486
 H    1.3459575534    1.4762617640    3.0295808190
 H    0.0824133051    0.9497267743    4.2307025972