18

 O   -0.1763490758    0.0188940492    0.8709980699
 C   -0.1417695000    1.1496545970    0.4313965607
 C   -1.2782621322    2.0942109363    0.2189311500
 C   -0.8162553826    3.2586099652   -0.2366251584
 C    0.6790938452    3.1968308118   -0.3821019357
 N    0.9905859500    1.8382711788    0.0119647874
 C    2.3306537048    1.3761846822    0.1612519074
 C    2.6844120796   -0.0004057057   -0.3241870790
 C    3.1884899383    1.2032580538   -1.0747255559
 H   -2.2987789864    1.8107392053    0.4329816764
 H   -1.3857011015    4.1452314684   -0.4831142794
 H    1.0032915758    3.4085354683   -1.4113780894
 H    1.1795362968    3.9344053770    0.2647011424
 H    2.8380017103    1.7263703511    1.0596147445
 H    3.3833502942   -0.5725229907    0.2744265574
 H    1.8862640307   -0.5838150661   -0.7627414200
 H    2.7305761855    1.4261739000   -2.0320821870
 H    4.2375553275    1.4674035181   -1.0029057213