19

 C    0.0797947593    1.5776120659    0.4090696681
 C   -0.0073465073    0.1371683078   -0.1225214029
 C   -1.3899367044   -0.4369974604   -0.0547294186
 C   -2.1678477971   -0.7812669670   -1.1127782227
 N   -1.9431007960   -0.7349391448   -2.4880521737
 O   -3.3952958710   -1.2692967509   -0.6504150176
 C   -3.3510858162   -1.2201261299    0.6991021918
 N   -4.5234581097   -1.5942195073    1.3460740337
 C   -2.1584657005   -0.7260985886    1.1328203893
 H    1.1058185249    1.9550297894    0.3497970989
 H   -0.5636206468    2.2459150794   -0.1716352094
 H   -0.2404127861    1.6365483483    1.4543858251
 H    0.3275271384    0.1068465554   -1.1640277705
 H    0.6829319162   -0.4958962967    0.4511024302
 H   -1.9668972335   -1.6529773817   -2.9220685176
 H   -2.6121183997   -0.1453858552   -2.9740588015
 H   -5.0046461740   -2.3479090825    0.8708455028
 H   -4.3692329859   -1.8300985300    2.3168647589
 H   -1.8548532005   -0.5855027512    2.1584600256