21

 C    0.3254446140    1.6093538984    0.0060864035
 C   -0.0019542165    0.1094782146    0.0129784854
 C    0.5646984048   -0.5773578100   -1.2367358910
 C    0.5196887141   -0.6019842911    1.2796533994
 C   -0.1183311695   -0.1613538581    2.5774549938
 C    0.6650636633   -0.0786652329    3.8347414290
 O    0.2872237674    1.0996320977    3.1480752731
 C   -1.5819708951   -0.4222230119    2.7788020857
 O   -2.2450544515   -1.1599013868    2.0954498697
 H    1.4098706852    1.7725891696    0.0248487552
 H   -0.0649319931    2.0824680378   -0.9009942671
 H   -0.0984784739    2.1284960626    0.8689122930
 H   -1.0918554821   -0.0091141931   -0.0057748909
 H    1.6595796973   -0.5130407489   -1.2587513007
 H    0.2906832603   -1.6369276747   -1.2720592068
 H    0.1881744493   -0.1026425702   -2.1484754084
 H    0.3386829762   -1.6788687880    1.1817857570
 H    1.6045712330   -0.4617764179    1.3584943493
 H    0.1819757308   -0.2379965690    4.7985090255
 H    1.7208408403   -0.3418884640    3.7906358682
 H   -2.0088136244    0.1375653358    3.6411238969