17

 O   -0.9337382372    1.5563166913   -0.1151860356
 C    0.0930059607    1.2415741681    0.4328853848
 C    1.4237217477    1.9061049669    0.1979158085
 C    1.4965156964    3.0249531148   -0.8725321789
 C    2.0111139507    4.0297250152    0.1992656773
 O    1.1501903623    5.0862668784    0.5675289315
 C    0.1540788655    4.5126668374    1.3835949620
 O    0.7683447764    3.4528103901    2.1082052207
 C    1.8215747175    2.9564011555    1.3106846519
 H    0.1078201057    0.4278758779    1.1913136520
 H    2.1945560737    1.1339452038    0.1060560047
 H    2.1858618397    2.8392690053   -1.6977778252
 H    0.5164571616    3.2849932171   -1.2776088517
 H    3.0075668914    4.4410286346    0.0357992508
 H   -0.2032955020    5.2643483929    2.0921403003
 H   -0.6779736234    4.1222571714    0.7788825269
 H    2.6518222936    2.6798589592    1.9619251601