15

 O    0.4927172055    1.3471498458   -0.2335418777
 C    0.2378412827   -0.0019910873    0.0495280703
 C    0.7370341136   -0.4896379238    1.3823937244
 C   -0.1607749393   -1.2815124719    1.9936709423
 C   -1.4555173162   -1.3996908924    1.2201271605
 C   -1.2702985175   -0.3136302091    0.1621409401
 O   -2.1106277770    0.3104835692   -0.4291701908
 C    0.0628739763   -1.9453350800    3.2832836385
 O   -0.7522764036   -2.6576214476    3.8243071032
 H   -0.3109686198    1.6847562827   -0.6553306894
 H    0.6522638166   -0.6527822262   -0.7467458990
 H    1.7215346618   -0.2451761846    1.7655670217
 H   -1.5683444010   -2.3810146856    0.7407640507
 H   -2.3526347470   -1.2407531593    1.8244792416
 H    1.0547205550   -1.7412543698    3.7429228834