15

 C    0.1792464727    1.4633066377    0.0059967076
 C   -0.0727694131   -0.0116235049   -0.0122355991
 C   -0.3705113850   -0.7822878727   -1.0906437122
 O   -0.5410013994   -2.0927510441   -0.7247851704
 C   -0.3358567673   -2.1345336317    0.6117469644
 O   -0.5181394923   -3.3358459709    1.2136428944
 C    0.3244540935   -4.3595360572    0.8505673162
 O    0.1884639167   -5.4577670481    1.2805641830
 C   -0.0467630733   -0.9111103693    1.1148123673
 H    1.1794732921    1.6938200708    0.3892049520
 H    0.0995788973    1.8884030123   -0.9980998122
 H   -0.5399993787    1.9833717794    0.6482958360
 H   -0.4917771349   -0.5738684109   -2.1403809631
 H    1.1025909511   -4.0262772680    0.1441294436
 H    0.1554768106   -0.6759183324    2.1471299324