17

 C   -0.0150925698    1.5046642638   -0.1289193888
 C    0.0117353090    0.0083271178    0.0572765016
 N    1.2969788318   -0.6803173850   -0.0688352877
 C    0.6227104018   -0.6784181468    1.2522839355
 C    1.3455253889    0.0532489778    2.3715848833
 C    2.5701203597   -0.7024923172    2.8674186785
 O    2.9208610606   -0.7283765565    4.0164840864
 C   -0.0249322339   -1.9094964185    1.6563151982
 N   -0.5298216110   -2.9006154014    1.9749585441
 H    0.9004366724    1.9769595188    0.2318456171
 H   -0.1081982673    1.7393800884   -1.1941479109
 H   -0.8717292816    1.9455203430    0.3902994863
 H   -0.8575127853   -0.5082959022   -0.3460768776
 H    1.1946160052   -1.5830277490   -0.5254137821
 H    1.7039001293    1.0136175754    1.9853883285
 H    0.6839591696    0.2532794847    3.2184751177
 H    3.1458177003   -1.2181507131    2.0679801598