16

 C   -0.0425951471    1.3914844062    0.0217650156
 O    0.0458092879   -0.0367058182    0.0247456225
 C    0.6557474594   -0.6102180791    1.0611877237
 N    0.7043825169   -1.9509873634    1.0018229747
 C    1.3076229830   -2.5144274808    2.0271507530
 C    1.8489720268   -1.7601201865    3.0854050261
 C    2.5394927500   -2.3897918408    4.2611902309
 N    1.7532413749   -0.4342949394    3.0579165739
 N    1.1472135188    0.1589824915    2.0308404948
 H    0.9518571520    1.8450342045    0.0314746168
 H   -0.5689984189    1.6431731965   -0.8993296725
 H   -0.5983292411    1.7508684406    0.8916733050
 H    1.3735063119   -3.6015684520    2.0266884967
 H    3.4087548881   -2.9770296638    3.9454359097
 H    2.8744839286   -1.6089655685    4.9457168657
 H    1.8688481387   -3.0667788068    4.8016802832