14

 C   -0.8124466122    0.6047444424    0.3566686702
 C    0.4522081599   -0.2037238679    0.2388019869
 N    1.5394878942   -0.0406224829    0.8808451121
 N    0.4573612210   -1.2669603146   -0.6795928397
 C   -0.5206865645   -1.7117534906   -1.5158698964
 O   -1.6467579110   -1.2768189781   -1.6582857657
 C   -0.0607558987   -2.9171272935   -2.3481442738
 O    1.0353843040   -3.4051892202   -2.2661244993
 H   -1.0822521301    1.0542201705   -0.6021275220
 H   -1.6568564982   -0.0262999902    0.6445255780
 H   -0.6710243602    1.3895903753    1.1020944435
 H    1.4599647518    0.7447059119    1.5245096635
 H    1.3317029074   -1.7807793346   -0.7217802576
 H   -0.8518490734   -3.2841020777   -3.0302757197