21

 C   -0.2356186754    1.4302262735    0.0061628461
 C    0.0138448972   -0.0700152073   -0.1585505768
 C    0.9442911822   -0.4552821599   -1.3484461770
 C    0.9961064550   -2.0129175089   -1.5245694850
 C   -0.0343130443   -2.3487990290   -2.6299246009
 C   -0.1942527318   -1.0337615910   -3.3531229834
 C    0.3426656418   -0.0187133334   -2.6822744141
 C    2.2784995301    0.1083111798   -1.1358206794
 C    3.3744620742    0.5698008640   -0.9532641619
 H    0.7058040686    1.9716970172    0.1390655065
 H   -0.7479390517    1.8504037676   -0.8651029417
 H   -0.8627411999    1.6222286180    0.8821182806
 H    0.4609354830   -0.4712053402    0.7586181559
 H   -0.9396903792   -0.5917027107   -0.3045306428
 H    1.9970375143   -2.2972877589   -1.8570611851
 H    0.8031086641   -2.5291944798   -0.5806868562
 H    0.3131495714   -3.1548501274   -3.2856596597
 H   -0.9946198106   -2.6854190726   -2.2152870648
 H   -0.7180818608   -0.9444273942   -4.2987798225
 H    0.3437982846    1.0191196547   -2.9921236773
 H    4.3443440672    0.9741958786   -0.8007161005