14

 N    0.0918898060    1.3810942609   -0.1232527217
 C   -0.0349659382   -0.0071864769   -0.0783438040
 N   -1.1072968287   -0.7128462974   -0.2065978973
 C   -0.7080340427   -2.0598044432   -0.1976165375
 C    0.6334258266   -2.1544833655   -0.0390752416
 O    1.4627880207   -3.1982502988    0.0679750717
 N    1.1096157271   -0.8218724369    0.0247827138
 C    2.4300055036   -0.4436545293    0.0066067402
 O    3.3505018965   -1.2364414181    0.0475115670
 H   -0.8028781840    1.7828053979   -0.3795610252
 H    0.3923383541    1.7877542580    0.7575091732
 H   -1.4226358207   -2.8602205725   -0.2886419597
 H    2.3742164956   -2.8496155891    0.0752843822
 H    2.5675361141    0.6455939809   -0.0589335712