16

 C   -0.3033155601    1.3622694414   -0.1257641644
 C   -0.6842676051   -0.0733922417   -0.4389157998
 O   -1.0130921164   -0.7164769939    0.7910845730
 C   -1.2965503741   -2.0904866061    0.6856419594
 C   -2.7073964003   -2.3623956750    0.2498304545
 N   -3.6538500357   -2.7985829721    1.0313902621
 O   -4.7467541225   -2.8792628956    0.2423867506
 N   -4.4032275965   -2.4678428661   -1.0457364152
 N   -3.1849906282   -2.1640420303   -1.0371060058
 H   -0.0345298792    1.8892173391   -1.0459284576
 H   -1.1396760828    1.8881827276    0.3428926784
 H    0.5498054688    1.3950341008    0.5575597803
 H   -1.5341463787   -0.1088151080   -1.1336994979
 H    0.1531441269   -0.6062821373   -0.9177834360
 H   -0.6065925602   -2.5899650679   -0.0108933684
 H   -1.1639494659   -2.5251992050    1.6794296268