18

 C   -0.2564651544    1.7198857794   -0.6677123452
 N   -0.8517180403    0.4217354366   -0.3062888095
 C    0.0039499037   -0.7504886024   -0.1672100645
 C   -0.6161155153   -0.1124804076    1.0288250564
 C    1.1507692682    2.0075671234   -0.2186521410
 N    1.3901208701    2.5355177413    0.9853684234
 N    2.7299553183    2.6394674867    1.0523906115
 C    3.3562938636    2.2026826440   -0.0662521313
 C    2.3611647575    1.7805063034   -0.9203274652
 H   -0.2991125635    1.7913103291   -1.7601057261
 H   -0.9187541943    2.4910372953   -0.2621780163
 H   -0.4002000218   -1.6722579709   -0.5775857333
 H    1.0786651634   -0.6297673393   -0.2842627852
 H    0.0455535549    0.4386658504    1.6927115042
 H   -1.4826272930   -0.5615657821    1.5074278426
 H    3.1471165244    3.0310514127    1.8797465264
 H    4.4299358614    2.2329353400   -0.1645846229
 H    2.4820807871    1.3737337497   -1.9114775839