16

 N    0.0772419856   -1.1575511428   -0.0620658499
 C    0.0685472812   -0.0025044498    0.0131755445
 C    0.0411494028    1.4278243117    0.1057428981
 N    0.2874607775    2.2466612696   -1.1070005696
 C    1.2896074576    2.2583608536   -0.0398350401
 C    1.2064275147    3.4384628356    0.9290607249
 C   -0.1347109671    3.2992309964    1.6520074322
 N   -1.3196188224    3.4265207987    0.7860252498
 C   -0.8424689104    2.0867223088    1.1558293960
 H    0.5968499022    1.6367980638   -1.8619088383
 H    2.2499945283    1.7858924198   -0.2212142444
 H    2.0237149652    3.3679889255    1.6539742469
 H    1.2933161893    4.3943701850    0.4048810424
 H   -0.2058569755    3.6162089389    2.6877506152
 H   -2.1334091627    3.6569204932    1.3515997365
 H   -1.4406116762    1.4455459618    1.7923545257