10

 N   -0.0760842279    1.3398654342   -0.0726555085
 C    0.0915155526   -0.0000844202    0.1086374322
 O    1.1627077978   -0.5243790142    0.3005888727
 C   -1.2380829382   -0.7858674199    0.1008744726
 C   -1.0452297812   -2.2156432705   -0.1035166337
 N   -0.9345910813   -3.3518601970   -0.2735298822
 H    0.7467810826    1.9202780374   -0.0840490784
 H   -0.9590405591    1.7529160228   -0.3158744486
 H   -1.7331970706   -0.6256560448    1.0665319221
 H   -1.9164666247   -0.4007100678   -0.6685858783