13

 O    0.0561647821   -0.0146555449   -0.1063335015
 C    0.0005797451    1.1852368789   -0.0588905708
 C   -1.2629213521    2.0526136680   -0.0837346106
 C   -0.8034899163    3.3485104223   -0.7612096164
 O   -1.4683349628    4.0868660605   -1.4378878183
 C    0.6818409354    3.4710793903   -0.5240167182
 N    1.0165674303    3.2175515920    0.8947681061
 C    1.1831176027    2.1224401370   -0.0861814195
 H   -2.0980140377    1.5756283591   -0.5968626243
 H   -1.5613022193    2.2764282541    0.9472689724
 H    1.2737994812    4.1585656299   -1.1166919008
 H    1.9325416184    3.6199265963    1.0854889404
 H    2.1695405729    1.7486551965   -0.3343154986