11

 C   -0.0231726766   -1.1685584814   -0.0030504299
 C   -0.0261629595    0.0346197468    0.0034872482
 C    0.0170806276    1.4518861058    0.0105505471
 N   -1.1037048764    2.1885353745    0.0291450728
 N   -0.6638149437    3.4542844094    0.0302016801
 C    0.6885483065    3.5615775836    0.0131081346
 C    1.1742489904    2.2756364039   -0.0001545751
 H   -0.0332359059   -2.2301278141   -0.0086626108
 H   -1.3405383467    4.1987240789    0.0430695802
 H    1.1829547430    4.5198378511    0.0117902762
 H    2.2031559313    1.9582846014   -0.0153180535