21

 O    0.1190895041    1.5041090593    0.0697862749
 C    0.0330494253    0.0814681414   -0.0062202506
 C    0.6401409656   -0.4681638836   -1.3113311898
 C   -0.0223990278    0.1161730866   -2.5643397254
 C    0.5993424863   -0.3919568906   -3.8476197330
 C    0.1579503726   -1.7052341981   -4.4457832045
 C   -0.1886721155   -0.4053295819   -5.1315037738
 C    0.6359732114   -0.5543699153    1.1693289030
 C    1.1759409668   -1.0566907909    2.1189966017
 H    1.0365864707    1.7261033271    0.2646596204
 H   -1.0447521027   -0.1265944932   -0.0086030280
 H    1.7159959217   -0.2469040548   -1.3125067766
 H    0.5495901676   -1.5606145289   -1.3070334673
 H   -1.0926009425   -0.1336147009   -2.5582598640
 H    0.0363596794    1.2094087252   -2.5204597464
 H    1.6582319976   -0.1638619528   -3.9496697021
 H    0.9018991976   -2.3484732632   -4.9027163881
 H   -0.6445604780   -2.2416184918   -3.9488394080
 H   -1.2214033991   -0.0736393781   -5.0946046112
 H    0.3216995726   -0.1575808193   -6.0557474808
 H    1.6331933061   -1.5031635163    2.9673569096