18

 N   -0.1833997902    1.3017702907   -0.1113035737
 C    0.0494162729   -0.0442295905   -0.1018966572
 O    1.1057886797   -0.5788866334   -0.3313533481
 O   -1.1130409303   -0.7027400907    0.1846432341
 C   -1.0274123945   -2.0994479669    0.1432139984
 C   -1.1885308802   -2.8557945999   -1.1339043522
 C   -2.1871289668   -3.0643768025   -0.0117709949
 C   -1.5703151974   -3.9766157483    1.0592210742
 C   -0.3967895524   -2.9514987767    1.2400341072
 H    0.6290798080    1.8934866292   -0.0931970955
 H   -1.0331515326    1.6504820282    0.2981919446
 H   -1.5587317615   -2.2575287636   -1.9599676530
 H   -0.4867792181   -3.6379145166   -1.4150439855
 H   -3.2419865940   -2.8614506228   -0.1477295299
 H   -2.1839096075   -4.0710997891    1.9573501667
 H   -1.2898825428   -4.9775145055    0.7168396695
 H    0.6227135842   -3.2954630272    1.0510657449
 H   -0.4354141564   -2.4607589041    2.2151920404