22

 C   -0.2711966018    1.3598809358    0.1532560242
 C   -0.0352125069   -0.1237122524   -0.1440261857
 C    0.9068828141   -0.4371282983   -1.3437747374
 C    2.2778157889    0.2219198644   -1.1681366995
 C    0.9882677089   -1.9669771961   -1.5566162110
 C   -0.2103573064   -2.2554481977   -2.4650722653
 O   -0.4052597431   -1.0529830387   -3.2291453411
 C    0.2389799504   -0.0004145302   -2.6440543072
 N    0.2615951543    1.1683859572   -3.1256213682
 H    0.6433994025    1.8533947976    0.4944642235
 H   -0.6235458000    1.8904760234   -0.7344788251
 H   -1.0190013025    1.4706743282    0.9448221372
 H    0.3952479133   -0.6114747322    0.7402999109
 H   -1.0026425492   -0.6117049709   -0.3183553605
 H    2.7240495046   -0.0626192871   -0.2088861212
 H    2.9609409413   -0.0827799414   -1.9666445758
 H    2.1914898894    1.3090927538   -1.2080796667
 H    1.9190846715   -2.2253319383   -2.0715199978
 H    0.9511235366   -2.5322979650   -0.6221661125
 H   -0.0442928526   -3.0752854605   -3.1681362075
 H   -1.1249358877   -2.4663562966   -1.8981819513
 H   -0.2734332854    1.2085170249   -3.9950983520