17

 C    0.1719614688    1.5645961635    0.0937138918
 C    0.1169259680    0.0736473294    0.0477653695
 O   -1.1158935260   -0.5185995409   -0.3830333976
 C   -0.9562976664   -1.5951743186    0.5700429107
 C   -0.9867241296   -2.9635800662   -0.0877057660
 O   -0.5523330384   -3.9585552690    0.4352883286
 C    0.3888137052   -1.0553880621    1.0530950280
 C    1.2584851338   -0.8684531311   -0.1698687443
 O    1.2337389800   -1.7611798936   -1.2410143140
 H    1.1407984226    1.9033811491    0.4708419096
 H    0.0345052708    1.9764761707   -0.9122457009
 H   -0.6163064304    1.9660256402    0.7375218670
 H   -1.7403697071   -1.5472835847    1.3377443689
 H   -1.4701177582   -2.9703530166   -1.0879730665
 H    0.7480450319   -1.0596084717    2.0730587301
 H    2.2325595740   -0.4310580048    0.0541397684
 H    1.6384251809   -2.5872099537   -0.9509729734