19

 C   -0.0598957516    1.5556458258    0.0283717078
 C    0.0593817717    0.0420867147    0.0826420672
 C   -1.2510993580   -0.6590227924   -0.2468984317
 O    1.1111023102   -0.4518746771   -0.8247452737
 C    1.7114424947   -1.1825880370    0.2269538954
 C    2.2290730168   -0.2601384996    1.3086692016
 C    0.7718124920   -0.5977704611    1.2895546160
 C    2.1539584046   -2.5713798868    0.0534695145
 O    2.1012283372   -3.1969254952   -0.9758738651
 H    0.8803073441    2.0451258607    0.2909349107
 H   -0.3362701476    1.8703419576   -0.9828517304
 H   -0.8365121105    1.9018129378    0.7179164533
 H   -1.5996279110   -0.3560658544   -1.2383081966
 H   -1.1182386833   -1.7439054120   -0.2464699412
 H   -2.0226603696   -0.3985699669    0.4860297749
 H    2.7969154001   -0.7349542716    2.1030292837
 H    2.5927134726    0.7143973574    0.9998638966
 H    0.2729307109   -1.1116876052    2.1012363191
 H    2.5555844565   -3.0134038746    0.9955848079