20

 C    0.0119353164    1.5330817178   -0.0633137750
 C    0.1728116339    0.0387996950   -0.0036824683
 C    0.3515579268   -0.7416993845   -1.3100199188
 C    1.0945737506   -2.0020466703   -0.8908675132
 N    2.4506545046   -1.7266140979   -0.3570548279
 C    1.3278520567   -1.9929692725    0.5707487047
 C    0.7532661608   -0.7163305340    1.1268202250
 C    1.3067207917   -0.1434057738    2.4008765339
 O   -0.6744829210   -0.6618504994    0.9317370264
 H    0.8836801202    1.9949588470   -0.5383724225
 H   -0.8716318351    1.7970857935   -0.6555466115
 H   -0.1143459069    1.9611835482    0.9331534297
 H   -0.6254709716   -0.9766142751   -1.7464995860
 H    0.9244931416   -0.1633029630   -2.0424626573
 H    0.9289095815   -2.9315152528   -1.4248775976
 H    3.0166711915   -2.5682010280   -0.4415543895
 H    1.3247092893   -2.8991778060    1.1693340898
 H    2.3899132970   -0.0127078149    2.3110694316
 H    0.8528035775    0.8202283698    2.6409156411
 H    1.1156471248   -0.8223209591    3.2396895754