16

 O    0.0074880136    1.4186423302   -0.1543170855
 C    0.0565552386    0.0102980952   -0.0377970917
 C   -1.3456944294   -0.6125408036   -0.1506997519
 N   -1.6068867658   -0.2635333258   -1.6067779200
 C   -0.5389416671   -1.3035584491   -1.9160469914
 C    0.7227963457   -0.6388569444   -1.3248512424
 O    1.3208493052    0.3076852377   -2.1602839033
 C   -1.0937852585   -2.0420126750   -0.6792053468
 O   -1.4423422849   -3.1473446681   -0.3937181393
 H   -0.6935634815    1.5924598712   -0.8031124294
 H    0.5769069540   -0.2235824637    0.8911977118
 H   -2.0943578570   -0.3493907920    0.5942810611
 H   -2.5186557553   -0.6246820698   -1.8838911418
 H   -0.4904403729   -1.7201350006   -2.9193292959
 H    1.4558326304   -1.4082973855   -1.0516559270
 H    1.1961710249    1.1630059533   -1.7220524866