15

 C   -0.0338997758    1.5423563790   -0.0140450121
 C    0.0191902960    0.0238086873   -0.0125795134
 C   -1.1421502467   -0.6443273418   -0.5349186654
 N   -2.0658334722   -1.1980282273   -0.9600350764
 C    1.3729675990   -0.7002870823   -0.2508457324
 O    2.5173769848    0.0577361666   -0.4094239896
 C    0.7375852020   -0.7249985626    1.1084223670
 O    1.3406987360    0.0967503809    2.0709356169
 H    0.9549860069    1.9596058104    0.1753189647
 H   -0.3718841198    1.9011790876   -0.9893352334
 H   -0.7220952551    1.9125289789    0.7501802574
 H    1.3565301637   -1.5859060224   -0.8771384968
 H    2.7243922570    0.4268729200    0.4615869946
 H    0.2750106187   -1.6329753290    1.4858306470
 H    1.8501249355   -0.4651864552    2.6649699716