17

 O   -0.1736976370    1.4297989662   -0.0631038892
 C   -0.0063730973    0.0236728887   -0.1538496301
 C   -1.3791432874   -0.5978542488    0.0689643743
 C   -1.3465251014   -2.1131781521   -0.0379256000
 O   -0.4213330226   -2.7311938471   -0.5309244658
 N   -2.4562770152   -2.7441117297    0.4717761588
 C   -2.6260275758   -4.1761377348    0.3433614159
 C   -3.7895196151   -4.5356034262   -0.4781917466
 N   -4.7223666545   -4.8068118367   -1.1032275773
 H    0.6752826414    1.8435366574   -0.2430547408
 H    0.3770721820   -0.2852796031   -1.1347134377
 H    0.6979704891   -0.3520661678    0.6029488622
 H   -1.7729779444   -0.2903844610    1.0444954374
 H   -2.0762040907   -0.2072976100   -0.6833616802
 H   -3.2242800393   -2.1944882258    0.8219173142
 H   -1.7106853885   -4.5524528158   -0.1242370589
 H   -2.7280627433   -4.6585870935    1.3227550138