17

 C   -0.0693779461    1.4085777607   -0.0546458488
 N   -0.0271946683   -0.0298931961    0.0792002861
 C   -1.2022756031   -0.8499979027    0.0470379962
 C   -1.4481871422   -1.6338744820   -1.2210378122
 C   -0.7303874871   -2.2785198175   -0.0518622719
 C    0.7860301710   -2.2379818101   -0.0131490951
 C    1.1468763763   -0.7428882454   -0.0090213929
 O    2.2578982201   -0.2633811193   -0.0927376317
 H    0.9616375373    1.7666790619   -0.0570169737
 H   -0.5588022702    1.7087567527   -0.9898688867
 H   -0.6104483810    1.8667564791    0.7813550642
 H   -2.0225430978   -0.5394538121    0.6856842252
 H   -2.4592284310   -1.9721700516   -1.4220229157
 H   -0.8754138472   -1.3587535951   -2.1015948182
 H   -1.2485355549   -3.0575418900    0.4929796435
 H    1.1869691419   -2.7034966312    0.8930812508
 H    1.2730861125   -2.7205239214   -0.8653589889