16

 O   -0.0913997982    1.4304660113    0.0496128171
 C   -0.0107283078    0.0535415764    0.0417333372
 C   -0.2475509081   -0.7752205853   -1.1827902402
 C   -1.1624771510   -0.9435549160    0.0121720329
 C   -0.4812840330   -1.7636065686    1.1433911100
 N    0.5041995411   -2.7961134036    0.8057355725
 C    1.5944143682   -1.9366101697    0.7664406413
 O    2.7483876481   -2.1095777749    0.4835221438
 C    0.6878961647   -0.7475437325    1.1830741318
 H    0.6406568748    1.7808390604   -0.4708770516
 H   -0.7035534844   -0.2195445544   -1.9960282587
 H    0.4321243241   -1.5625914459   -1.4964649255
 H   -2.2280119469   -0.7657494103   -0.0584193159
 H   -1.0955173181   -1.9729715236    2.0185281300
 H    0.3984962874   -3.7128480137    0.3941925108
 H    0.9275374889   -0.1752932897    2.0761228446