14

 O   -0.0287837709   -0.1217763401    0.1942615077
 C    0.0796476723    0.9991346457   -0.2262395724
 C    1.3477973844    1.8329435767   -0.1265230640
 N    1.4437048578    2.7583072271   -1.2452190080
 C    2.4770843701    3.7741215472   -1.1140759121
 C    2.3168045235    4.8445675882   -2.1826458773
 O    3.2266949913    5.4740088568   -2.6526736100
 H   -0.7626418977    1.5329394026   -0.7214948749
 H    1.2567943253    2.4243375926    0.7972854575
 H    2.2078020062    1.1585395082    0.0109011515
 H    1.5847399486    2.2384204395   -2.1059059669
 H    2.3361457571    4.2798005627   -0.1466731225
 H    3.5148350964    3.4052465661   -1.1320152732
 H    1.2591079356    5.0078732268   -2.4897082453