19

 C    0.0015806337    1.4203317237   -0.0191792013
 N   -0.0285983857   -0.0237387236    0.0376624982
 N    0.0046026734   -0.7436082379   -1.1146493567
 C    0.0281574008   -2.0241445814   -0.7330310160
 C    0.0055744966   -2.1345514521    0.6697200413
 C   -0.0271792047   -0.8357315602    1.1180994576
 C   -0.0141013335   -0.6978419353    2.6077985166
 C   -0.3149967602   -2.1744142837    3.0335667919
 C    0.0430876449   -3.0997342093    1.8211237578
 H    1.0245967728    1.8056027795    0.0609631103
 H   -0.4188167171    1.7310494775   -0.9758983033
 H   -0.5974146362    1.8366262255    0.7947810638
 H    0.0459438637   -2.7954204057   -1.4895338723
 H    0.9648707226   -0.3617864977    2.9754027207
 H   -0.7572854351    0.0018398823    3.0055095599
 H    0.2173168860   -2.4552627637    3.9458852413
 H   -1.3848449765   -2.2650930033    3.2440827582
 H   -0.6627283317   -3.9322354097    1.7346992430
 H    1.0386880562   -3.5463180950    1.9438351889