19

 C    0.0302598493    1.5776178226    0.0338150481
 C    1.5554280656    1.5280401768   -0.0990364949
 O    2.0534048091    0.7854552705    1.0225902412
 C    1.5591943468    0.0591802489   -0.1070569421
 C    0.0117952444   -0.0029651002    0.0230502642
 C   -0.5747449176   -0.7606688721    1.2359813878
 C   -1.1888955152   -2.0661046400    0.6677627234
 C   -1.3145515636   -1.7679925521   -0.8075666901
 C   -0.6746690744   -0.6507201506   -1.1504687149
 H   -0.3403849308    2.0614445569    0.9413237710
 H   -0.4724099987    2.0016100101   -0.8397083986
 H    2.2308084214    2.2413516012   -0.5565564359
 H    2.2280077988   -0.6556662048   -0.5748053886
 H    0.1756539769   -0.9279335133    2.0117751891
 H   -1.3664286010   -0.1504792637    1.6832369139
 H   -0.5377617216   -2.9361796150    0.8315682930
 H   -2.1489323096   -2.3153953784    1.1337760289
 H   -1.8447508319   -2.4183383249   -1.4951838389
 H   -0.5971135779   -0.2532685217   -2.1573766266