19

 C   -0.5106340352    1.3309156163   -0.0767363309
 C    0.1245452847   -0.0506572659   -0.0809621539
 C    1.5616884364   -0.2356952726   -0.6068140963
 O    1.9342654166   -1.0240645245    0.5475123751
 C    0.6861414277   -0.6850242924    1.2371169944
 C    1.0455862324    0.2707730376    2.3855024333
 O    1.9939216872   -0.3306489447    3.2356907243
 C   -0.0138360361   -1.8662630377    1.7185637716
 C   -0.6361459004   -2.8230788680    2.0954055512
 H    0.1502258682    2.0933610725    0.3451168296
 H   -0.7526752478    1.6356463224   -1.1004706885
 H   -1.4442998679    1.3350150984    0.4949888042
 H   -0.5517751817   -0.7662803731   -0.5532394904
 H    1.6844781513   -0.7988532097   -1.5372942916
 H    2.1440857717    0.6934312620   -0.6703409552
 H    1.4297309474    1.2097978440    1.9587327015
 H    0.1620347188    0.5037344404    2.9873572009
 H    2.6878411969   -0.6687006241    2.6544112311
 H   -1.1701213102   -3.6740872010    2.4400658094