18

 C   -0.1296745525    1.5646695087    0.0995774067
 C    0.1630067865    0.1037373677   -0.0285578254
 N   -0.7524664753   -0.9588343875    0.4978514156
 C    0.6521497896   -0.9229813465    0.9641763097
 C    1.5943111145   -1.5110899940   -0.1230439678
 O    1.6118192104   -2.8193282042   -0.6480393531
 C    1.4223147372   -2.6776771681   -2.0715946099
 C    0.7587701139   -1.3156275962   -2.2737093254
 C    0.8818374430   -0.6602700106   -1.1288624939
 H    0.7663896117    2.1638773516   -0.0905205593
 H   -0.8988046784    1.8766435287   -0.6163227068
 H   -0.4902248737    1.8029394440    1.1058148498
 H   -1.3072067177   -0.5237394293    1.2383832603
 H    0.8851952820   -0.8010619732    2.0154828071
 H    2.6136450954   -1.1599680155    0.1130574133
 H    2.3890965991   -2.7757616072   -2.5926136041
 H    0.7734956768   -3.4914301773   -2.4187252484
 H    0.1945508974   -1.0633296510   -3.1622365484