21

 C    0.0485104547    1.4228630163    0.0697425795
 C    0.5471673726   -0.0108451012    0.1031271645
 O    0.0807933551   -0.6192133366    1.3031781929
 C    0.4479434958   -1.9524341331    1.4154057597
 C    1.8576108799   -2.4049574063    1.6402020400
 O    2.5986625911   -1.4489649188    2.3908413498
 C    1.7335999552   -1.6608029588    3.5509474041
 C    1.2401565282   -0.3870195307    4.2037027010
 C    0.8032184337   -2.5695126378    2.7390227027
 H    0.4344465867    1.9845030396    0.9252695591
 H    0.3809206707    1.9190157302   -0.8470781380
 H   -1.0443444157    1.4523569241    0.1040309137
 H    0.1725317565   -0.5704852112   -0.7692204908
 H    1.6449938773   -0.0474632297    0.0758889638
 H   -0.1180797974   -2.6332586698    0.7727484179
 H    2.4095920967   -3.1142910615    1.0324793552
 H    2.2916657670   -2.2695066498    4.2751728776
 H    0.6698670249    0.2150131597    3.4971967906
 H    0.6024768840   -0.6344196230    5.0597163901
 H    2.0895006085    0.1956282939    4.5758781117
 H    0.3044669346   -3.4478980855    3.1272932949