15

 O    0.2121624760    0.4227538693    1.2557642445
 C   -0.0036533891    1.3356183378    0.4809217940
 C    1.0133107420    1.8477669976   -0.4170915685
 C    1.8764384535    2.2609950949   -1.1465663391
 C   -1.3334855207    1.9787748148    0.3922541421
 C   -2.3674234757    1.9281449209    1.4839140646
 C   -2.7011380417    1.3275796863    0.1503389329
 C   -2.8679118316    2.4314348324   -0.8892469459
 O   -1.5970239070    3.0386203703   -0.5228450225
 H    2.6398223820    2.6263694831   -1.7897292761
 H   -2.1529362076    1.2105386372    2.2676059146
 H   -2.8130462888    2.8686938588    1.7951108004
 H   -2.9198559956    0.2778410867    0.0124404678
 H   -2.8347309274    2.0710429351   -1.9224855606
 H   -3.7081045281    3.1225883949   -0.7590892180