18

 C   -0.1911387949    1.4893007225   -0.0239927943
 N    0.0650272825    0.0550576289    0.0805552265
 C    1.3542227183   -0.5340865981   -0.2955439019
 C    2.5361692960    0.3916566136   -0.3546791999
 O    3.2702140081    0.6110859707   -1.2731905154
 O    2.6796286726    1.0123962989    0.8585442686
 C    1.8363432409    0.4129744641    1.8534414274
 C    0.8811672602   -0.5285402334    1.1273232799
 C    0.3312859786   -1.7176872583    1.8729947388
 H    0.6445450447    2.1416793591    0.2614255988
 H   -0.4626709359    1.7132854345   -1.0592024949
 H   -1.0514879780    1.7271503033    0.6089313683
 H    1.3373512055   -1.3808522745   -0.9727509051
 H    2.4657270638   -0.1373761405    2.5612733551
 H    1.3239807993    1.2150820992    2.3949129923
 H   -0.2651534193   -1.3948213287    2.7340878472
 H   -0.3168611706   -2.3026810730    1.2173393580
 H    1.1370238082   -2.3601641783    2.2428050706