16

 C   -0.0421217940    1.5798642821   -0.0513225283
 C    1.5222720356    1.3605902342   -0.0073118967
 C    1.1821353440    0.1737862176    0.9791656975
 C   -0.0697929626    0.0070020738    0.0371890104
 C    0.6366478150   -0.3389874901   -1.2740623040
 C    1.6629939735    0.5513929186   -1.2786545369
 O    2.4347758920    0.4416972435   -2.3454662964
 N    1.8934663656   -0.6089756542   -3.1365416013
 C    0.8328495099   -1.0479937730   -2.4746125351
 H   -0.4174092579    2.0675277575    0.8533911879
 H   -0.4606530648    2.0438766402   -0.9466903000
 H    2.2282048090    2.1513387008    0.2329734775
 H    1.8899870468   -0.6558664531    1.0319136986
 H    0.9216769944    0.5295473352    1.9805420949
 H   -0.9575486283   -0.5398237776    0.3457664708
 H    0.2709418218   -1.8599846953   -2.9149375988