19

 C   -0.0301133338    1.4967308926   -0.2611706622
 C    1.4830509388    1.5115046127    0.1773817768
 C    1.1664060698    0.2493332085    0.9943518773
 C    1.6956514021   -1.1390489096    1.3646333790
 C    0.3124490541   -1.6386648562    1.8416366508
 C   -0.3512473151   -0.4113275529    2.4169181173
 O    0.5274389020    0.6762601713    2.2240665533
 C   -0.8117061837   -0.8825025227    1.0630903242
 C   -0.0369359874   -0.0337519840    0.0774965402
 H   -0.6485808261    2.0927355498    0.4087314132
 H   -0.2475086988    1.7624122839   -1.2972366804
 H    2.1514074345    1.3067834993   -0.6625747788
 H    1.8510425489    2.3717763973    0.7386939775
 H    2.0879626324   -1.6858540343    0.5038425455
 H    2.4287125673   -1.1470126126    2.1760066800
 H    0.1558313200   -2.6310105988    2.2425196934
 H   -0.9476493061   -0.3660759326    3.3174741029
 H   -1.7776316051   -1.3405463319    0.8958646864
 H    0.2611847364   -0.6049445797   -0.8067094562