16

 O   -0.4658773881    0.5802319450   -0.6402113773
 C    0.2270811234    0.9075557031    0.2881274233
 C    1.3747649995    1.8898471507    0.2017964638
 C    1.4818759170    2.7002882388   -1.1402228704
 N    1.1255198009    3.8918789551   -0.3467000560
 C    1.0319475953    5.2427056711   -0.1752370157
 C    0.8848047589    5.4310736293    1.1921397039
 C    0.9299086024    4.1656498501    1.8609852409
 C    1.0844874543    3.2447920975    0.8502983741
 H    0.0476464184    0.5112106374    1.3125167184
 H    2.3007018118    1.4030355400    0.5304053321
 H    2.4855774810    2.7429055902   -1.5703954702
 H    0.7464431643    2.4238454768   -1.8975737384
 H    1.0436671402    5.9456260217   -0.9918346679
 H    0.7393066041    6.3883860342    1.6706255573
 H    0.8552726967    3.9948843090    2.9228899320