21

 C   -0.2922072116    1.2269791231    0.0802571635
 O    0.1420796188   -0.1161567907    0.1146470136
 C    0.7170131100   -0.5693242509   -1.0996376592
 C    1.3667165973   -1.9374739483   -0.8269297085
 C    2.5571383428   -1.8639218293    0.1032460630
 C    2.3720413962   -1.8651058720    1.5979259686
 C    2.9592020405   -3.0731026515    0.9128833903
 C   -0.2783031066   -0.6559709551   -2.1792158573
 C   -1.0959920831   -0.7393082459   -3.0567493456
 H    0.5389552159    1.9139219798   -0.1437126609
 H   -1.0832042351    1.3819739279   -0.6660892245
 H   -0.6855394158    1.4592042298    1.0724989202
 H    1.5035442657    0.1391246329   -1.4163597020
 H    0.5955460010   -2.5945453126   -0.4092529481
 H    1.6638013851   -2.3668801198   -1.7906224219
 H    3.3772744304   -1.2562926934   -0.2735262587
 H    3.0272456689   -1.2436220090    2.1983673329
 H    1.3572649314   -1.9305068718    1.9724786109
 H    2.3421039333   -3.9622707045    0.8320326732
 H    4.0162048984   -3.2797611110    1.0397838517
 H   -1.8156318333   -0.8098722077   -3.8347526712