17

 C    0.0437659373    1.4999409441    0.0846366046
 C   -0.0102000635    0.0148801805   -0.0311505452
 C    0.0013582963   -0.7368951251   -1.1457229477
 C   -0.0757324050   -2.1815354959   -0.8123531989
 O   -0.1490979269   -3.1208545219   -1.5685460702
 C   -0.0861011262   -2.2721303997    0.7227508270
 C   -0.7006856826   -3.4540179140    1.4074368607
 O    1.1360293186   -1.7239347058    1.2691113179
 C   -0.0341817696   -0.8830545732    1.1832532891
 H    0.9349991607    1.8088112746    0.6452477353
 H    0.0626433053    1.9839901908   -0.8942809808
 H   -0.8211127231    1.8797428104    0.6427463773
 H    0.0778759564   -0.3794052273   -2.1650004604
 H   -0.2262019827   -4.3751338185    1.0565170951
 H   -0.5749532906   -3.3784413867    2.4898673569
 H   -1.7679470097   -3.5228435554    1.1749036585
 H   -0.4423627146   -0.5452864871    2.1318015205