20

 N   -0.0095372345    1.2914270399   -0.2121360646
 C   -0.0059357848    0.0512934283    0.0398467383
 C   -1.2892506280   -0.7423989559    0.1264743187
 C   -1.2316605854   -1.8826659039    1.1504917763
 C    0.0428673236   -2.7002123904    0.9163051482
 C    1.2390833268   -1.7831398324    0.9906723179
 C    1.9485400724   -1.5384861456    2.2984002730
 C    2.6299127984   -2.2926871488    1.1692951038
 O    1.1686084732   -0.6543314808    0.1253429694
 H    0.9521115098    1.6341500812   -0.2733639187
 H   -2.1028790794   -0.0424548753    0.3216057512
 H   -1.4652402936   -1.1712606079   -0.8699792427
 H   -1.2212774017   -1.4738004048    2.1680600279
 H   -2.1237078073   -2.5102928713    1.0640854925
 H    0.1494553955   -3.4975790726    1.6579460066
 H    0.0055337326   -3.1764195498   -0.0724850506
 H    2.2878764144   -0.5279105136    2.4928182020
 H    1.6271364689   -2.0909792426    3.1750509015
 H    2.7744938732   -3.3630859117    1.2679797853
 H    3.4120992262   -1.7737856821    0.6273802441