20

 O   -0.0027799359    1.3805907602   -0.2632696936
 C    0.0388443176   -0.0065856450    0.0155325951
 C   -1.3628952485   -0.5571000992    0.1381954454
 C   -2.1748418864   -0.3370876355    1.4440471101
 C   -2.5378508985   -1.8599757738    1.4587465196
 C   -1.7293997556   -2.0607614467    0.1434830955
 C   -2.4441967710   -1.8046760146   -1.1918239219
 C   -3.4648482348   -0.7435243925   -1.1291679125
 N   -2.0552631661   -0.3262593125   -1.2080822626
 H   -0.5829951255    1.4632085386   -1.0322572774
 H    0.5779172926   -0.5603012472   -0.7708014441
 H    0.5906394825   -0.1316320246    0.9533511209
 H   -1.5392667693   -0.0302325281    2.2783043678
 H   -3.0083174988    0.3666827530    1.3837151956
 H   -2.1088672279   -2.3970265902    2.3074813487
 H   -3.6014566032   -2.1058644452    1.4028184622
 H   -0.9697283347   -2.8418866177    0.1190508534
 H   -2.3187115934   -2.4223981766   -2.0761680983
 H   -4.0030403973   -0.5249199347   -2.0472907264
 H   -4.0448157558   -0.5640683176   -0.2300341575