19

 C   -0.0566736820    1.5300300045    0.0058042500
 C    1.4201410380    1.8795955487    0.0419005421
 C    2.1976275668    0.8407099832   -0.2653529362
 C    1.3719583006   -0.3691748662   -0.6248467630
 O    1.8384239871   -1.5826766464   -0.0601775436
 C    0.8907058834   -2.6128815479   -0.2971969294
 C   -0.4466838387   -2.3563967029    0.4207464612
 C   -0.8198205155   -0.8953702760    0.4033822944
 C    0.0007142624    0.0201567929   -0.0976675905
 H   -0.6066629264    1.8751907881    0.8892453358
 H   -0.5454508899    1.9958565983   -0.8637976515
 H    1.7734853011    2.8802272216    0.2648172966
 H    3.2787172592    0.8432883348   -0.3334979865
 H    1.3570408307   -0.4889970694   -1.7276754825
 H    0.7156459577   -2.7101088087   -1.3821106975
 H    1.3484367001   -3.5423296576    0.0519799805
 H   -1.2280161936   -2.9725052849   -0.0439628218
 H   -0.3853714451   -2.6881584329    1.4667755192
 H   -1.7476778559   -0.6073733893    0.8934601728