20

 C    0.0566527571    1.5530190800    0.2792429290
 C    0.0264428231    0.0602759795   -0.0772626935
 C   -1.3661914831   -0.5078454118   -0.1040346513
 C   -2.0809544095   -1.0109282254    1.1212032135
 C   -1.8478992347   -1.9588227488   -0.0238895135
 C   -2.9088498425   -1.7012041753   -1.1127762341
 C   -2.4041138673   -0.2107775801   -1.2000255778
 C   -2.7179287181   -2.4590651937   -2.3388643975
 N   -2.5572465985   -3.0634598814   -3.3115924301
 H    1.0816214947    1.9354995323    0.2813854434
 H   -0.5167666729    2.1448508567   -0.4422991463
 H   -0.3733676522    1.7298981373    1.2704219955
 H    0.4999651392   -0.0927082167   -1.0559318326
 H    0.6281293571   -0.5037886292    0.6462661361
 H   -1.4497070074   -1.1818581949    1.9876984980
 H   -3.0881870203   -0.6781637462    1.3650527561
 H   -1.2812013684   -2.8760177326    0.0764904684
 H   -3.9446637526   -1.8278798532   -0.7797822186
 H   -3.1534367979    0.5553774977   -0.9805275901
 H   -1.9507276961   -0.0000137644   -2.1702945446