21

 C   -0.0476972536    1.4793211118   -0.0416547219
 C   -0.0317428123   -0.0152770216    0.0217664229
 C   -1.0671240197   -0.8539719388    0.0345625166
 C   -2.5452770159   -0.7961238206   -0.1988160954
 O   -2.9062452976   -2.1277018236   -0.6006434077
 C   -1.7241747816   -2.8894558970   -0.8762078064
 C   -0.6578809157   -2.3074640757    0.0579477330
 C    0.8318620496   -2.2457994895   -0.3297069276
 C    1.2673169532   -0.8099546772    0.0801172475
 H    0.5691915730    1.8462711204   -0.8717757239
 H   -1.0605457830    1.8720923701   -0.1679393017
 H    0.3691798703    1.9213138468    0.8729147008
 H   -3.1280748151   -0.5496922877    0.6989967724
 H   -2.8156642231   -0.0703307796   -0.9803510450
 H   -1.9722393781   -3.9400400012   -0.7011583303
 H   -1.4177060270   -2.7713332071   -1.9289140303
 H   -0.7931041353   -2.7368021098    1.0617617636
 H    1.4384901985   -3.0260824556    0.1373166849
 H    0.9316707435   -2.3565590451   -1.4158344775
 H    2.0354723016   -0.3969294608   -0.5851786948
 H    1.6992852085   -0.7916925282    1.0917884707