17

 N    0.1103886581   -1.1680217976    0.5583597244
 C    0.0081514838   -0.0834291810    0.1715127894
 C   -0.0988884344    1.2938489735   -0.3154094978
 C    1.2706169710    1.9982026539   -0.2911665983
 C    1.8817720474    2.9232520889   -1.3122066964
 C    0.9412842448    4.0425079989   -1.8383034735
 N   -0.4114252927    3.8657928494   -1.2478376983
 C    0.6776212576    4.5080048365   -0.4660395477
 C    1.6066755209    3.4089345372    0.1195427956
 H   -0.5143792237    1.2787498852   -1.3246910895
 H   -0.8258302830    1.8284856503    0.2988025756
 H    2.0460623509    1.3330985615    0.0834832153
 H    2.8373185951    2.7109661414   -1.7750186200
 H    1.0869639375    4.5992369858   -2.7541061449
 H   -0.9971013877    4.6157040406   -1.6147657070
 H    0.5714881334    5.5093402909   -0.0711624450
 H    2.3225751109    3.6197118247    0.9040114079