14

 N   -0.1072464421    1.4834356764   -0.2156909042
 C   -0.0285694293    0.0893740518   -0.0596184703
 C   -0.2770999782   -0.8537187415   -1.2369389137
 C   -1.1332608423   -0.9909236425   -0.0232210826
 O   -0.3725720193   -1.7487040230    0.9720641960
 C    0.5756274983   -0.7349171527    1.0602662028
 O    1.4645786336   -0.6407231575    1.8410638436
 C   -2.5375088713   -0.9046351872    0.0963621348
 C   -3.7334561231   -0.8247630432    0.1934021214
 H   -0.1541700379    1.9652577448    0.6748988578
 H    0.6767316367    1.8526259567   -0.7423743392
 H   -0.7391063758   -0.3522808457   -2.0814535141
 H    0.4248229703   -1.6463985931   -1.4750633161
 H   -4.7902086095   -0.7590607032    0.2814386940