15

 O   -0.0544694143   -0.0648004129   -0.0991008767
 C   -0.0763373742    1.1454232554   -0.0041264391
 N   -1.2142851745    1.8851709598   -0.1817441066
 C   -1.4694345849    3.1909737035    0.4119560698
 C   -0.6285801047    4.2889153261   -0.1834808426
 C    0.6827101474    4.2115151805   -0.4056511094
 C    1.5987956117    3.1081411699   -0.0397984128
 O    2.7988102755    3.2984553925    0.0070469052
 N    1.1051911115    1.8450118069    0.2989548451
 H   -2.0149005074    1.2873243254   -0.3192811824
 H   -2.5252567541    3.4124653757    0.2424905427
 H   -1.3261734888    3.1705427287    1.5042835346
 H   -1.1425898504    5.2155009631   -0.4242606695
 H    1.2221148303    5.0575513194   -0.8170953355
 H    1.8628092369    1.1968125459    0.4778932173