18

 C   -0.1752481790    1.4914671404    0.0217427002
 C    0.0396100042   -0.0244058116    0.0165107649
 C    0.9653037295   -0.5088904847   -1.0849906207
 C    1.6678519879   -1.7603034618   -0.7115898116
 N    2.4069411245   -0.4561334801   -0.6670360087
 C    2.3243387895   -0.5029026406    0.8446650904
 C    0.8441068830   -0.5477273616    1.1932531013
 C    1.6081789821   -1.8142916938    0.8333607670
 O    1.7910001171   -2.9159592143    1.6347587540
 H    0.7822363830    2.0181118312    0.0808810777
 H   -0.6874605709    1.8205632839   -0.8883392537
 H   -0.7855659811    1.7993524385    0.8768212300
 H   -0.9285213999   -0.5373737797   -0.0578518677
 H    0.7881288055   -0.2494366213   -2.1239041878
 H    1.9659404542   -2.5624192117   -1.3773757593
 H    3.1169334969   -0.0891510781    1.4522434146
 H    0.5510540234   -0.3984808203    2.2255325819
 H    0.9370000702   -3.3423983244    1.7699712274