21

 C    2.6055418233   -0.8159699834    2.2165705071
 C    1.4643266135   -1.1540437576    1.2426115320
 C    0.2198113045   -0.2851989770    1.4895071359
 C    1.9347246818   -1.0646443410   -0.2014603072
 O    2.7076390488   -2.1766668267   -0.7098168139
 C    1.4288697634   -1.9523119431   -1.2861609807
 C    0.3593544666   -2.9997791463   -1.1061953996
 C    2.4904232326    0.2345519494   -0.7168055197
 O    2.3704973405    1.3125680808   -0.1919764187
 H    3.4790142230   -1.4478963106    2.0282683665
 H    2.9069575742    0.2303068574    2.1232467010
 H    2.2825386879   -0.9853711603    3.2484472756
 H    1.1941884179   -2.2013743429    1.4114099695
 H    0.4480222883    0.7722409044    1.3420623894
 H   -0.5988060602   -0.5569374411    0.8146998096
 H   -0.1346998220   -0.4216675361    2.5160307227
 H    1.4817981290   -1.5515412997   -2.3025122239
 H    0.3155936491   -3.3779690260   -0.0842224930
 H   -0.6190279249   -2.5881212687   -1.3741367001
 H    0.5604273290   -3.8445602191   -1.7732077368
 H    3.0522946137    0.1036033376   -1.6694407857