20

 C    0.3220462658    1.5176967808   -0.0172712907
 C   -0.0254066507    0.0297463881   -0.0405176947
 O   -1.4641404437   -0.0292308994    0.0329624829
 C    0.4263688714   -0.6232301975   -1.3245468421
 C    1.0305219018   -1.8066136557   -1.4130257760
 C    1.4081308024   -2.6734022830   -0.2429486649
 C    1.2287660056   -1.9864547749    1.0940897659
 N    2.0089896979   -0.7515976136    1.2885812680
 C    0.5441068576   -0.6690384110    1.1874397402
 H    1.4064848155    1.6471310656   -0.0110900176
 H   -0.0986638572    2.0191098409   -0.8936257147
 H   -0.0986550892    1.9860225707    0.8780460368
 H   -1.7171057669   -0.9417718383   -0.1455591978
 H    0.1789525356   -0.0730959575   -2.2295477570
 H    1.2770920803   -2.2022869076   -2.3959914511
 H    0.8037297757   -3.5923331617   -0.2639506560
 H    2.4502401571   -3.0047914087   -0.3488514312
 H    1.1382094899   -2.6537775164    1.9487594851
 H    2.2977439939   -0.6663975743    2.2591225543
 H   -0.0214689229   -0.4497566966    2.0908924807