15

 C    0.0299547073    1.4596596569    0.1291191429
 O    1.3426337170    2.0673959137    0.0839681275
 C    2.1506701622    1.4757861107   -0.8250181972
 C    1.9828826896    0.1806042473   -1.2363156112
 O    2.9936530012   -0.1675695793   -2.0846940897
 C    3.7964300798    0.9233212227   -2.1918737354
 C    3.3403626488    1.9645532513   -1.4341759236
 C    0.9866700777   -0.6747161872   -0.6642312353
 C    0.0557922665   -0.0527432401    0.0815066886
 H   -0.4227907875    1.8272153155    1.0523142044
 H   -0.5546509207    1.8599102554   -0.7188207343
 H    4.6372862091    0.8186416203   -2.8573574944
 H    3.7858418535    2.9411789222   -1.3368904506
 H    1.0408729651   -1.7519679587   -0.7705529261
 H   -0.7059851995   -0.5963881708    0.6274546543