19

 N    0.0814649619   -1.1564128303    0.0753965857
 C    0.0591856435   -0.0017502005    0.0360109661
 C    0.0230789941    1.4589347784    0.0178160344
 C   -0.7374227664    2.0786404964    1.2446660279
 C    0.1512959066    3.2613505631    1.6462550639
 C   -0.3727059640    4.4533198974    2.3944600919
 C    0.5492323066    3.4750935963    3.0860349377
 C    1.1888335896    3.3931364039    0.5300420336
 N    1.3814655717    2.0384945476   -0.0096591551
 H   -0.4855170692    1.7656910543   -0.9047450639
 H   -1.7445184619    2.3872085332    0.9502537905
 H   -0.8369617280    1.3498593594    2.0527136185
 H    0.0210400607    5.4316534449    2.1360524719
 H   -1.4187454508    4.4608503687    2.6831922688
 H    0.1220402988    2.8193506137    3.8381203099
 H    1.5653534915    3.7933299756    3.2985222019
 H    0.8081355806    4.0347050928   -0.2766654995
 H    2.1420048442    3.8106449173    0.8635561217
 H    1.9648685104    1.5114170979    0.6355513440