11

 O   -0.0434821381    0.0119854301    0.0035806696
 C   -0.0139494432    1.1927957238    0.0097318938
 O   -1.1672990445    2.0067729182    0.0300890544
 C   -0.6805850925    3.2735344569    0.0304268786
 C    0.6720035362    3.2926143534    0.0119543465
 O    1.1133713305    1.9790961912   -0.0013922255
 C    1.0424554664    4.6445170093    0.0144267287
 N   -0.0644921983    5.3986855296    0.0338433782
 N   -1.1267188510    4.5375170508    0.0436356013
 H    2.0123514378    5.1138637192    0.0037244904
 H   -2.0626499732    4.9036864175    0.0584887440