18

 O   -0.0627199521    1.3936275626   -0.2660520433
 C    0.0462242025   -0.0163499638   -0.1260818778
 C   -1.3607345716   -0.5521683758    0.0504494251
 C   -2.3343907551   -0.4998883132   -1.1709878139
 C   -2.5486830267   -2.0216764404   -1.0525671788
 O   -1.6081509122   -2.7770097145   -1.8822913858
 C   -0.7172723140   -2.9000220140   -0.8296465339
 N    0.3875037491   -3.4914943406   -0.7667675892
 C   -1.5578554207   -2.1025530532    0.1412560812
 H    0.8138202790    1.7459978856   -0.4452455794
 H    0.5160552986   -0.4719790754   -1.0101434281
 H    0.6603047686   -0.2920294081    0.7460179531
 H   -1.8087088502   -0.0681049309    0.9220063379
 H   -3.2333306956    0.0941289321   -0.9950133872
 H   -1.8891760872   -0.1953942036   -2.1203867816
 H   -3.5461065542   -2.4576550072   -1.0878264579
 H    0.6222806676   -3.9323958677   -1.6582523011
 H   -1.7588242561   -2.5475193419    1.1133061609