15

 O    0.3595451151   -0.1091658793    0.1799823366
 C    0.1697305271    1.0682009798    0.0318277191
 C    1.2615409645    2.1106522184   -0.1690979616
 C    1.4021719168    2.9830491240    1.1237522491
 C    2.8618568456    2.7226556208    1.5590021596
 C    3.2109155145    1.4270524203    0.8171375338
 O    2.5196227865    1.5299637866   -0.4236843642
 H   -0.8590827315    1.5034656268    0.0593997542
 H    0.9838945030    2.7198998209   -1.0392419686
 H    1.2083635313    4.0376900536    0.9217506376
 H    0.6934921187    2.6637553265    1.8944674577
 H    3.5099053515    3.5342381787    1.2165542457
 H    2.9701322110    2.6352673730    2.6425476996
 H    4.2751263859    1.3158216439    0.5958514235
 H    2.8715968901    0.5422294360    1.3734402779