18

 C    0.3041206611    1.5140205785    0.1399293451
 O    1.1410972741    0.4230042795   -0.2670488634
 C   -0.2073210331    0.1416786159    0.1026005043
 C   -0.4071473878   -0.7069373075    1.3468112697
 C    0.0428465167   -2.1542051764    1.0901714760
 C    0.0426816181   -2.9155197126    2.4078026275
 O    0.8265560373   -2.2358499537    3.4023941256
 C    0.8222647065   -0.8859720301    3.3378468981
 N    0.2866002920   -0.1176743463    2.4886852054
 H    0.5539905019    1.9473049262    1.1035345572
 H    0.0303717712    2.2088607065   -0.6530702853
 H   -0.8461046253   -0.1504933307   -0.7343800012
 H   -1.4869062550   -0.6951120394    1.5626406048
 H   -0.6103079581   -2.6572343117    0.3694003173
 H    1.0545179659   -2.1375605271    0.6710438208
 H   -0.9778138486   -3.0275959736    2.7966785320
 H    0.4839489731   -3.9102521668    2.3120922289
 H    1.3845027799   -0.4781287508    4.1762722771