12

 O    0.0255382721   -0.0516974194   -0.0024200138
 C    0.0039868770    1.1523927442    0.0086693623
 C    1.2137392798    1.9993469118    0.0028882292
 C    1.3757781800    3.3666199912    0.0135809596
 C    0.3732617487    4.4377295571    0.0345835906
 O    0.6652072835    5.6105683489    0.0419179619
 C    2.7922882146    3.5222030606   -0.0009087397
 N    3.4089595577    2.3702073499   -0.0182019101
 O    2.4098522130    1.4016911408   -0.0159149661
 H   -0.9424534318    1.7290301749    0.0246448782
 H   -0.6856905147    4.1073585524    0.0433393084
 H    3.3590049001    4.4414609175    0.0011306094