17

 C   -0.1753395805   -1.1279805555   -0.3186943797
 C   -0.0735835342    0.0465817293   -0.0905952754
 C    0.0767105819    1.4782624610    0.1653715918
 O   -0.6284713716    1.8031867268    1.3736709764
 C   -1.2217861752    3.0793220397    1.3708837411
 C   -0.3129027303    4.2500447841    1.1305086416
 C    0.9980113516    4.2669204264    0.8413748435
 C    1.8905550446    3.1443930472    0.5722957637
 C    1.5292270040    1.8950740379    0.2553441049
 H   -0.2759280171   -2.1666726087   -0.5158222607
 H   -0.3914353025    2.0301704660   -0.6675435361
 H   -2.0663536583    3.1288584992    0.6580940330
 H   -1.6666679820    3.1796180669    2.3702000201
 H   -0.8165793042    5.2082477322    1.2522317814
 H    1.4697808352    5.2452638208    0.7784000967
 H    2.9528264827    3.3745942417    0.6027238966
 H    2.2780367958    1.1342008250    0.0652340408