17

 C   -0.0796590705    1.4960009189   -0.0008643090
 C    0.0150210295   -0.0005399169   -0.0173240869
 C    0.8600334593   -0.7690996648   -1.0510897262
 C    0.3970199398   -2.1571264280   -0.8519130119
 C   -0.9193594461   -2.1285708138   -0.1083335570
 C   -0.6910791939   -1.5725965172    1.2429948678
 C    0.6692003334   -0.8911797355    1.0650426835
 N    1.4918563268   -1.6357856133    0.0157953667
 N   -1.3293060058   -0.7250381844    0.1635502129
 H    0.9156474723    1.9512351419   -0.0206496059
 H   -0.6405404412    1.8519367030   -0.8721789229
 H   -0.6013448832    1.8408944408    0.8967452957
 H    1.4153309351   -0.3825249490   -1.8995436539
 H    0.6643641675   -2.9684566632   -1.5177392089
 H   -1.7181374969   -2.8262939129   -0.3280240346
 H   -1.2091630703   -1.8506318982    2.1541238200
 H    1.2486461741   -0.5265687174    1.9096980308