22

 C   -0.3891008586    1.4622402277   -0.1300955348
 C   -0.0532973138   -0.0070986654    0.0011607212
 C    1.3055978224   -0.6010155580   -0.3249213449
 C    2.5107629774    0.2664682167   -0.6862151321
 C    3.4145550099    0.5516937850    0.5237625800
 C    2.6112306318    1.1651865906    1.6750103059
 C    1.5143497771    0.2061172817    2.1829607694
 C    0.7922984257   -0.5976858477    1.1063109844
 H    0.4406183026    2.1189615310    0.1378354564
 H   -0.6779187496    1.7048552212   -1.1595630704
 H   -1.2332385283    1.7255978578    0.5173341504
 H   -0.8867814384   -0.6427268879   -0.2911795466
 H    1.2784820888   -1.5591107813   -0.8354455161
 H    3.0886354190   -0.2350760118   -1.4691860729
 H    2.1874253555    1.2215291779   -1.1199106183
 H    3.8782257571   -0.3850837378    0.8618727461
 H    4.2317588132    1.2211159014    0.2318240146
 H    3.2732300621    1.4185849632    2.5107140423
 H    2.1745687404    2.1141936360    1.3407177904
 H    1.9940491079   -0.5196987976    2.8520984520
 H    0.7943961060    0.7540865389    2.8042361915
 H    0.4334306116   -1.5551831418    1.4751483016