21

 C   -0.3465606395    1.4994691945   -0.0794316209
 C    0.1671034631    0.0605000823    0.0622598522
 C    0.8318191570   -0.4677955807   -1.1915183950
 C    0.0045463877   -1.0702464497   -2.2799738275
 C    0.9398400953   -1.9651497857   -1.4666516342
 C    2.2756861014   -2.2258457966   -2.0770509812
 O    2.8275811231   -3.2954792026   -2.1612244427
 C    2.8681679341   -0.8755253030   -2.5148477083
 C    2.1450399860    0.1811070918   -1.6552015180
 H    0.4687952136    2.1969591496   -0.2966449867
 H   -1.0774048605    1.5783331096   -0.8910780815
 H   -0.8302979613    1.8334251104    0.8433405932
 H    0.8796147369    0.0061873441    0.8960065547
 H   -0.6683005078   -0.5984118080    0.3288722553
 H   -1.0530698522   -1.2147638566   -2.0856454097
 H    0.2394823305   -0.8757928647   -3.3216425132
 H    0.5080386580   -2.7224168858   -0.8238981332
 H    3.9520853838   -0.8856582178   -2.3875695536
 H    2.6778754781   -0.7398816773   -3.5861989432
 H    1.9739950052    1.1196183749   -2.1919513298
 H    2.7501023774    0.4207497113   -0.7729675467