20

 C   -0.0906612765    1.4905635540    0.0017389701
 C    0.0577169754   -0.0075394640    0.0426602284
 C    0.2745267133   -0.7596942042   -1.2624637207
 O    0.7418215418   -2.0521704892   -0.9103851638
 C    1.3751565645   -1.9973006155    0.3625576600
 C    0.7708044167   -0.8030528693    1.0792078595
 C    1.4761342046   -0.2338113159    2.2727347410
 O    1.4216037601   -1.2009878055    3.3146462509
 N   -0.7093863854   -0.8351294575    0.9987199185
 H    0.7469812095    1.9586024854   -0.5268624666
 H   -1.0109905491    1.7713117975   -0.5233106778
 H   -0.1411994741    1.9218780250    1.0058397666
 H   -0.6447636971   -0.8840358788   -1.8449449253
 H    1.0105950740   -0.2159276971   -1.8796780557
 H    1.1867655926   -2.9461042840    0.8718121719
 H    2.4653160302   -1.8573276898    0.2650658209
 H    2.5194284617   -0.0018356405    2.0034691760
 H    0.9984367744    0.7094268758    2.5811180658
 H    1.9473752544   -0.8776861786    4.0525259318
 H   -1.0862132409   -0.2330775479    1.7300198884