19

 C   -0.1811959081    1.5155874994    0.2032019842
 N   -0.0116175307    0.0806816099    0.1350176686
 C   -1.2170577210   -0.7700633208    0.2956725240
 C   -0.4430137968   -1.6968131165    1.2544520561
 N    0.4915286424   -2.6279449212    0.5841693209
 C    1.6518012431   -1.7148992913    0.7919860186
 C    0.6885077204   -0.5923168476    1.2369165125
 C   -1.0873074310   -2.1449843253    2.5243770914
 O   -2.1067160511   -1.6883348598    2.9802516018
 H    0.7958621687    2.0081015128    0.1580080384
 H   -0.7643768516    1.8547243347   -0.6591571982
 H   -0.6995330638    1.8579257568    1.1186793660
 H   -2.0377771064   -0.2695103178    0.8282786683
 H   -1.5827343909   -1.2239005335   -0.6297381259
 H    0.5778636877   -3.5302492040    1.0404661422
 H    2.3272501499   -2.0251868807    1.6001662661
 H    2.2307091752   -1.5164307876   -0.1148686975
 H    0.9556781873    0.0295135824    2.0960119940
 H   -0.5266222431   -2.9504258299    3.0577490884