18

 C    0.0172519439    1.5399734457    0.0542864063
 C   -0.0226583757    0.0392222565    0.0591386308
 C   -1.2943619168   -0.8155917179   -0.0516618102
 C   -0.6900438749   -1.8009072465    1.0137188955
 O   -0.6488966391   -3.1775100836    0.7801445597
 C    0.6018544274   -0.9671235421    1.0267066767
 C    1.1754007448   -0.7920255473   -0.3700825476
 C    1.0940118878   -1.8183577782   -1.3755275759
 N    0.9881281592   -2.6543771242   -2.1704378722
 H    1.0101791080    1.9165099600    0.3200820288
 H   -0.2381418164    1.9375614868   -0.9344377943
 H   -0.7014623616    1.9492237404    0.7724824355
 H   -2.1919378853   -0.3055380465    0.3043785465
 H   -1.4974492309   -1.2432332827   -1.0375450073
 H   -1.2077766512   -1.6785826801    1.9685288080
 H   -0.2575785434   -3.3408455012   -0.0864600707
 H    1.2450866659   -0.7980325323    1.8832069504
 H    2.1120256383   -0.2428959869   -0.3892872801