18

 N   -0.2509233739    1.3342397963    0.2100947217
 C   -0.0949422982    0.0714817451    0.2576456872
 O   -1.0797263533   -0.6364391928    0.8705428244
 C   -1.1494072460   -2.0372406947    0.6742098234
 C   -1.6731047054   -2.5860919452   -0.6771481129
 C   -0.6034825504   -3.7083940208   -0.5767164799
 C    0.1603238370   -2.8459964558    0.4854029107
 C    1.2293540378   -1.9898453391   -0.1045712781
 C    1.0822621136   -0.6684260468   -0.2318732782
 H    0.5648222219    1.7645018029   -0.2232460948
 H   -1.7413676541   -2.4097871802    1.5125263267
 H   -2.7230545612   -2.8797756493   -0.7235793181
 H   -1.4621939341   -1.8926661698   -1.4941796580
 H   -0.9973799048   -4.6274956432   -0.1366208775
 H   -0.0570631881   -3.9601801222   -1.4878231641
 H    0.5374500841   -3.3927744620    1.3559831368
 H    2.1378887584   -2.4780916606   -0.4507506068
 H    1.8587155966   -0.0586644416   -0.6829286526