19

 C   -0.1419301638    1.5459854613    0.2515037558
 C    0.0776042001    0.0623143138    0.0113786897
 O    0.7482821252   -0.4797373228    1.1323920563
 C    1.0107618455   -1.8581636679    1.0089866806
 C    1.7239662783   -2.3071319801    2.2551951494
 O    0.9299144264   -2.7569199879    3.3489658976
 C    1.7531479267   -3.7237842373    2.6769360645
 C    1.0954588606   -4.7681426930    1.9358025718
 C    0.5805629717   -5.6671008661    1.3260207863
 H    0.8146887790    2.0583051902    0.3877053115
 H   -0.6601702611    1.9971163902   -0.5998803361
 H   -0.7455618550    1.7029198254    1.1497217670
 H   -0.8855200567   -0.4534110615   -0.1396833211
 H    0.6752775211   -0.0996450196   -0.9022755328
 H    0.0842686144   -2.4378404939    0.8861329990
 H    1.6496026076   -2.0571844531    0.1298534616
 H    2.5701401260   -1.6808670572    2.5407984551
 H    2.6126432679   -4.0538767212    3.2601300459
 H    0.1165729260   -6.4577971492    0.7896007577