17

 C   -0.1290593684    1.4597355551    0.0413480499
 C    0.1127363350   -0.0374328689    0.0357426921
 C    0.7362409313   -0.6182023581   -1.2387860434
 C    1.4113238911   -1.9092508446   -0.7374457671
 C    1.6058947689   -1.6345011309    0.7889237893
 O    1.0791642096   -0.3464308062    1.0522017064
 C    0.9335546576   -2.6569982521    1.6180280305
 N    0.4073935406   -3.4597944921    2.2617557136
 H    0.8007647492    1.9981484529   -0.1657001430
 H   -0.8662488524    1.7266347573   -0.7218235078
 H   -0.5081308787    1.7851486153    1.0135787296
 H   -0.8265117506   -0.5681416429    0.2620441201
 H   -0.0008586705   -0.8072006127   -2.0225536588
 H    1.4797880525    0.0833326806   -1.6306935774
 H    0.7732614625   -2.7816804666   -0.8905926347
 H    2.3670533418   -2.1064420798   -1.2254673846
 H    2.6628845005   -1.6207153364    1.0731464252