18

 C    0.0041566926    1.5304084207    0.0480313730
 C    0.0179279098    0.0207236086   -0.0973482227
 C   -1.2010922836   -0.6614567224    0.4926917744
 C    0.6750233288   -0.6933616097   -1.2107066550
 C    1.9437178308   -0.0437853784   -1.7426753234
 O    1.8033892873    1.1201339387   -2.5151545196
 C    2.3810849671    0.0311789569   -0.2595578655
 O    3.3104988424    0.4872675264    0.3324611432
 N    1.2733919019   -0.7636447600    0.2210071425
 H    0.8149316343    2.0179770321   -0.4922732085
 H   -0.9394713794    1.9224685250   -0.3451491260
 H    0.0662654629    1.8025525003    1.1068811402
 H   -2.1044581637   -0.3464840071   -0.0404807149
 H   -1.1140580548   -1.7483369413    0.4302966850
 H   -1.3148712676   -0.3895903564    1.5463963268
 H    0.2385660180   -1.5864395654   -1.6436862663
 H    2.5606172855   -0.8019356663   -2.2498557277
 H    2.6849830276    1.4727945284   -2.6809557754