20

 C   -0.1489796870    1.6198985605   -0.1235716126
 C   -0.0306547337    0.0931445613   -0.0117705552
 C   -1.3959621250   -0.5833205745    0.0184833094
 O    0.6552860371   -0.4987916218   -1.0797335785
 C    1.9484034580   -0.0079787972   -1.3994946102
 C    3.0087524382   -0.4766649090   -0.4105437460
 N    2.9189697877    0.0207759897    0.9515784870
 C    1.8423692994    0.0728571325    1.6055016294
 O    0.5533441578   -0.2194007790    1.2769916856
 H    0.8087913664    2.1212251993    0.0287280634
 H   -0.5380492770    1.8930918077   -1.1079819673
 H   -0.8398215423    1.9822308710    0.6408652590
 H   -1.9517721394   -0.3380972001   -0.8893293784
 H   -1.2600475244   -1.6654265868    0.0683766236
 H   -1.9629044794   -0.2526498208    0.8906988308
 H    2.1759974159   -0.4147327122   -2.3901607769
 H    1.9535168544    1.0859047376   -1.4816336608
 H    2.9825564985   -1.5752818382   -0.3758688671
 H    3.9921206067   -0.1969036680   -0.8076375042
 H    1.8851783481    0.3418838382    2.6620216191