23

 C    0.8245385922    1.4672432304    0.1244861229
 C    0.0359736168    0.1654132819    0.0224475987
 C    0.5382001294   -0.8508558221   -1.0488851222
 C    1.1574912226   -1.7448138174    0.0706868329
 C    2.6622660025   -1.6692526361    0.1907505404
 C    3.3935518409   -2.5831503355    1.1503728887
 C    3.5240640142   -2.7917157621   -0.3358678098
 C    0.3558266221   -0.9041557364    1.1197968448
 O    0.9819356653   -0.5149187100    2.3173659787
 H    1.9068805465    1.2993215314    0.1525349718
 H    0.6201168984    2.1108008311   -0.7377561721
 H    0.5548310508    2.0145888582    1.0327983024
 H   -1.0298371560    0.4040419662   -0.0496097235
 H   -0.2717137362   -1.3435590972   -1.5920164808
 H    1.2504441622   -0.4578138814   -1.7804488614
 H    0.8646546442   -2.7995199175    0.0377944828
 H    3.0877265155   -0.6753390193    0.0698106405
 H    4.2489552644   -2.1945406630    1.6923658074
 H    2.7980729460   -3.2929576684    1.7142394107
 H    3.0202439113   -3.6457625775   -0.7762895663
 H    4.4659193233   -2.5387683438   -0.8097274093
 H   -0.5583122695   -1.4266779940    1.4187057814
 H    1.9192878330   -0.3931966576    2.1362672911