16

 C   -0.0471915426    1.3857438249    0.0085359701
 N   -0.0165972452   -0.0566938528    0.0099017791
 C   -1.2081591348   -0.8761884960    0.0579412650
 C   -0.6253843298   -2.2820512921   -0.0172056662
 C    0.2278641032   -2.6350763626   -1.1736919145
 N    0.8426700387   -2.1864004087    0.0995912234
 C    1.1559379385   -0.7753709462    0.0518328195
 O    2.2731325643   -0.3217284885    0.0526223430
 H    0.9864551336    1.7353953341   -0.0035243808
 H   -0.5701422607    1.7718664563   -0.8752055502
 H   -0.5490122191    1.7756836908    0.9035876131
 H   -1.7602632615   -0.7311400865    0.9978946512
 H   -1.8952102729   -0.6451310545   -0.7677765348
 H   -1.1005168379   -3.0639955850    0.5650123869
 H    0.4077225444   -3.6773623348   -1.4164779899
 H    0.2666996919   -1.9503414086   -2.0174142348