20

 C   -0.0804283630    1.5909476320    0.0763954214
 C    0.0861846378    0.0841707161    0.0966456154
 C    1.3499690874   -0.6813559967   -0.2215533273
 C    2.6005636802   -0.0450913373    0.3638987810
 O    3.0059013298    1.1613325428   -0.2546990853
 C    1.9287981236   -0.0063065069    1.7794528960
 C    0.7128065825   -0.7385463592    1.1882840334
 C    0.0134383218   -1.8775689868    1.8745173660
 H    0.8212701651    2.1112585971    0.3984995645
 H   -0.3007414126    1.9329409461   -0.9407524693
 H   -0.9146127268    1.8986042211    0.7180819048
 H   -0.7767677475   -0.4341876422   -0.3221523364
 H    1.3639185852   -1.4416286486   -0.9950258194
 H    3.4275772856   -0.7682084421    0.3643192861
 H    3.8208008014    1.4536604686    0.1662347938
 H    2.4731619716   -0.6001453464    2.5189357004
 H    1.7421053690    0.9884035309    2.1953206539
 H   -0.5766977226   -1.5250199574    2.7298101317
 H   -0.6719192874   -2.3915972448    1.1923918831
 H    0.7281988989   -2.6181569264    2.2528976063