14

 O   -0.0915278595   -0.0985614858    0.1924037446
 C   -0.0349242125    1.1042999210    0.0854355821
 C    1.1930680008    1.8592935517    0.0498026726
 C    2.2050421990    2.5182512201    0.0129429854
 C    3.4381842562    3.2848457404   -0.0167385525
 C    4.1567299720    3.4033755705   -1.4089660856
 C    3.9222342347    4.9280104628   -1.2681203809
 O    4.1729608665    5.9027490430   -1.9174727107
 N    3.2943564057    4.7461596759   -0.0559783074
 H   -0.9499978111    1.7249253833    0.0051124984
 H    4.1053960096    2.9397181262    0.7813925396
 H    5.2024437710    3.0947562597   -1.4129974040
 H    3.6226181814    2.9409810012   -2.2389598691
 H    2.8506352662    5.3894613600    0.5831615975