19

 C   -0.1421405686    1.3189928716   -0.2419807901
 O   -0.0563668104   -0.0974881971   -0.3280323680
 C    0.8832505462   -0.5876694470   -1.2624351773
 C    0.7280653261   -2.1371540433   -1.2537995946
 C    0.1988264445   -2.4686180188   -2.6628430302
 C   -0.3362026419   -1.1154877179   -3.1382752742
 O    0.5696098401   -0.1632067134   -2.5792477909
 C    2.2449850421   -0.1210816462   -0.9553222786
 C    3.3573673389    0.2324902437   -0.6716600389
 H    0.7936828785    1.7531417024    0.1311228667
 H   -0.3783738826    1.7625908566   -1.2150662228
 H   -0.9470504976    1.5336979654    0.4638174449
 H    1.6751364472   -2.6288964291   -1.0320151273
 H    0.0126970275   -2.3923466698   -0.4702871631
 H    1.0137932554   -2.7960525358   -3.3145799183
 H   -0.5659186226   -3.2489224336   -2.6564407790
 H   -0.3241999053   -0.9813677247   -4.2221273402
 H   -1.3563901461   -0.9380546179   -2.7702050152
 H    4.3423673586    0.5481295150   -0.4296807231