20

 C    0.2039831105    1.2075731059   -0.9806322377
 C   -0.0480361311    0.0551725714   -0.0331375939
 C    1.0372562291   -0.9008823984    0.3007650940
 N    0.5973232305    0.0926077522    1.3040102384
 C   -1.4816302276   -0.4439895966   -0.0126887830
 O   -1.6411247684   -1.7400013092    0.5980405217
 C   -2.5355868683   -1.2303369624    1.6116758644
 C   -2.4440057834    0.2035977022    1.0404014038
 O   -1.9312112042    1.2056530518    1.8661616309
 H    1.2560483183    1.5101829740   -0.9611299289
 H   -0.0477115709    0.9361027870   -2.0114350541
 H   -0.4062607895    2.0734231022   -0.7006163986
 H    0.7768611743   -1.9250594399    0.5405840844
 H    2.0080567647   -0.7538814091   -0.1645039705
 H    1.2625560301    0.8620101781    1.3318719630
 H   -1.8709123929   -0.4494844867   -1.0403919530
 H   -3.5190469460   -1.7135562149    1.5681448517
 H   -2.1189588306   -1.3347192403    2.6206399738
 H   -3.3774303281    0.5838104196    0.6195887936
 H   -1.0608183566    0.8885563330    2.1576981999