16

 C   -0.0644310410    1.4123970195   -0.0192731533
 N    0.1774791160   -0.0176699375   -0.0593643076
 C    0.7007035673   -0.6075577013    0.9443926789
 C    0.9426147862   -2.0403017846    0.9029324499
 N    1.4666774553   -2.6960409091    1.8814426738
 N    1.7831699912   -1.9500312842    2.9705519736
 C    2.3766377261   -2.6512716811    4.0958449043
 N    1.5977356659   -0.6276902346    3.0980935562
 N    1.0852176543    0.0419913928    2.1534753056
 H    0.4660900045    1.8802848927   -0.8575992804
 H   -1.1325750220    1.5912351133   -0.1931100981
 H    0.2341597194    1.9026355472    0.9121919773
 H    0.6747859371   -2.6003985403    0.0120902413
 H    3.3124585759   -3.1267066251    3.7900009780
 H    2.5671874451   -1.9155327810    4.8754848884
 H    1.6907081086   -3.4195114769    4.4627874422