22

 C   -0.1361958386    1.5319591534    0.0252006432
 C    0.0164664997    0.0059720837    0.0282089732
 C    0.7164694109   -0.4965800301   -1.2406338213
 C    0.7728389246   -0.4749518879    1.2651532831
 O    0.0315911548   -0.1112405789    2.4225652764
 C    0.6104669108   -0.5270056907    3.6431105462
 C    1.6650525424    0.4587673277    4.1672875416
 C   -0.4856920093   -0.6782269753    4.6181164335
 N   -1.3204600718   -0.8000415998    5.4066436796
 H    0.8431788877    2.0214672161   -0.0448878886
 H   -0.7336594200    1.8617479814   -0.8303988542
 H   -0.6233152590    1.8776391929    0.9396505351
 H   -0.9845734247   -0.4419556022    0.0773539503
 H    1.7321346238   -0.0906784498   -1.3189690926
 H    0.7894099049   -1.5892056038   -1.2584888689
 H    0.1679727252   -0.1837003216   -2.1340500261
 H    0.8999396812   -1.5694001224    1.2364922157
 H    1.7788838781   -0.0249208132    1.2864354292
 H    1.0694825947   -1.5217350639    3.5225244855
 H    2.0650886832    0.1188965646    5.1264243005
 H    2.4909485359    0.5346246990    3.4559104937
 H    1.2183576655    1.4467183206    4.2993346949