14

 O   -1.0085402001    0.3288994241   -0.0369969626
 C    0.1663184139   -0.4112571735   -0.1786637248
 C    1.1689607708    0.3505058299   -1.0495663567
 O    0.8848871158    1.4176973562   -1.5312880244
 C    0.7774829745   -0.6902936574    1.1605793804
 C    0.5871939134   -0.1997091505    2.4084961570
 N    1.4594500202   -0.8379510318    3.2852937611
 C    2.1187023788   -1.6577264184    2.5387134223
 O    1.7674805474   -1.6360415757    1.2270833454
 H   -0.8695583899    1.1358171118   -0.5601348042
 H   -0.0228345625   -1.3742577631   -0.6881939067
 H    2.1550096378   -0.1287516112   -1.1986635420
 H   -0.1172411067    0.5460222833    2.7356379721
 H    2.8986520467   -2.3482870435    2.8178902331