18

 O    0.0726458628    1.4350603750   -0.0253822054
 C    0.0765147381    0.0608557983    0.3533023097
 C   -1.3165139392   -0.5376584670    0.1229113653
 C   -2.3596145365    0.0422741042    1.0958803590
 O   -2.6641326224    1.3844000659    0.7710206428
 N   -1.7125744375   -0.3947148695   -1.3160923564
 C   -1.9556382366   -1.8583301410   -1.4725382249
 C   -1.3915922297   -2.0644414985   -0.0582311746
 O   -1.1056406595   -3.0063003226    0.6183811918
 H   -0.1720739909    1.4339910124   -0.9618775039
 H    0.8302680224   -0.4963436252   -0.2188387749
 H    0.3515104852    0.0201108763    1.4111162408
 H   -3.3005297004   -0.5153186544    1.0239498444
 H   -1.9914800974   -0.0655015011    2.1277643132
 H   -1.8155103464    1.8461854318    0.6938085543
 H   -2.5506783362    0.1710018258   -1.4065020687
 H   -3.0070199232   -2.1585947864   -1.5640977728
 H   -1.3882463226   -2.3281424140   -2.2829446398