19

 C   -0.0678380257    1.5225837266    0.0914572767
 C    1.4893091581    1.4411254307    0.0214763776
 C    1.3338872574    0.1230927312    0.8460662071
 C   -0.0030780948   -0.0266885526    0.0551304598
 C    0.3746890656   -0.4540948282   -1.4106750859
 O   -0.0989214252    0.4869440718   -2.3814323559
 C    0.9589109303    1.4537164021   -2.5211859475
 C    1.9427094608    1.0206321487   -1.4196298326
 O    1.7786953324   -0.4040342023   -1.5415709449
 H   -0.3941971118    1.8873022637    1.0688934670
 H   -0.6290031305    2.0315658360   -0.6898691017
 H    2.0862689872    2.2673702449    0.4131526524
 H    2.0936217822   -0.6507156581    0.7508504285
 H    1.1423205332    0.3440726674    1.8982275107
 H   -0.8252654434   -0.6179664533    0.4623578483
 H    0.0180468189   -1.4494742163   -1.6809772404
 H    1.4125386200    1.3603807256   -3.5143726004
 H    0.5623183890    2.4656989884   -2.3967552266
 H    2.9859394763    1.2653780637   -1.6212942723