16

 C   -0.0547110077    1.5420033886    0.0067291454
 C    0.0411884764    0.0477206214    0.0438852981
 C   -0.8516180127   -0.8576336586    0.8487030391
 C    0.6431832468   -0.9190279668    1.0569350244
 C    1.2625633171   -1.6798228330   -0.1243261694
 N    0.6903066361   -0.6729852380   -1.0674555392
 C    2.7271507016   -1.7037759447   -0.1525959776
 N    3.8820964583   -1.7366887702   -0.1469006930
 H    0.9107716644    1.9853704898   -0.2529511063
 H   -0.7885916503    1.8672362647   -0.7403142641
 H   -0.3738437675    1.9347702406    0.9767165371
 H   -1.3986539232   -0.3813174049    1.6567642639
 H   -1.3766159326   -1.6881639920    0.3799506733
 H    1.1304839406   -0.7291519125    2.0033100387
 H    0.8979940023   -2.7070700927   -0.2512445865
 H    0.0490535203   -1.0702160619   -1.7505784140