14

 O    0.0086980830    0.0192955008    0.2658128783
 C   -0.0118378648    1.1878126850    0.0002597742
 O   -1.2013572634    1.8211281321   -0.2154180834
 C   -1.1462945871    3.0805134142   -0.8938154786
 O   -0.3056999399    3.9893713806   -0.2577905969
 C    1.0263090429    3.5417103607   -0.2499351893
 C    1.5210854118    3.0138940376    1.0545223304
 C    1.2070716167    2.0520172454   -0.0915299547
 H   -0.8351011438    2.9048369179   -1.9336726249
 H   -2.1584682155    3.4837704916   -0.8588523572
 H    1.6866437479    4.1018072477   -0.9064636419
 H    2.5664821915    3.1378456502    1.3109786439
 H    0.8279209541    3.0530958255    1.8863612347
 H    2.0519833569    1.5603027607   -0.5570821147