19

 C    0.0145869914   -1.1902562651   -0.0310087125
 C    0.0293899853    0.0127765752   -0.0219688562
 C    0.0478134453    1.4534255475   -0.0008214143
 C   -0.3005861675    2.2875575915    1.2976472093
 C    0.4650205864    3.4069361287    0.5129392332
 C    1.3846635737    2.2622290561    0.0170767446
 C   -0.5177012166    3.6445946368   -0.6513905104
 C   -0.1961893221    3.1386242707   -2.0373170946
 C   -0.8302822140    2.2101863742   -1.0333452199
 H    0.0043640808   -2.2517551381   -0.0402349248
 H   -1.3610877751    2.4468301441    1.5089520528
 H    0.2244568896    1.9278169814    2.1861766454
 H    0.8740408341    4.2826426226    1.0155768750
 H    2.0431301388    1.9002641230    0.8078574897
 H    1.9527962889    2.3702264644   -0.9064617521
 H   -1.2981707585    4.3856085167   -0.5209433934
 H   -0.8610222560    3.4862260289   -2.8224791825
 H    0.8242828356    3.0051298690   -2.3750831823
 H   -1.8386852203    1.8464646823   -1.1896898470