21

 C    0.0645392189    1.5190377281   -0.0912591432
 C    0.0007095943    0.0247981988   -0.0567137981
 C   -1.0782674051   -0.7553224143    0.1051603217
 C   -2.5134592459   -0.3612500766    0.2692878483
 C   -0.6847131364   -2.1970396199    0.0996837652
 C   -1.3776605704   -3.2382437593    0.8780369900
 O   -1.5693410397   -3.1401943260   -0.5346236463
 C    0.7980478453   -2.2528385754   -0.2681508757
 C    1.2762933793   -0.7852795709   -0.1790089550
 H    0.6892402239    1.9029190530    0.7260865455
 H    0.5277577284    1.8688140032   -1.0229461301
 H   -0.9196372059    1.9853430601   -0.0057127685
 H   -2.6928708918    0.6766616777   -0.0197255708
 H   -3.1495494259   -1.0072258362   -0.3449847769
 H   -2.8481798904   -0.4764751442    1.3085008335
 H   -0.8176198099   -4.1105180875    1.2161344965
 H   -2.2463365264   -2.9881088657    1.4866577127
 H    1.3663899408   -2.9263388481    0.3779951039
 H    0.8824230929   -2.6330882573   -1.2904474524
 H    1.8688728411   -0.4805391659   -1.0507591664
 H    1.9217837130   -0.6195011337    0.6946978562