20

 C   -0.0175751026    1.4964187699    0.1003980409
 C   -0.0184254417   -0.0286554150   -0.0568984357
 N   -1.3409934672   -0.6181282979   -0.0429761443
 C   -2.0419437346   -0.9732689819    1.0888096244
 C   -3.3188975589   -1.3311404707    0.7140286577
 N   -4.3755643707   -1.8624917769    1.4917312161
 C   -3.4031331158   -1.1771857530   -0.7012606707
 N   -4.5874641619   -1.4228272571   -1.4311228342
 C   -2.1757524342   -0.7266622553   -1.1363907630
 H    1.0068891632    1.8827725425    0.0783469535
 H   -0.5819726356    1.9694726966   -0.7083881886
 H   -0.4761048659    1.7887622532    1.0495137651
 H    0.4669021490   -0.3090725903   -0.9984881758
 H    0.5642077129   -0.4902239514    0.7478613241
 H   -1.5723451045   -0.9549980757    2.0599954431
 H   -5.2307351792   -1.3328638228    1.3499338834
 H   -4.1594358660   -1.8466410344    2.4811794432
 H   -5.0116261493   -2.2969504553   -1.1348882428
 H   -4.4161198272   -1.4753627778   -2.4278873080
 H   -1.8241808198   -0.4840586268   -2.1269955586