25

 C    0.0157900178    1.5157407799    0.2212844530
 C    0.1244127109   -0.0090626728    0.1136761614
 C    0.6557470590   -0.5220274755   -1.2418477915
 C    2.1704136566   -0.2611033754   -1.3818150051
 C    2.7056498946   -0.3466560387   -2.8150758764
 C    0.3361274633   -2.0179709491   -1.4358212408
 C   -1.1429159052   -2.3048902925   -1.7735013118
 C   -1.4177572090   -3.7266434080   -1.9428263560
 C   -1.6158635392   -4.9048282885   -2.0770247492
 H    0.9829190494    2.0102231376    0.0868834740
 H   -0.6669154840    1.9150038170   -0.5372225932
 H   -0.3686714615    1.8125890943    1.2021357822
 H    0.7747280216   -0.3923633773    0.9121466664
 H   -0.8659737055   -0.4383789840    0.3055829268
 H    0.1441933488    0.0400699148   -2.0393852592
 H    2.4028388636    0.7338275737   -0.9856167188
 H    2.7096089730   -0.9724736081   -0.7409609688
 H    2.2144683164    0.3889196702   -3.4620280998
 H    3.7813299847   -0.1461395427   -2.8432831578
 H    2.5473504099   -1.3342576539   -3.2597434007
 H    0.9477987839   -2.4341014959   -2.2423546510
 H    0.6106674147   -2.5704861864   -0.5285088637
 H   -1.7983805083   -1.9043705844   -0.9904226261
 H   -1.4120215687   -1.7702233839   -2.6942701486
 H   -1.8034837268   -5.9426405706   -2.1979940953