17

 C    0.1187322255    1.5789939129    0.1407593871
 C   -0.0867853124    0.0626640501   -0.0462782757
 O   -1.4587334961   -0.2467340663   -0.0882943420
 C    0.6781091553   -0.4684537572   -1.2721251031
 C    2.0782823730   -0.8329666191   -0.7677427479
 O    3.0523967072   -0.9966986605   -1.4512858725
 C    2.0371064180   -0.9620536426    0.7644778714
 C    0.5884976042   -0.6885856517    1.1177227997
 O   -0.0202840235   -1.0503648099    2.0938973409
 H    1.1773809189    1.8604867768    0.1350941002
 H   -0.3808948923    2.1036645819   -0.6782782329
 H   -0.3247856137    1.9070254178    1.0849994880
 H   -1.6947930607   -0.5264695704    0.8091459969
 H    0.1936206346   -1.3898946621   -1.6197180276
 H    0.7271173424    0.2210584846   -2.1176174738
 H    2.3793773000   -1.9387308543    1.1165170770
 H    2.7001842196   -0.2112351999    1.2114729041