23

 C   -0.8944048504    1.2367850157   -0.4225054789
 C   -0.2414214643   -0.1520772755   -0.3267218020
 C    0.3494282144   -0.5598309502   -1.6918609467
 C    0.7945996318   -1.9957334995   -1.7971609714
 C    1.5796808217   -2.6722896993   -0.9610190099
 C    2.2959175645   -2.2114933419    0.2823511868
 C    3.8101435072   -2.0696130697   -0.0224109239
 C    1.7978708712   -0.9921987739    1.0156677717
 C    0.7719652581   -0.1701121860    0.7950446457
 H   -0.1524273022    2.0022321315   -0.6780403572
 H   -1.6739584800    1.2545273488   -1.1906973896
 H   -1.3535130781    1.5234403869    0.5292609579
 H   -1.0349112890   -0.8750475616   -0.0862670018
 H   -0.4062444637   -0.3714122281   -2.4630166955
 H    1.1860814758    0.1149317499   -1.9209845974
 H    0.4247421284   -2.5342899807   -2.6676295296
 H    1.8037059093   -3.7069105561   -1.2197331146
 H    2.2194638052   -3.0377556019    1.0091659538
 H    3.9829010785   -1.2609730345   -0.7386928440
 H    4.3731387328   -1.8466630781    0.8899320214
 H    4.2093148161   -2.9945162984   -0.4502434861
 H    2.3919177233   -0.7872028223    1.9070253989
 H    0.6254784895    0.6167799149    1.5346451923