17

 C   -0.0733912542    1.6000046634   -0.0647730046
 C    0.0866673334    0.0953960800    0.0329053999
 N    1.0945324948   -0.6117678173   -0.8649359206
 C    2.4194661010    0.0066380547   -0.4535751985
 C    2.2742705770   -0.6612199594    0.9009006025
 C    1.3088637171   -1.6163583853    0.2842459586
 C    0.7547590567   -0.5798353130    1.2354360258
 C    0.2625665988   -0.7530565267    2.5596768891
 N   -0.1654368120   -0.8759177945    3.6287101268
 H    0.8111501120    2.1476708398    0.2674757469
 H   -0.2938399792    1.8854866753   -1.0987406296
 H   -0.9129522449    1.9196040959    0.5604151722
 H   -0.8740464987   -0.3919878652   -0.1579477761
 H    3.2132831153   -0.4544328034   -1.0461109758
 H    2.4833092029    1.0936840519   -0.5375304389
 H    2.9933177924   -0.8433942318    1.6895249138
 H    1.2024885477   -2.6900906143    0.2340337786