21

 C   -0.0982603508    1.5269003038   -0.0126582449
 C   -0.0459909305   -0.0066825795   -0.0155440869
 C    0.7351257266   -0.5762557861   -1.1647537062
 O    0.2226916237   -0.1872546259   -2.4850620459
 C    0.7381268752   -1.4290225426   -2.9586955164
 C    2.1127801463   -1.6598597682   -2.3056849508
 C    0.8156480297   -2.0845103864   -1.6277454035
 C    2.2921637632   -0.4751032726   -1.3543466027
 C    2.9140949841    0.8159234278   -1.8672787604
 H    0.8934850166    1.9641581583    0.1344363717
 H   -0.4928209099    1.8983512125   -0.9620744385
 H   -0.7453697772    1.8878422677    0.7920356396
 H    0.3938610055   -0.3782929494    0.9184198139
 H   -1.0653637959   -0.4079371773   -0.0653454920
 H    0.4427099707   -1.7849886732   -3.9366997923
 H    2.8717328440   -2.2915139882   -2.7507803427
 H    0.4611017125   -3.0210334029   -1.2205360943
 H    2.7774369790   -0.8219090639   -0.4349768597
 H    2.3229595801    1.2172472500   -2.6939153777
 H    2.9754572916    1.5771176089   -1.0825217985
 H    3.9326914756    0.6343827571   -2.2283607618