18

 C    0.0251896889    1.5076439059    0.0939953933
 C   -0.0064444917    0.0096949455   -0.0313645017
 C    0.0262227923   -0.6267853119   -1.2349105862
 C   -0.0289409345   -2.0724873550   -1.3600282172
 O   -0.1844370433   -2.6605009276   -2.4197058328
 C    0.0915433611   -2.8478795273   -0.0733063259
 C    1.3569151932   -2.7170865461    0.7588651901
 C    0.0768530185   -2.0847370764    1.2342698395
 N   -0.1099442324   -0.6660427047    1.1530518747
 H    0.9301472386    1.8373554413    0.6188915965
 H    0.0093935150    1.9794102765   -0.8886836454
 H   -0.8363145281    1.8675755025    0.6681206938
 H    0.0272162344   -0.0476556781   -2.1494230801
 H   -0.3796408314   -3.8231935932   -0.1098693469
 H    1.7094248688   -3.6021941819    1.2755052359
 H    2.1350534758   -2.0628713862    0.3814314429
 H   -0.4316999003   -2.5297688571    2.0831547406
 H    0.0679525250   -0.1422820462    1.9957788189