15

 C   -0.0520365521    1.4098917423    0.0800070701
 N   -0.0738587270   -0.0347308109    0.0064597841
 C   -0.0099713557   -0.8191244165   -1.0949801060
 C   -0.0739216026   -2.1317099181   -0.6723129251
 C   -0.1799638835   -2.0155336046    0.7243461373
 O   -0.3020968010   -3.0657907970    1.5891277904
 C    0.2937011889   -2.9649062005    2.8163618532
 O    0.1409671894   -3.8017336563    3.6493126744
 N   -0.1892743086   -0.7568563742    1.1433759788
 H    0.7979236068    1.7463724206    0.6796864564
 H    0.0387171806    1.8105820246   -0.9307693835
 H   -0.9743095290    1.7805840103    0.5350640761
 H    0.0741932732   -0.3926657169   -2.0822460269
 H   -0.0464742371   -3.0292478043   -1.2655982880
 H    0.9048429879   -2.0546694484    2.9098054487