21

 C    0.0481146354    1.5633121314    0.0492887324
 C    0.0093281026    0.0291088665    0.0048232266
 C    0.4546343168   -0.4617987531   -1.3284958637
 N    0.8447613378   -0.8791478229   -2.3342530822
 N    0.7731404886   -0.5466754991    1.0947795694
 C    2.2515820213   -0.4545687233    1.1115120571
 C    2.2892765615   -1.8541241560    1.7684081613
 C    0.8285850720   -2.0211219753    1.2750644326
 C   -0.2171914334   -2.6076460169    2.2060735396
 H    1.0705869282    1.9283787067   -0.0797680675
 H   -0.5690574314    1.9910789271   -0.7445197767
 H   -0.3239819361    1.8989430157    1.0197115776
 H   -1.0305012310   -0.2993426398    0.1265767753
 H    2.6986319456   -0.4582966800    0.1064370127
 H    2.6493168018    0.3927399893    1.6779204978
 H    3.0255602917   -2.5614063314    1.3872726009
 H    2.3546881629   -1.8071452376    2.8578444460
 H    0.8146993845   -2.5464462378    0.3064595432
 H   -0.2037631740   -2.0939727770    3.1720694816
 H   -1.2242817553   -2.5147685869    1.7842674991
 H   -0.0274044794   -3.6735724695    2.3721467967