20

 O    0.0823144827    1.2873165377    0.4424238828
 C    0.0621660068   -0.1021677526    0.1591068388
 C   -1.3647024245   -0.6260738137   -0.0314340194
 C   -1.4664334410   -2.1551994204   -0.1952994883
 C   -2.9436586164   -2.5133539811   -0.3085510774
 O   -3.6631602986   -2.7209860449    0.6327309195
 N   -0.7928102169   -2.6065870923   -1.4105212206
 C    0.5845587229   -3.0741578118   -1.2784808820
 C   -0.5203806625   -4.0431835461   -1.4991234250
 H   -0.2301807244    1.7529744666   -0.3399083287
 H    0.6786522679   -0.3387319181   -0.7190217341
 H    0.5249410039   -0.5865804527    1.0265647441
 H   -1.9607936171   -0.3309738425    0.8384290241
 H   -1.8096609807   -0.1488308791   -0.9149514332
 H   -1.0781498670   -2.6435446671    0.7158881912
 H   -3.3184294479   -2.5396657970   -1.3566002169
 H    1.2528234754   -2.8047149704   -2.0913058339
 H    1.0397771844   -3.0562141126   -0.2898929068
 H   -0.8061292436   -4.6712590294   -0.6568919830
 H   -0.6755949435   -4.4909393124   -2.4758852411