22

 C   -0.1791285709    1.5295785464    0.1019054005
 C    0.0587417557    0.0100662417    0.0367507481
 C    0.7579953423   -0.4355775629   -1.2234564842
 C    2.0276442302   -0.8570743349   -1.2258589663
 C    2.7116516239   -1.2986982920   -2.4655462801
 N    2.0193594978   -2.3339066968   -3.2926652354
 C    2.0995209740   -0.9489439701   -3.7765051683
 C    0.8181965380   -0.1441310742   -3.7597650878
 C   -0.0397777267   -0.4292877307   -2.5112161155
 H    0.7715276649    2.0715612261    0.0813398473
 H   -0.7817723390    1.8825121146   -0.7412002057
 H   -0.7069302537    1.8017105804    1.0214648320
 H    0.6472588507   -0.2989174921    0.9077814467
 H   -0.9097853419   -0.5034945532    0.1165375429
 H    2.5960952523   -0.8882603389   -0.2994475586
 H    3.7951325193   -1.3660213922   -2.4162221262
 H    2.7151719700   -2.9045645653   -3.7669683630
 H    2.7752136662   -0.7383869828   -4.6035935438
 H    1.0904852811    0.9192061120   -3.7830312921
 H    0.2304677972   -0.3407360961   -4.6639425370
 H   -0.5180973914   -1.4093772312   -2.6263358687
 H   -0.8521556000    0.3035831120   -2.4554765749