21

 C   -0.5703543474    1.4433878520   -0.0147902848
 C    0.0802849451    0.0605475695   -0.0456482100
 C    1.1143344661   -0.1454237225   -1.1616902551
 O    1.8434056006   -1.3098892249   -0.7961394891
 C    1.9043599033   -1.3900618605    0.6284819629
 C    3.2651731239   -0.9367560091    1.2101958004
 O    2.9743515195   -0.0088630557    2.2451414266
 C    1.8194472006    0.7028154321    1.8291496908
 C    0.8934860032   -0.3567531641    1.1973418275
 H    0.1696736692    2.2416692533    0.1001307918
 H   -1.1178699837    1.6344749551   -0.9437066761
 H   -1.2846039392    1.5270095767    0.8104384284
 H   -0.7057914519   -0.6913073021   -0.1878445674
 H    0.6685995189   -0.3209175535   -2.1454001796
 H    1.7786563093    0.7315722240   -1.2436007457
 H    1.6712085225   -2.4227442616    0.9023899840
 H    3.8517092266   -1.7490610454    1.6465820475
 H    3.8520290060   -0.4723688412    0.4018373017
 H    1.3933540625    1.1957984911    2.7061879923
 H    2.0922131697    1.4810542777    1.0972431490
 H    0.2605397851   -0.7969285609    1.9708899551