23

 C    0.0023862467    1.6559060851    0.2538096997
 C    0.0023485844    0.1440540720    0.1030714219
 C   -1.3039276957   -0.4320135970   -0.4355002648
 C   -1.6569259782    0.0163836909   -1.8516153577
 O   -2.8442980725   -0.6676241266   -2.2289408059
 C    1.2225081312   -0.6416222772   -0.3231577356
 C    2.5283699548   -0.0455972456    0.2194481411
 C    1.9698199255   -0.1844010304    1.6733303394
 C    0.6709442026   -0.7700385407    1.1054450220
 H    0.9044187248    2.0297343186    0.7420782166
 H   -0.0698300437    2.1582183946   -0.7171177318
 H   -0.8543155397    1.9798340257    0.8566584867
 H   -1.2520539334   -1.5269927652   -0.4398907984
 H   -2.1340389538   -0.1613701843    0.2293749965
 H   -1.8055046518    1.1064906964   -1.8835152919
 H   -0.8251409178   -0.2201226568   -2.5345355871
 H   -3.0962131580   -0.3687501234   -3.1073303427
 H    1.1650280430   -1.3574597573   -1.1360975626
 H    3.3888146017   -0.6962149509    0.0485891845
 H    2.7871431405    0.9607284941   -0.1253000005
 H    2.5330607599   -0.9171644370    2.2554803649
 H    1.8813649844    0.7289055013    2.2705800767
 H    0.1230952851   -1.5943646963    1.5489140090