20

 C   -0.2179847345    1.4637610966   -0.2527458045
 N    0.0070047576    0.0333747839   -0.0779304078
 C    1.3911209233   -0.4864301706   -0.1894232914
 C    2.5090224561    0.3801329299   -0.4339077633
 C    3.4525824457    1.0963306431   -0.6489182095
 C    0.6607927855   -0.4176353064    1.1233789652
 C    1.1197285955    0.3759556599    2.3566926213
 C    0.9988227472   -0.9445001564    3.1759072161
 C    0.2185139262   -1.5966563377    1.9956288309
 H    0.5905208220    2.0982983202    0.1338928767
 H   -0.3405932879    1.6765913087   -1.3186876449
 H   -1.1489301455    1.7303910889    0.2572536863
 H    1.4445861195   -1.4487454998   -0.6956235300
 H    4.2863624462    1.7243310287   -0.8439062494
 H    2.1032009658    0.8480126212    2.3033806342
 H    0.3856036721    1.1284843900    2.6620049740
 H    1.9699978351   -1.4152607744    3.3441892821
 H    0.4734990985   -0.8789487694    4.1303109733
 H   -0.8648297423   -1.5962763379    2.1497951866
 H    0.5266362540   -2.5957472285    1.6778556839