23

 C    1.1826146717   -0.3056703964    1.2122948202
 C    0.1375427083    0.0016096289    0.1333404244
 C    0.6350169811   -0.3015528205   -1.2671492274
 O    1.7982566237    0.3908260882   -1.6546001216
 C    1.6244021802    1.7826008682   -1.8433185946
 C    0.5909640504   -1.6952478856   -1.8544085507
 C    0.0454406600   -2.8998125294   -1.1194613691
 C   -0.3317635244   -0.6051329544   -2.3848574130
 O   -1.6950300436   -0.6241803483   -2.0665037171
 H    1.4157896706   -1.3746532506    1.2460431756
 H    2.1163949709    0.2275660269    1.0129845441
 H    0.8227009239   -0.0085590957    2.2021104758
 H   -0.7840631184   -0.5560945444    0.3129649890
 H   -0.1493562995    1.0593510579    0.1876680902
 H    2.5511611233    2.1588933850   -2.2837243639
 H    0.7901767739    1.9997526607   -2.5252499700
 H    1.4468189605    2.3148492448   -0.8987757922
 H    1.4404106700   -1.9010933732   -2.5000987765
 H   -0.8761498062   -2.6668382861   -0.5811417675
 H   -0.1810052780   -3.7080589310   -1.8245945900
 H    0.7700825668   -3.2909255991   -0.3981554161
 H   -0.0921793788   -0.1855159696   -3.3618993506
 H   -2.1093623063   -1.3330240463   -2.5701072592