15

 N   -0.3730760887    1.3076436256   -0.4715261582
 C    0.1000558308    0.0952726524    0.0022678101
 O    1.2483643453   -0.1160925827    0.2893398449
 N   -0.9550851216   -0.8333722757    0.1755507611
 C   -0.8211714126   -2.1910556175    0.4434660073
 O    0.2189716141   -2.7993484617    0.4255053168
 C   -2.1491770412   -2.8956337421    0.7294431183
 C   -2.3352684268   -4.0806640661   -0.2105188990
 O   -3.3804013037   -4.3501219625   -0.7391594566
 H    0.3672366350    1.9477821786   -0.7175191656
 H   -1.1549684108    1.3077679849   -1.1090478576
 H   -1.8902419249   -0.4573868447    0.1899479791
 H   -2.0654293113   -3.3013294948    1.7461264074
 H   -3.0343509139   -2.2570037471    0.6825786187
 H   -1.4154017095   -4.6800291464   -0.3634101967