23

 C    0.0417941690    1.5759666879   -0.0248627919
 C    0.0083412861    0.0459050975    0.0165129357
 C   -1.4142626391   -0.5211648360    0.0121000353
 C   -1.4418370689   -2.0624998333    0.0575027743
 C   -2.7917457155   -2.6159036998    0.0511935355
 C   -3.9186154303   -3.0455239902    0.0439041611
 C   -5.2575977337   -3.5618265729    0.0420454761
 C   -5.8413486753   -4.1877708834   -1.2148576507
 C   -5.5043840739   -5.0601230139   -0.0415884640
 H    1.0690066522    1.9537030352   -0.0214554138
 H   -0.4510331203    1.9581592886   -0.9256574430
 H   -0.4744366382    2.0060963980    0.8405140303
 H    0.5621366989   -0.3569799156   -0.8421499552
 H    0.5378349187   -0.3085303179    0.9110524222
 H   -1.9743096897   -0.1298320288    0.8700881742
 H   -1.9490959158   -0.1821267416   -0.8833231848
 H   -0.8800087739   -2.4578692829   -0.8000315948
 H   -0.9027411336   -2.4066061162    0.9511606901
 H   -5.9617575627   -3.0078749169    0.6567189361
 H   -6.8849196000   -3.9889047270   -1.4317723801
 H   -5.1977508125   -4.2332268137   -2.0851860155
 H   -4.6319063452   -5.6982260653   -0.1147615928
 H   -6.3143949563   -5.4653631920    0.5544691459