21

 C    0.2120672145    1.5452098780   -0.1660442421
 O   -0.3395107344    0.3122051901   -0.5728700256
 C    0.5910468884   -0.5464361050   -1.1706990562
 C    1.6319880788   -1.2883133013   -0.2846956830
 C    1.3285164809   -2.5771076820   -1.1002055598
 C    0.0130095480   -1.9168562446   -1.6141868177
 C   -1.2427645938   -2.3391618595   -0.8353755363
 C   -1.7053207946   -3.7032153249   -1.2855158330
 O   -1.7274403283   -4.6911380852   -0.5962732183
 H    0.9939948382    1.4146110667    0.5963931215
 H    0.6478338720    2.0932555077   -1.0162160472
 H   -0.5991895961    2.1398331611    0.2602536689
 H    1.0877333956   -0.0402100593   -2.0141781203
 H    2.6590849834   -0.9175134286   -0.2815240966
 H    1.2777862228   -1.3636714802    0.7471425530
 H    2.0506931349   -2.7425329812   -1.9033312113
 H    1.2158056287   -3.5059288578   -0.5371823037
 H   -0.1785046315   -2.0063939566   -2.6885072310
 H   -1.0614736246   -2.3638944790    0.2420968959
 H   -2.0409349858   -1.6124658652   -1.0329647863
 H   -2.0226646571   -3.7482715831   -2.3552014508