19

 C   -0.0886276267    1.5384278116    0.3344577347
 C    0.0550379732    0.0727706479   -0.0082916996
 C    0.5467798301   -0.5526761074   -1.2580021088
 C    1.7360145302    0.1344057319   -1.9275960065
 C    1.5491571828    1.3993189011   -2.7464794118
 O    2.8312287503    1.7699029536   -3.2369580317
 C    2.4088197616    0.1376946720   -0.5315823830
 N    1.3069320220   -0.7057761306    0.0672992318
 H   -1.0454004299    1.9164315095   -0.0416858375
 H   -0.0857698725    1.6675238044    1.4226063844
 H    0.7005497128    2.1686481823   -0.0752420269
 H   -0.7401814703   -0.5204556076    0.4440295125
 H    0.0199346415   -1.3953659313   -1.6985285166
 H    2.2540757472   -0.5851039780   -2.5688058673
 H    0.8469850845    1.1922343090   -3.5717097787
 H    1.1098719529    2.2067268734   -2.1443124089
 H    2.7399769749    2.5867608321   -3.7359449762
 H    3.3508158838   -0.4103592195   -0.4917275651
 H    2.5523868218    1.1084290656   -0.0482514248