18

 O   -0.0832407927    1.3562193899    0.3354016671
 C    0.0158311340   -0.0314454572    0.0583751055
 C   -1.3978448093   -0.5991441889    0.0497925531
 C   -1.4176378802   -2.1044953725   -0.2210708607
 O   -0.7640353304   -2.8677544964    0.7997811619
 C   -1.7668090225   -3.3539870692    1.6493589611
 O   -2.9557525100   -3.4724773400    0.8690849147
 C   -2.8231415064   -2.6774115120   -0.2322183452
 N   -3.7029988424   -2.4530646341   -1.1042756371
 H    0.8065961977    1.7175249030    0.3816379457
 H    0.4910670712   -0.2127955951   -0.9202713039
 H    0.6164342782   -0.5542944510    0.8171055880
 H   -1.8773258239   -0.3820445444    1.0115019944
 H   -1.9935682477   -0.1053293232   -0.7246082626
 H   -0.9129733187   -2.3261639288   -1.1665250042
 H   -1.4818006214   -4.3421441020    2.0211121656
 H   -1.9660277846   -2.6716808982    2.4905344020
 H   -4.5750820608   -2.9350566197   -0.8826870752