18

 O   -0.0693527444    1.4207423267    0.1671733292
 C    0.0064870870    0.0001887139    0.1731932128
 C   -1.3940597767   -0.5235179966    0.0059258248
 C   -2.3949155293   -0.3714356051    1.1891027309
 C   -2.7330999329   -1.8938786568    1.1055251137
 C   -1.7846435579   -2.0280309131   -0.1070875201
 O   -2.4453334393   -1.8018879328   -1.3678139301
 C   -2.0602800363   -0.4054440378   -1.3773793628
 H    0.8199978863    1.7721866484    0.2700151131
 H    0.6436989606   -0.3699367454   -0.6468635911
 H    0.4358802531   -0.3726771228    1.1178838466
 H   -1.9112489773   -0.0784077975    2.1238986944
 H   -3.2232767331    0.3168076333    1.0055833188
 H   -2.4039587516   -2.4606945356    1.9810083857
 H   -3.7689779630   -2.1573597924    0.8820214373
 H   -1.0856966586   -2.8694212946   -0.1487185404
 H   -2.9234303057    0.2667148965   -1.4530222464
 H   -1.3650040710   -0.1885346982   -2.1992341964