19

 C   -0.0923917007    1.5511976000    0.0030896081
 C    0.0694199911    0.0285465276   -0.0026217417
 C    0.7359348289   -0.5002659966   -1.2817476099
 C    1.0053102249   -2.0015643100   -1.1722228643
 C    1.9627148434   -2.2723939756   -0.0142869765
 N    1.5240897887   -1.5833955460    1.1921662539
 C    0.7743503726   -0.4407739487    1.2785751608
 O    0.6327624518    0.1371045612    2.3425162546
 H    0.8786335836    2.0480269702   -0.0981464371
 H   -0.7254222650    1.8730289334   -0.8297315918
 H   -0.5391442025    1.8812093196    0.9418197734
 H   -0.9338632779   -0.4202049841    0.0595008599
 H    0.0995291968   -0.2798307672   -2.1456665899
 H    1.6831107296    0.0314338543   -1.4493138297
 H    0.0618900938   -2.5348885208   -1.0020632866
 H    1.4396389722   -2.3973189642   -2.0956982084
 H    2.0201020728   -3.3463591449    0.1959933194
 H    2.9769091420   -1.9473242176   -0.2954310039
 H    1.9751891438   -1.8233372605    2.0638732198