23

 C   -0.3622303517    1.4142245032    0.2324005325
 C   -0.0400718213   -0.0536675315   -0.0373190202
 C    1.2137335275   -0.2577214752   -0.9493042330
 C    2.0566153013   -0.5014425503    0.3321257622
 C    0.7376873879   -0.7336963618    1.1172502496
 O   -1.1931754080   -0.8105853073   -0.3798790317
 C   -1.8175484130   -0.4594590973   -1.5769136809
 C   -3.1665612410   -1.0588926384   -1.8093539654
 C   -3.0357094236    0.4312982506   -1.5614591167
 H    0.5339492670    1.9466311017    0.5664811096
 H   -0.7350699163    1.9137887328   -0.6660849141
 H   -1.1218372578    1.4978552242    1.0162460161
 H    1.1092966750   -1.1704764036   -1.5417884363
 H    1.5066407106    0.5660812757   -1.6055054242
 H    2.7697423026   -1.3274052976    0.3054947250
 H    2.5855811394    0.3973764869    0.6593362124
 H    0.6429543439   -0.2903148076    2.1117298412
 H    0.4708412903   -1.7917413475    1.1680752589
 H   -1.1426052119   -0.3787072073   -2.4287307814
 H   -3.4171983063   -1.4080053408   -2.8046599324
 H   -3.5681617383   -1.6596099909   -1.0011414977
 H   -3.3613436616    0.7977472512   -0.5949468693
 H   -3.1945577046    1.1167685910   -2.3874289445