17

 C    0.0418455445   -1.1913962166   -0.0578428246
 C    0.0341548268    0.0115351162   -0.0112536295
 C    0.0068557879    1.4307010485    0.0652070655
 C    0.2711690610    2.3361513870   -1.1143548658
 C    1.2016480289    2.4301123350    0.0603184281
 C    0.5346514848    3.1858573063    1.1803864335
 C    1.1472188139    3.8804348469    2.3091983591
 O    0.4731255378    4.6001274826    1.2643032887
 C   -0.6853766621    2.2455397288    1.1824097324
 H    0.0506099888   -2.2519370637   -0.1041134509
 H    0.6822761668    1.8424017157   -1.9877627494
 H   -0.4199761482    3.1462732632   -1.3320784296
 H    2.2580586780    2.2066566054   -0.0213535418
 H    0.6480882422    3.8828322348    3.2776983665
 H    2.2279579817    4.0151128564    2.3439749696
 H   -1.6443905665    2.6959387959    0.9108771231
 H   -0.7931587865    1.6893901074    2.1156291350