23

 C   -0.2614520908    1.5425874723    0.0107894084
 C   -0.0399821966    0.0371413788   -0.0021404312
 C    1.1304350031   -0.4563445386   -0.9123319010
 C    1.8347426033   -1.1041500402    0.3107242071
 C    0.6703004688   -0.6417258329    1.2406743234
 C    1.0479392811    0.1744394264    2.4591676802
 O   -0.1749228011   -1.7048392333    1.6721272036
 C   -1.0146359803   -2.0818680739    0.5897338324
 C   -1.3375772675   -0.7745734581   -0.1441090103
 H    0.6752171519    2.0883688349    0.1672707611
 H   -0.6791230696    1.8800532832   -0.9451440774
 H   -0.9597627495    1.8403494881    0.8006869378
 H    0.8328110836   -1.1553532282   -1.6994042850
 H    1.6926220526    0.3565432651   -1.3790678969
 H    1.9479377289   -2.1901590979    0.2713575663
 H    2.8047450681   -0.6671630137    0.5614237651
 H    1.6934961203    1.0147732636    2.1879373774
 H    0.1566562098    0.5639592292    2.9601853993
 H    1.5903174553   -0.4534197472    3.1737767692
 H   -0.5013206933   -2.7918707647   -0.0791492622
 H   -1.8911245536   -2.5865898030    1.0050538064
 H   -2.1581744185   -0.2565223688    0.3644948207
 H   -1.6309753963   -0.9325853713   -1.1865670446