17

 C    0.0972223038    1.5241136867   -0.0697373152
 C    0.0437181370    0.0700577735   -0.0380557788
 C   -0.0149119002   -1.1336839274   -0.0073564790
 C   -0.0105673070   -2.5882472115   -0.0123077371
 O    0.8309015208   -3.1050803936   -1.0073289520
 C   -0.0290472192   -3.3659108289    1.3613678122
 C   -1.4787805976   -2.8889897728    1.6001400575
 C   -1.3481854044   -3.3824885922    0.1410236877
 O   -0.5679869438   -4.5351462596    0.6382728826
 H    0.8319368134    1.9121111504    0.6441422164
 H    0.3738508243    1.8882410766   -1.0650757225
 H   -0.8755397000    1.9592918198    0.1838714748
 H    1.5073171556   -2.4443968484   -1.1838029544
 H    0.7860992536   -3.5327595451    2.0658406585
 H   -2.0591691794   -3.5580783977    2.2337575427
 H   -1.6675124836   -1.8313992126    1.7888253771
 H   -2.1107437630   -3.5706461072   -0.6147961504