25

 C    0.9605841383   -0.0773298870    1.2831844693
 C    0.0282452837    0.0790465982    0.0704583020
 C   -0.4250532776    1.5420027926   -0.0664919146
 C    0.6064002228   -0.4331169697   -1.2730082110
 C    2.0057796581    0.1023418427   -1.6121484694
 O    2.9339283911   -0.8021955564   -1.0227391261
 C    2.3492762326   -2.1007009923   -0.9637922290
 C    0.8728429904   -1.9606365534   -1.3982699615
 C   -0.0875326854   -2.9111022034   -0.6845740108
 H    1.2006874055   -1.1236470457    1.4899776523
 H    1.9072399311    0.4501619760    1.1358418975
 H    0.4830192200    0.3329005103    2.1794219375
 H   -0.8751481032   -0.5132560739    0.2690298244
 H    0.4229839120    2.2113883023   -0.2510097527
 H   -1.1332366113    1.6671211991   -0.8926791267
 H   -0.9156865558    1.8847665618    0.8503326943
 H   -0.1029653421   -0.1348080226   -2.0539239868
 H    2.1473594685    0.1436785250   -2.7046626447
 H    2.2140095350    1.0991424933   -1.2118449999
 H    2.8994936937   -2.7902485614   -1.6191487499
 H    2.4411973502   -2.4762559130    0.0639812568
 H    0.8238649380   -2.1873471851   -2.4708440043
 H   -0.0704188689   -2.7761510856    0.4009345544
 H   -1.1180154906   -2.7666997695   -1.0256021424
 H    0.1809875638   -3.9531928823   -0.8893451985