20

 C    0.1944846464    1.4956480606    0.1065414703
 C   -0.0012934585    0.0109835575   -0.0272434893
 C   -0.1094788529   -0.6179563397   -1.2005684163
 C   -0.2612500719   -2.1119661683   -1.3215977525
 C   -0.9894382706   -2.7686299124   -0.1313850592
 O   -0.8151326303   -4.1813497029   -0.1367235208
 C   -0.5807501944   -2.1733215350    1.1978293249
 N    0.8627744523   -1.9353039822    1.3727699317
 C   -0.0719080129   -0.7794071710    1.2368909852
 H    1.1352432480    1.7261495634    0.6231400854
 H    0.2145456831    1.9868898970   -0.8696405725
 H   -0.6074671105    1.9536499815    0.7003204160
 H   -0.0387770934   -0.0469473979   -2.1232943054
 H   -0.7860241491   -2.3785667846   -2.2444465568
 H    0.7351907734   -2.5692940962   -1.3950717808
 H   -2.0695553012   -2.6173910118   -0.2453253265
 H    0.1175459671   -4.3401268018    0.0516188438
 H   -1.1455160084   -2.5387115608    2.0528026331
 H    1.1144482612   -2.0501081941    2.3517055774
 H   -0.2620765374   -0.2072893012    2.1421383922