20

 C   -0.2853385110    1.4486922051    0.3994420767
 C    0.2758724148    0.0983479398   -0.0650663369
 C    0.9037953777   -0.6580552999    1.0838557169
 N    0.0371926422   -1.4578316676    1.9416760968
 C    1.0635854657   -2.1584639270    1.1386958761
 C    0.5394887957   -3.1199002331    0.0971335988
 O   -0.0585486744   -4.2444962979    0.7196042847
 C    2.2542673939   -2.6293440461    1.9127590309
 O    2.5374019195   -2.2122044393    3.0116377835
 H    0.5011525149    2.0810153652    0.8254718484
 H   -0.7361387898    1.9929433175   -0.4353894374
 H   -1.0528184924    1.3037375122    1.1657557363
 H   -0.5283876591   -0.4972313063   -0.5056507666
 H    1.0300079913    0.2546495244   -0.8464561074
 H    1.7040057483   -0.1189419231    1.5918313701
 H    0.3859824449   -1.4185042488    2.9005748250
 H   -0.1582931727   -2.6155767007   -0.5821731301
 H    1.3669895831   -3.5084007903   -0.5080410212
 H   -0.7385655000   -3.8935866196    1.3075385509
 H    2.8771837773   -3.3973155344    1.4084677947