19

 C    0.2209695251    1.4928466080   -0.3729064322
 C   -0.0044383160    0.0599585544    0.0317597567
 O    1.1513804978   -0.7790261917    0.1959509943
 C    0.3358664258   -0.5203885088    1.3402034818
 C    0.9827160953    0.2349065560    2.4854726582
 O    0.0032459074    0.6596426821    3.4246786070
 C    2.0779118557   -0.6129060880    3.1496647983
 C    2.7321537930    0.1296366112    4.2940329286
 O    2.8427602825   -0.2968555926    5.4133804340
 H    1.0549870025    1.9462254999    0.1660017758
 H    0.4433988656    1.5485527865   -1.4434443733
 H   -0.6804246243    2.0854621291   -0.1850184665
 H   -0.8138302072   -0.4345542540   -0.5095155615
 H   -0.2507422283   -1.3824368800    1.6741673483
 H    1.4331696746    1.1574009352    2.1069407426
 H   -0.3119045607   -0.1139843270    3.9060003978
 H    1.6740620216   -1.5594932976    3.5276045152
 H    2.8398030804   -0.8450308077    2.3935293951
 H    3.1232175992    1.1373016450    4.0208268698