21

 C   -0.2477435046    1.5825228513   -0.2589153803
 C    0.1982152922    0.1428308922    0.0554965113
 C    0.7572625862   -0.5947601037   -1.1419016117
 C    2.0368786269   -0.9758313064   -1.1770118155
 C    2.7892571912   -1.6535028671   -2.2979354255
 O    2.1011624490   -2.6602361683   -3.0195882654
 C    0.9953863726   -2.2205856784   -3.7504544576
 O   -0.1535412488   -2.0296757970   -2.9765398908
 C   -0.2275591338   -0.7996546626   -2.2812186048
 H    0.5917864911    2.1771987572   -0.6330068208
 H   -1.0390803736    1.6087660839   -1.0150838253
 H   -0.6364068638    2.0711390154    0.6398033362
 H    0.9503528315    0.1639084302    0.8508170522
 H   -0.6624321535   -0.4140920389    0.4522092690
 H    2.6574718477   -0.7386275770   -0.3138626308
 H    3.1588409718   -0.8842817239   -3.0021579147
 H    3.6729463021   -2.1513556976   -1.8878601070
 H    1.2423833261   -1.2922387398   -4.3014616767
 H    0.7585807529   -3.0228596152   -4.4535121465
 H   -1.2492127125   -0.7555884649   -1.8902828398
 H   -0.1265978907    0.0360221805   -2.9975620154