19

 C   -0.1611622163    1.5051196419   -0.0764740308
 C    0.0149900868    0.0147244065    0.0937891659
 O    0.1054591383   -0.5214937870    1.1734699515
 C    0.0395302862   -0.8055991593   -1.2035340012
 C    0.5506803198   -2.2442822222   -1.0561324925
 C   -0.2663584914   -3.0748119401   -2.0692464921
 C   -1.6584926185   -2.4312513857   -2.0386008081
 C   -1.3956869875   -0.9494959215   -1.7858090836
 O   -2.1539137889   -0.0408157796   -2.0055059854
 H    0.7113209403    1.9241484613   -0.5919264456
 H   -1.0312137170    1.6942190547   -0.7143440107
 H   -0.2771396030    1.9851333210    0.8957880867
 H    0.6006991705   -0.2378752096   -1.9571385566
 H    1.6280107218   -2.3251568854   -1.2177484617
 H    0.3487416260   -2.5732217825   -0.0321403534
 H    0.1634976047   -2.9817311243   -3.0734261010
 H   -0.2819104958   -4.1383861371   -1.8203506051
 H   -2.2713252119   -2.5718680525   -2.9313192186
 H   -2.2394802839   -2.8004217386   -1.1816637676