19

 O   -0.2174164921    1.5416641764   -0.1732129593
 C    0.0575708326    0.1548163650   -0.0092639910
 C   -1.2935891425   -0.5161027127    0.3125376874
 C   -1.2997285484   -2.0467851962    0.1356281744
 C   -0.0439592471   -2.7394045027    0.6353135528
 O    0.4822591460   -3.7706362244   -0.2098562017
 C    1.2333992912   -2.5533670194   -0.0756114054
 C    1.2979259371   -1.6430800746   -1.2557088923
 C    0.7537902869   -0.4266966584   -1.2273606117
 H    0.6230140811    2.0075205064   -0.2277044236
 H    0.7165353384    0.0111680150    0.8606317304
 H   -1.5673462028   -0.2345723177    1.3349247098
 H   -2.0511019024   -0.0752510600   -0.3439770226
 H   -2.1798905779   -2.4690350804    0.6324204344
 H   -1.3894972055   -2.2921881619   -0.9251131508
 H   -0.0029732465   -2.9771689193    1.6992019895
 H    2.1647127411   -2.6892825365    0.4789558131
 H    1.8033537092   -2.0117769398   -2.1448738327
 H    0.7860723814    0.2197946310   -2.1018094805