17

 N    0.1143941834   -1.2577433811   -0.3161614032
 C    0.0437860794   -0.1051606350   -0.2710872074
 C   -0.0238788769    1.3520711498   -0.2057313539
 C    1.2767977963    1.9783347117    0.3336623413
 N    1.1381586361    3.4271493247    0.3009601373
 C    1.7018116473    4.1070355023    1.1877259309
 C    1.7984955785    5.5814201361    1.5140504171
 C    2.6513465098    5.0880706061    2.7013306811
 O    2.4830458126    3.7055533044    2.2553487644
 H   -0.2301115608    1.7517829600   -1.2038383905
 H   -0.8654995475    1.6421448412    0.4322523800
 H    1.4918509735    1.5895348233    1.3364434427
 H    2.1090240183    1.6784686759   -0.3147413768
 H    2.3217625799    6.1803594454    0.7670930807
 H    0.8505806000    6.0595909623    1.7652178891
 H    3.7059673761    5.3714727787    2.6948065016
 H    2.2249615839    5.2304557042    3.6967489455