15

 O    0.2987204283    1.1662421738   -1.5995928726
 C    0.3155261932    1.0344262971   -0.4057896686
 C    1.0344405181    2.0217876359    0.5236807239
 O    1.5602702975    1.5750107503    1.5177071217
 C    1.1674161142    3.4417956569    0.0660631772
 C    2.0977565167    4.3515391810    0.8662810125
 C    2.5425540167    3.8698165707   -0.4628912665
 C   -0.0423964359    4.0783630104   -0.5123179448
 O   -1.1500273552    3.6068099144   -0.4468975100
 H   -0.0757807281    0.1415575523    0.1229104353
 H    1.7974900457    5.3879757806    0.9726911589
 H    2.5141883079    3.8887016773    1.7533376084
 H    3.2952354240    3.0916084633   -0.5114246431
 H    2.5389089735    4.5548502669   -1.3045980449
 H    0.1440678735    5.0680957690   -0.9885004974