17

 O    0.0495349766    1.4552112562   -0.0892311601
 C   -0.0485882249    0.0727794577    0.0000466475
 C   -0.4388863381   -0.6577473954    1.2602471754
 C   -1.1971823696    0.1610275266    2.2847293088
 O   -2.2407346285    0.8286988897    1.5652311192
 C   -2.5999541411    0.0586853307    0.4362125250
 C   -3.0802003454    0.9818045264   -0.6762917682
 O   -2.7696851089    2.1402843261   -0.7750626401
 C   -1.3420375964   -0.7117597892    0.0292905841
 H   -0.8037343723    1.8653607432    0.1116601218
 H    0.7487818147   -0.3911344387   -0.5735074966
 H    0.1218931550   -1.5223309884    1.5971009953
 H   -1.6174296831   -0.4860910519    3.0680623338
 H   -0.5944991761    0.9419164975    2.7586810653
 H   -3.4096027818   -0.6560504256    0.6661060370
 H   -3.7276075103    0.4868400681   -1.4331352246
 H   -1.4601664801   -1.6062176729   -0.5712800236