16

 C    0.1213818524    1.3189755254    0.1070885933
 O   -0.3057656412    0.0187575905   -0.2275001108
 C    0.5022655210   -0.5969769706   -1.1850105575
 C    1.9260364119   -1.1583874927   -0.7829101896
 C    1.4534890966   -2.5232285093   -1.2923834432
 N    0.3185716072   -2.8949911597   -0.4193617030
 C    0.0843948927   -2.0060225188   -1.5844439865
 H    1.1266580559    1.3206629632    0.5548781651
 H    0.1364885476    1.9827696910   -0.7727454398
 H   -0.5878008843    1.7168678747    0.8367283640
 H    0.5991436282    0.0398281803   -2.0789766286
 H    2.7397554395   -0.7097807537   -1.3558268117
 H    2.1532337331   -1.1368445933    0.2851773654
 H    2.0289348238   -3.2734907052   -1.8193662518
 H    0.0086440535   -3.8237134868   -0.7059084444
 H   -0.6244781278   -2.2818078047   -2.3554507309