18

 C    0.2677374249    1.5011510142   -0.0712292492
 C    0.0437467124   -0.0064572273    0.0580526603
 C   -1.4498509100   -0.4018150816    0.0650319309
 O   -2.1348677290    0.1203771252   -1.0854176575
 C   -1.5947283602   -1.8594253546    0.1081558213
 C   -1.7051737791   -3.0562736838    0.0881867427
 C   -2.1376215413    0.1870159488    1.3362919675
 N   -3.3762657670    0.6816051666    1.1123951323
 O   -1.5839688060    0.1588486038    2.4160702400
 H    1.3371466629    1.7201457505   -0.1395035664
 H   -0.2210735810    1.8952188765   -0.9659722449
 H   -0.1255132054    2.0322550057    0.8004449973
 H    0.5223707960   -0.5391059875   -0.7715710380
 H    0.4808540056   -0.3826604382    0.9861758657
 H   -2.0117858531   -0.5060650417   -1.8060490123
 H   -1.8078294914   -4.1136138574    0.0930539900
 H   -3.7192387055    0.7542190178    0.1699238399
 H   -3.8687565328    1.1114999531    1.8771670805