20

 C    0.9003928151   -0.5057316338   -0.8350071043
 N   -0.1210294331   -0.0131077190    0.0826375965
 C    0.0521586839    1.4144087931    0.3311622252
 C   -1.4905406707   -0.2958254928   -0.3668409760
 C   -1.6917291328   -1.6950915280   -0.7377937127
 C   -1.9254273411   -2.8379094427   -1.0291657142
 C   -2.5126577476    0.0474945309    0.7630234562
 C   -2.2927518396   -0.6330436561    2.0954794922
 O   -3.4219400631    0.8067171085    0.5415832645
 H    1.8867322925   -0.3105041155   -0.4037005536
 H    0.7911919501   -1.5822931322   -0.9751055270
 H    0.8597594855   -0.0192895390   -1.8273225903
 H   -0.0661720158    2.0264779698   -0.5822828234
 H   -0.6753279314    1.7704609999    1.0661493229
 H    1.0534241451    1.5911899380    0.7334512640
 H   -1.7825969980    0.3390300304   -1.2242272462
 H   -2.1205669899   -3.8466632979   -1.2989328624
 H   -1.2468847969   -0.5423237286    2.3989108269
 H   -2.9615765618   -0.2060336632    2.8430291588
 H   -2.4981033304   -1.7035266419    1.9879643730