18

 O    0.0747910891    1.3844955379   -0.1325994794
 C    0.0257915371   -0.0244210579    0.0011378209
 C    0.7120563904   -0.5213167874    1.3074385335
 C   -0.3768677738   -0.6020562854    2.3671470964
 O   -1.1961220068    0.6154111968    2.2514145706
 C   -2.0904093223   -0.1169234280    1.3974982371
 C   -1.5895858095   -1.4869870343    1.8615431999
 N   -1.5198391845   -1.9526613568    0.4731616727
 C   -1.4311590812   -0.5295422044    0.0234905346
 H   -0.3054272422    1.7313280087    0.6861898269
 H    0.5431278858   -0.4257568387   -0.8769344964
 H    1.1867000183   -1.5001540446    1.1733867416
 H    1.4956429744    0.1877380814    1.5893080937
 H   -0.0262821397   -0.7449417058    3.3915380480
 H   -3.1149538858    0.2521512896    1.4055131790
 H   -2.0683283185   -2.1394882765    2.5926685085
 H   -0.7256137156   -2.5395920922    0.2256371417
 H   -1.9659813251   -0.3000923524   -0.9006785992