9

 N   -0.0016113108   -1.1540545319   -0.0029145991
 C    0.0145052501    0.0018794154    0.0022794808
 C   -0.0266047617    1.4347265024    0.0104260540
 C   -1.2322407081    2.1361293217    0.0305310786
 N   -1.2214196860    3.4602475105    0.0376666081
 N   -0.0488071280    4.0866322766    0.0254378081
 N    1.0903727223    3.4224721117    0.0065075242
 N    1.1311922090    2.0984601558   -0.0013064163
 H   -2.1990098367    1.6430297378    0.0409226816