16

 C   -0.1930978116    1.4438442316   -0.1052154114
 C   -0.0277997323   -0.0677099652   -0.0328756623
 C    1.1535900185   -0.6143241597   -0.9313091147
 O    1.5667191322    0.0539681793   -2.0757606036
 C    2.0186993173   -0.5427291123    0.3288112147
 O    3.1548329941   -0.2345330982    0.5184614040
 C    0.7504352392   -0.5842807742    1.2377845909
 C    0.7433988121    0.2000264665    2.4525501528
 N    0.7391836418    0.8467351017    3.4108362097
 H    0.7447093928    1.9681687285    0.1103343595
 H   -0.5172363993    1.7350171219   -1.1076232530
 H   -0.9343242660    1.7920352471    0.6184873727
 H   -0.9773761342   -0.5789190195   -0.1951635997
 H    0.9479434094   -1.6591866202   -1.1951417278
 H    2.2120809816    0.7246096510   -1.8229955606
 H    0.4871562143   -1.6234947282    1.4592497989