19

 C    0.0529504577    1.5310562114    0.0215287183
 C    0.0731338090   -0.0029162117    0.0035321427
 C    0.6144541142   -0.5787586833    1.2733153420
 C    0.9510403114   -2.0375682904    1.6739132289
 C    1.5850513703   -1.1550782285    2.7804976132
 C    2.5570406662   -1.4880387507    3.8623582633
 O    2.0057509444   -0.2045167378    1.7007182426
 C    0.2837277044   -0.3071363132    2.7675334431
 O   -0.4384360254    0.3197032437    3.4743418652
 H    1.0623890886    1.9270871868    0.1607989474
 H   -0.3443613480    1.9241129765   -0.9181899482
 H   -0.5699089629    1.9022578837    0.8404201372
 H   -0.9409390139   -0.3985057148   -0.1344083621
 H    0.6706076682   -0.3713246063   -0.8391503837
 H    0.1334423047   -2.7130869433    1.9415584140
 H    1.6948208741   -2.4975156683    1.0196810268
 H    3.4481655143   -1.9741467167    3.4544726206
 H    2.8627967649   -0.5810886983    4.3915379899
 H    2.0913248079   -2.1662236989    4.5839125189