18

 O    0.0514213530    0.0420630279    0.1891315232
 C    0.0261134479    1.2387656076    0.1393368185
 C   -1.0821390463    2.2904052785   -0.0373272590
 C   -1.3446515334    2.9169620770    1.3465426568
 C    0.0432578986    3.1842972127    1.9899012808
 N    1.0778775074    3.4369860788    0.9672524053
 C    0.4935436179    4.3592834248   -0.0743481975
 C   -0.0077642548    3.1402476995   -0.8399563412
 C    1.0864239553    2.3090287491   -0.0693357239
 H   -1.9904441415    1.9894728472   -0.5605858838
 H   -1.9236185562    3.8393403166    1.2318952162
 H   -1.9400570498    2.2406745131    1.9675265432
 H    0.0101567686    4.0465122557    2.6637659512
 H    0.3655852863    2.3199695101    2.5800494794
 H   -0.2239378852    5.0944444145    0.3036892842
 H    1.2965053265    4.8875603891   -0.5974723084
 H   -0.1175134939    3.1256115090   -1.9244115124
 H    2.0881554695    2.0604767888   -0.4217817928