15

 C   -0.0125494088    1.4802818271    0.1133067798
 C   -0.0454153554   -0.0172743797   -0.1703291068
 N   -1.3929604330   -0.5423783671    0.0286978216
 C   -1.6131952422   -1.8898982424    0.0249600295
 N   -2.8157782002   -2.4456455718   -0.1411125107
 N   -2.5012709010   -3.7368645367   -0.0040596202
 N   -1.2294890726   -3.9839655718    0.2187251547
 N   -0.6338730294   -2.8150411577    0.2393951503
 H    0.9987079479    1.8711099628   -0.0285256775
 H   -0.6767707585    2.0285907466   -0.5651092113
 H   -0.3269854728    1.6902246407    1.1395972868
 H    0.3205099921   -0.2195751216   -1.1890274639
 H    0.6203794677   -0.5520582069    0.5116864414
 H   -2.1388948066   -0.0089249178   -0.3933767784
 H   -3.1883160570   -4.4717238737   -0.0705571655