19

 C   -0.2209923849    1.6456631309    0.0765093325
 C    0.0223924940    0.1445547605    0.0071488703
 C    0.6427866853   -0.5487092814   -1.2188272686
 C    2.2226853257   -0.3843805541   -1.2014121711
 C    2.4521002452    0.1361595570    0.2294716457
 C    1.1890995213   -0.5666284148    0.7734344205
 O    1.1006233499   -0.9125834631    2.1177417070
 C    1.1174862265   -1.7180367692   -0.3348545035
 O    2.3840938415   -1.8222159362   -0.9949322171
 H    0.6364450689    2.2309611871   -0.2677691968
 H   -1.0751454167    1.9257420383   -0.5493532471
 H   -0.4533752679    1.9605789515    1.1007718675
 H   -0.9041496481   -0.3893017368    0.2536559874
 H    0.1481183899   -0.6790631735   -2.1787104448
 H    2.8029351472    0.0101635817   -2.0343824715
 H    3.3778201647   -0.2751315015    0.6368915195
 H    2.4401248763    1.2219172806    0.3449509949
 H    1.3210796471   -0.1423399311    2.6520695057
 H    0.5971905741   -2.6498812958   -0.1209345204