20

 C    0.0521609999    1.4236052192   -0.4020010892
 C   -0.0416537339   -0.0748246951   -0.1193744010
 C   -1.4759091723   -0.5938243919   -0.1731354260
 O   -2.3941084085    0.0343983835   -0.6650042754
 N   -1.6785881874   -1.8038815179    0.4703120763
 C   -0.9001784109   -3.0857805776    0.2409319486
 C   -2.0456106545   -3.8030377048    1.0052874602
 C   -2.7101526601   -2.8060278613    0.0143155393
 C   -1.7084396401   -3.3020660702   -1.0736650388
 H    1.0964118932    1.7477215887   -0.4291222924
 H   -0.4172728977    1.6638577926   -1.3582461408
 H   -0.4668214490    1.9996747657    0.3690742337
 H    0.5388845425   -0.6388351880   -0.8638638228
 H    0.3942365532   -0.3284414777    0.8532059881
 H    0.1745254899   -3.1476759815    0.4101082506
 H   -2.1814651572   -4.8643828469    0.7937824397
 H   -2.1385804872   -3.5604717484    2.0639409920
 H   -3.7570707046   -2.5326885209   -0.0922244965
 H   -1.5086733137   -2.6082222962   -1.8918474780
 H   -1.8204866918   -4.3313224514   -1.4247101377