18

 C    0.0157170248    1.4617952549    0.0891477601
 C    1.5670334920    1.5511193703   -0.0179563264
 C    2.0350169861    1.3717772281   -1.4991491615
 C    1.6542636576   -0.1367259460   -1.3818662743
 C    2.7099921815   -1.2243222648   -1.0809713302
 O    2.5491590716   -0.9944956232    0.3694248559
 C    1.5550448082   -0.0184755009    0.1193081936
 C   -0.0005797883   -0.0874372355   -0.0781846029
 N    0.2406484735   -0.5587252513   -1.4745412261
 H   -0.3061120491    1.7252940983    1.1013245808
 H   -0.5655203531    2.0383461808   -0.6379314545
 H    2.0701332388    2.2722855687    0.6257112000
 H    1.5220435509    1.9639459909   -2.2628348499
 H    3.1141208185    1.5059308184   -1.6187841768
 H    2.4127494174   -2.2402197567   -1.3568954377
 H    3.7400416508   -1.0241913755   -1.3973066184
 H   -0.7448040313   -0.6507327139    0.4877342290
 H   -0.3191756199   -0.1181349624   -2.1993365806