16

 C   -0.2798201735    1.4873863126    0.0468241278
 C    0.1238850134    0.0271411728    0.0012881855
 O    1.3388314466   -0.1924565879   -0.7594633892
 C    1.9771077232   -0.8971749737    0.3307730166
 C    0.7821314261   -0.6114270115    1.2294462854
 C    0.6989864574   -0.2133140375    2.6477112109
 N    0.2160051712   -1.5372260927    2.1946242789
 H    0.5194442395    2.0986144319    0.4751720690
 H   -0.4909850863    1.8506826816   -0.9637971201
 H   -1.1864111009    1.6198852883    0.6482252520
 H   -0.6978367830   -0.5845251656   -0.4041446696
 H    2.1316611041   -1.9604952703    0.1084099409
 H    2.9326313190   -0.4388985558    0.6127000223
 H    1.5843773946   -0.2433239998    3.2775724142
 H   -0.0289244496    0.5449351787    2.9264790709
 H   -0.8001070017   -1.5409284110    2.1318158545