18

 C    0.0413625146   -1.1953370163    0.0146804141
 C   -0.0147608311   -0.0006705778    0.1364519576
 C   -0.0465166754    1.4516136233    0.2780331796
 C    1.3420026490    2.0770762483    0.0959740039
 C    2.0028290081    2.2214979668   -1.3119842538
 C    1.0348158825    3.4066662501   -1.6034224313
 C    1.5204594975    3.6119412213   -0.1370706363
 C    2.9483558414    3.2709306566   -0.6562662677
 H    0.0783545203   -2.2509477937   -0.0909243566
 H   -0.7719357317    1.8668501394   -0.4290842689
 H   -0.4196191396    1.7094075389    1.2784624904
 H    2.0173859126    1.6629051224    0.8525311763
 H    2.2827063241    1.4134944472   -1.9884564043
 H    1.3848700422    4.1435125838   -2.3313348856
 H   -0.0193323431    3.1793704999   -1.7692754331
 H    1.2431709055    4.4175620875    0.5451131101
 H    3.6643642387    2.8972448778    0.0809150028
 H    3.4059943243    4.0000851745   -1.3295620072