19

 C    0.2877320387    1.5706955404   -0.0263452368
 C    0.0235411275    0.0842030230   -0.0547164833
 C    0.0481403323   -0.6003415048   -1.2066683043
 C   -0.1217053628   -2.0452251922   -1.4127690677
 C   -1.1326236985   -2.8223483068   -1.0045243017
 C   -2.3127973068   -2.4245312720   -0.2260645106
 C   -2.3351119100   -1.7564035961    0.9334220719
 C   -1.1769509362   -1.2846884749    1.7062108800
 C   -0.1637793441   -0.5237780108    1.2815576817
 H    1.1531568739    1.8036242720    0.6076461854
 H    0.4799193153    1.9668328072   -1.0266898334
 H   -0.5643099814    2.1130906276    0.4015635708
 H    0.2840809394   -0.0420939597   -2.1137157704
 H    0.6319715307   -2.5046088966   -2.0529270726
 H   -1.1329831261   -3.8605525160   -1.3362883505
 H   -3.2638208122   -2.7855473850   -0.6176087870
 H   -3.3014764544   -1.6134513876    1.4166068857
 H   -1.1904302173   -1.5589822183    2.7614542468
 H    0.5833682221   -0.2261644595    2.0186787361