17

 C    0.0205879794    1.5131273162    0.0787408120
 C   -0.0048256614   -0.0002574951   -0.0154537172
 O    0.6825058061   -0.5098927747    1.1433558503
 C    0.7845020313   -1.8354858445    1.2758093845
 N    0.2620137306   -2.6399826198    0.3562354395
 C    0.4111169512   -3.9523762389    0.5695783433
 N    1.0187132332   -4.5423507307    1.5906477872
 C    1.5379346088   -3.7039597151    2.5056981229
 C    1.4538912161   -2.3312190687    2.4054427339
 H    1.0483744699    1.8863790723    0.0925481730
 H   -0.4923922078    1.9452459354   -0.7854939002
 H   -0.4830221509    1.8565455579    0.9866416555
 H   -1.0261341227   -0.3936845301   -0.0286967548
 H    0.4959244024   -0.3637671688   -0.9183264013
 H   -0.0187249766   -4.6062897626   -0.1862995501
 H    2.0410446058   -4.1657514553    3.3519349412
 H    1.8731753746   -1.6605769276    3.1441941904