14

 C   -0.0283478046    1.5339512755    0.1287946281
 C    0.0131995368    0.0520109929   -0.0018203824
 C    0.0551001316   -0.7765488739   -1.1097518447
 O    0.0672141723   -0.3639410607   -2.3937178474
 N    0.0837365871   -2.0859566877   -0.7703651018
 C    0.0602368943   -2.0965929033    0.5579875190
 N    0.0174583214   -0.8267530047    1.0579095066
 C    0.0754293370   -3.2365123272    1.3954532090
 N    0.0865515235   -4.1442132757    2.1157558359
 H    0.8384029079    1.9259847082    0.6743079418
 H   -0.0247051754    1.9789411065   -0.8681561943
 H   -0.9313017187    1.8786997659    0.6467941538
 H    0.0978774248   -1.1574350834   -2.9421418320
 H   -0.0066700280   -0.5811771824    2.0346698485