20

 O    0.2957695519    0.7151182861    1.4221788875
 C    0.1876636763    1.4583691809    0.4700932752
 N    1.1562085664    1.7056415985   -0.4522317264
 C    2.4913372405    1.1300863943   -0.3802480550
 C    3.5622646808    2.1670991323   -0.1392838622
 C    3.7136067840    3.1117950464    1.0930071520
 C    4.9134781339    3.4417126458    0.1608100825
 C    5.0969354143    1.9095749779   -0.0332068090
 C    3.9144797859    3.4034635603   -1.0296121660
 H   -0.7409509545    2.0208235057    0.2459153332
 H    0.9546421722    2.3677513824   -1.1845328461
 H    2.4664828992    0.4073981817    0.4395330679
 H    2.7078446136    0.5805213150   -1.3061069245
 H    2.9531341237    3.8884402447    1.2107420140
 H    3.9464032581    2.6320112606    2.0474380737
 H    5.6964213970    4.1800158170    0.3334749976
 H    5.4359440596    1.3398876079    0.8366157661
 H    5.6037440592    1.5856349311   -0.9471060872
 H    4.3339755361    3.1933724715   -2.0183255063
 H    3.1740820419    4.2085133097   -1.0712012571