15

 O    0.0580072836    1.4196322162    0.0077865063
 C    0.0115393717    0.0127220590    0.0018900171
 C   -1.4259746901   -0.4320353316    0.0127932339
 C   -2.5035947348    0.3993942285    0.0231953828
 N   -3.7870947059   -0.0829350633    0.0323408020
 C   -3.9811067005   -1.3657086645    0.0310240039
 C   -2.9180823402   -2.3742992778    0.0205539297
 O   -3.0568031566   -3.5838999325    0.0187018544
 N   -1.6482797969   -1.7811574055    0.0116789588
 H    0.9790586190    1.6941613920   -0.0011239717
 H    0.5047898506   -0.4106458397   -0.8905795091
 H    0.5207822618   -0.4186400962    0.8814665068
 H   -2.3696086069    1.4709167863    0.0244950805
 H   -4.9996707467   -1.7465350049    0.0382071128
 H   -0.8750912881   -2.4351416659    0.0042415816