18

 C    0.0377272587    1.5264481635   -0.0663247869
 C    0.0393132192    0.0104480550    0.0064484757
 O    0.7314363904   -0.4898430886   -1.1447274723
 C    0.7283552513   -1.8808030206   -1.2124011067
 C    2.0528440981   -2.5803364728   -1.0742938745
 C    1.0447341267   -2.6080800754    0.0629874314
 N    1.2243410512   -1.7596078548    1.1972671918
 C    0.7151754018   -0.4939169711    1.2949605293
 O    0.8053991649    0.1755899516    2.3052856056
 H    1.0627414711    1.9024575908   -0.1176918508
 H   -0.5047510173    1.8581382934   -0.9547472470
 H   -0.4331987437    1.9377731260    0.8273823623
 H   -0.9966713886   -0.3672138613    0.0022462578
 H   -0.0262953396   -2.3012075153   -1.8757161957
 H    2.2181100451   -3.4932343380   -1.6352084934
 H    2.9170287532   -1.9399266733   -0.9437298228
 H    0.5272863150   -3.5430444135    0.2618102225
 H    1.7472811025   -2.0855723356    1.9977274937