17

 C   -0.2963428590    1.4211503944    0.0250204346
 C    0.0654629053   -0.0428504059    0.0118943562
 O   -1.0862491369   -0.9166925994    0.2387869844
 C   -0.4852530828   -1.4926303030    1.4107602025
 C    0.8374895844   -0.7167800986    1.1710003047
 C    1.9227372498   -1.5023374866    0.4919160659
 C    1.8859933020   -1.4038363871   -0.8448520781
 C    0.7946247415   -0.4983788410   -1.2736795335
 O    0.4967608912   -0.1704897284   -2.3977602221
 H    0.6056998589    2.0416007840   -0.0075336535
 H   -0.8950552534    1.6499964875   -0.8613955903
 H   -0.8690158829    1.6757353991    0.9208332155
 H   -1.0171481355   -1.2004359218    2.3244506273
 H   -0.4256114390   -2.5853671165    1.3566079953
 H    1.1866887852   -0.1003412084    2.0013254144
 H    2.6313962378   -2.1047646788    1.0513643711
 H    2.5464094032   -1.8922834195   -1.5500697544