19

 C    0.2919635484    1.7505612323   -0.8402982489
 C    0.0909878249    0.3260876454   -0.3399440465
 C    0.8153724940   -0.8267861479   -1.0431787432
 C    2.2687425196   -0.7690255051   -0.8231942709
 N    1.4291027358   -1.3557179920    0.2486106451
 C    0.7835895695   -0.1938375693    0.9615839149
 C    1.6853619596    0.7153755049    1.7853108661
 N    2.8378292011    0.1238824741    2.2038443112
 O    1.3679205284    1.8552820672    2.0703247469
 H    1.3489538143    1.9969312705   -0.9725023144
 H   -0.2097554236    1.8860275483   -1.8048447710
 H   -0.1189750719    2.4672629859   -0.1258450080
 H   -0.9799805594    0.1161235462   -0.2759309939
 H    0.3653017138   -1.5016572748   -1.7642216775
 H    2.8812322082   -1.5159508693   -1.3185627007
 H    2.7669786862    0.1814131807   -0.6523773881
 H    0.0424235382   -0.5970080219    1.6589433038
 H    3.0277045713   -0.8412103940    1.9900323570
 H    3.4381844419    0.6248335989    2.8377058282