20

 C   -0.0829577764    1.5670390970   -0.3445596883
 C   -0.0193296176    0.0752514530   -0.0968433342
 C    1.2652140001   -0.6733408767   -0.1801432156
 N    0.5817476469   -0.5212345562    1.1046576169
 C    1.2029334118    0.3239881782    2.0904076155
 C    0.4220161405    0.6894672773    3.3853942092
 C    0.5057994584   -0.7791793723    3.8634122131
 C    1.8853868703   -0.3406598999    3.3215428986
 O    1.7299920089    0.9517615489    4.0288979713
 H    0.8608847010    2.0703178329   -0.1240267820
 H   -0.3192842795    1.7539689160   -1.3973631090
 H   -0.8684093790    2.0363369697    0.2580219582
 H   -0.9220191604   -0.4536377443   -0.4002915564
 H    1.3075575544   -1.6827204077   -0.5809972224
 H    2.1665997630   -0.0825652074   -0.3433259806
 H    1.7910027519    1.1667972921    1.7063733547
 H   -0.3663182746    1.4288374918    3.5319870013
 H    0.4597787463   -0.9105089067    4.9449030645
 H   -0.0447011529   -1.5294084728    3.2969352072
 H    2.8541017969   -0.8369530629    3.3880926380