21

 C   -0.2502168497    1.5799452518   -0.2525919571
 C   -0.0578973102    0.0912040638   -0.0397553775
 O    0.9181994693   -0.5479135068   -0.9751335964
 C    1.8313626857   -0.6943036370    0.1484455248
 C    2.5131631792   -1.7344101304    1.1160501108
 C    1.9560732725   -0.6455703335    2.1746085958
 C    2.8447413986    0.5663272193    1.8736171559
 C    2.8083957498    0.4995756200    0.3206910663
 C    0.7425062741   -0.5755880288    1.1539417029
 H    0.6351037039    2.1754279579   -0.0305461560
 H   -0.5392947022    1.7687861046   -1.2915605527
 H   -1.0636983654    1.9289384108    0.3930428887
 H   -1.0238551391   -0.4096906382   -0.1607517149
 H    1.9996806733   -2.6922770912    1.1920921502
 H    3.5994824936   -1.8692495079    1.0743478132
 H    1.7990654349   -0.9268255717    3.2164521779
 H    2.4251794491    1.4963872955    2.2672870616
 H    3.8502738260    0.4497548631    2.2881100040
 H    3.7832814086    0.2626933547   -0.1158663810
 H    2.4562417461    1.4146727216   -0.1508688266
 H    0.2519813821   -1.5477391674    1.2499348001