17

 C   -0.2012888185    1.5920608143   -0.0256653813
 C    0.0411238327    0.0832890719    0.0687775720
 C    0.9086142005   -0.4834840744   -1.1245553797
 N    1.7287698802   -1.6188002293   -0.5936458174
 C    1.7914066251   -1.3461646502    0.7779533843
 C    0.9034103793   -0.4174369448    1.1775485024
 O    0.9186974646   -0.3825078290    2.5464448855
 C    1.8835753399   -1.2892721662    2.8634010366
 N    2.4372992911   -1.9067816618    1.8579645723
 H    0.7462580129    2.1400389337   -0.0334937625
 H   -0.7514325352    1.8420029197   -0.9390341912
 H   -0.7905840728    1.9457686484    0.8256610548
 H   -0.9348169080   -0.4260647369    0.0799200459
 H    0.2867103270   -0.8208387581   -1.9568834389
 H    1.5593525597    0.3256061664   -1.4851643484
 H    2.6257481591   -1.7095641620   -1.0562973548
 H    2.1120980624   -1.3970250217    3.9119246603