19

 O    0.0337431172    1.3742813021   -0.2775055302
 C    0.0630685616   -0.0207306535   -0.0579671494
 C   -1.3413206200   -0.5572458856    0.2393756457
 O   -2.2009739611   -0.1746183829   -0.8510244133
 C   -2.7631266453   -1.3300028003   -1.4652630685
 C   -2.2377203120   -2.4985114230   -0.6704018009
 C   -2.6058541763   -3.9085041912   -0.9893333423
 O   -1.9577385972   -4.7809374175   -0.0839871282
 C   -1.4470771144   -2.0522462037    0.3006314710
 H   -0.6698480857    1.5185315573   -0.9223246789
 H    0.4726581498   -0.5629416291   -0.9259041008
 H    0.7247865234   -0.2011169970    0.7965713181
 H   -1.7099088036   -0.0656332294    1.1533156727
 H   -3.8628802743   -1.2647498762   -1.4387556705
 H   -2.4703080999   -1.3783631491   -2.5267020116
 H   -3.7042059729   -4.0164157789   -0.9394521908
 H   -2.3247035875   -4.1284796459   -2.0349905020
 H   -2.2176159308   -5.6816582604   -0.2966026796
 H   -0.9349490411   -2.6634954558    1.0304241996