21

 C   -0.2252384382    1.5330452968   -0.2325904982
 C   -0.1682942897    0.0294905658    0.0502860753
 C    0.6917164244   -0.3123562537    1.2710183813
 C    0.7493335285   -1.8131518931    1.5544435842
 C    1.6031334714   -2.1578698620    2.7673451701
 O    2.1809770579   -1.3348586046    3.4454106908
 N    1.6693703971   -3.5158868511    3.0415007409
 C    2.3861185451   -4.0598879461    4.0942995404
 N    2.3965703022   -5.3169897825    4.2786289789
 H    0.7752170275    1.9373091670   -0.4216737635
 H   -0.8445224151    1.7515693517   -1.1079552046
 H   -0.6455538916    2.0792738328    0.6189149825
 H   -1.1864411065   -0.3540739727    0.2013371386
 H    0.2237458220   -0.4950098072   -0.8316229629
 H    1.7110696674    0.0639620538    1.1293080326
 H    0.3072720336    0.2042394685    2.1576409561
 H   -0.2599155449   -2.2163992857    1.7177076135
 H    1.1478195803   -2.3571586663    0.6866310607
 H    1.1752543568   -4.1743690152    2.4555797856
 H    2.8931521345   -3.2933113424    4.6831875594
 H    2.9671750973   -5.5489900636    5.0894555683