25

 C   -0.2235191899    1.5881594427   -0.0117321570
 C   -0.0438537062    0.0744179378    0.0860873405
 C    0.6149262007   -0.5748079959   -1.1507419077
 C    1.1620804509   -1.9191755233   -0.6479404767
 C    0.9721267119   -3.1904470228   -1.4344908132
 C    2.3423534711   -2.5661450692   -1.3290675886
 C    1.0237095732   -1.9267795450    0.8828410994
 C    0.8094124044   -0.4480259398    1.2730714249
 C    2.1389102229    0.2948200980    1.4660221289
 H    0.7314013461    2.0982934495   -0.1757983600
 H   -0.8821739734    1.8497790717   -0.8469591990
 H   -0.6699596597    1.9982356797    0.9010959684
 H   -1.0393466917   -0.3767459737    0.2031315815
 H   -0.0923573479   -0.6884991739   -1.9789374281
 H    1.4299267561    0.0622371189   -1.5178259514
 H    0.7860983212   -4.1081767263   -0.8842588837
 H    0.4555978814   -3.1328610243   -2.3877673915
 H    2.7503137644   -2.0815019548   -2.2111686155
 H    3.0846794091   -3.0630255225   -0.7120084738
 H    0.1449049750   -2.5145755429    1.1761351512
 H    1.8895701507   -2.3733984128    1.3829511913
 H    0.2397352778   -0.3735157805    2.2069656577
 H    2.7615690652    0.2579285601    0.5656178347
 H    1.9828880206    1.3472740558    1.7215901216
 H    2.7140757063   -0.1604353163    2.2791056962