17

 C   -0.1466252171    1.5186535292    0.0389629690
 C    1.3815876915    1.5235326361   -0.2371577756
 N    1.4414897246    0.1496753420    0.2818502010
 C   -0.0212864248   -0.0086730877    0.2966185339
 C    2.3150013832   -0.8043019066   -0.1586590041
 N    3.4957243313   -0.5076248496   -0.6970770155
 N    4.0018991335   -1.7550145119   -0.9328825354
 C    3.1285886242   -2.6977396773   -0.5467624507
 N    2.0400176187   -2.1423540401   -0.0491717038
 H   -0.4307166240    2.0878643622    0.9253434245
 H   -0.7846605344    1.8120876009   -0.7946666385
 H    1.6484372312    1.5901393754   -1.2999640189
 H    1.9886807775    2.2431482981    0.3204182981
 H   -0.4229028301   -0.3906092052    1.2396418140
 H   -0.3957922538   -0.6348240769   -0.5226928599
 H    4.9150172812   -1.8534550247   -1.3423656187
 H    3.3179950473   -3.7566124940   -0.6428315996