23

 C   -0.1400954753    1.5459831149   -0.0452027806
 C    0.0323342926    0.0439729140   -0.0000626810
 C    1.3636798400   -0.6121426493   -0.2571482514
 O    2.4789745098    0.2268101989   -0.1000282484
 C    2.9420758813    0.1253374441    1.2579803691
 C    3.7401868021    1.3740273724    1.5898305285
 C    1.6807614627   -0.1913589056    2.1270538428
 C    1.1250710492    0.9482133976    2.9918541640
 C    0.7170497990   -0.7827714807    1.0901726595
 H    0.8035638874    2.0583095724    0.1496650614
 H   -0.4740062005    1.8484078838   -1.0440775156
 H   -0.8884425127    1.8958973963    0.6729730885
 H   -0.8082062276   -0.4985189884   -0.4297147285
 H    1.4927946621   -1.4100173850   -0.9837010605
 H    3.6139637458   -0.7462833654    1.3202102930
 H    3.1199798177    2.2729616698    1.5427635602
 H    4.1693058500    1.3000214347    2.5939745370
 H    4.5610571133    1.4896519644    0.8767992160
 H    1.9509300360   -1.0031364726    2.8130219777
 H    0.8718977268    1.8374599203    2.4122822302
 H    0.2145314966    0.6181234899    3.5022568439
 H    1.8450518720    1.2437205318    3.7620103113
 H    0.2274901318   -1.7145953783    1.3509553129