21

 C   -1.0471146939    0.5324984177   -1.4824978407
 C    0.0337870938   -0.3698266422   -0.9043545257
 C    1.4772348963   -0.3005260641   -1.4642690281
 O    1.7394910514    1.0189582532   -1.9127514857
 C    1.9999146928   -0.5855862273   -0.0237435451
 C    3.2871705932    0.0707298373    0.4547761729
 C    0.6028042383   -0.1326651608    0.5432814096
 C    0.5549875055    1.2985436281    1.0138512538
 O    0.1474313595    1.6329887768    2.1002549885
 H   -0.7133787771    1.5694062920   -1.5546562746
 H   -1.3242744010    0.2045055809   -2.4898715652
 H   -1.9481018239    0.5010755703   -0.8609359481
 H   -0.2943083049   -1.4133434081   -0.9508959079
 H    1.7447290870   -1.0303441405   -2.2402874818
 H    2.6760893560    1.0855949055   -2.1239573786
 H    2.0692195366   -1.6706050682    0.1086677703
 H    3.2936236861    1.1464696325    0.2571472697
 H    3.4203165603   -0.0688353430    1.5323045058
 H    4.1587000713   -0.3695254782   -0.0436956493
 H    0.1829685256   -0.7556661842    1.3360879997
 H    0.9286838770    2.0496690725    0.2875290206