23

 C    0.2296690972    1.4614519924    0.4763033957
 C    0.1133509256    0.0400645590   -0.0974432097
 C    1.0416856605   -0.9306914531    0.6445292294
 C   -1.3387549569   -0.4406198213   -0.0109854000
 O    0.3712726089    0.0443365821   -1.5176920062
 C    1.6472649978    0.4188787894   -1.9955589748
 C    2.5095654334   -0.7670830621   -2.3664654043
 C    3.9562385788   -0.6199887039   -2.5652362756
 O    3.4406268622   -1.2552282834   -1.3946448569
 H    1.2606031725    1.8276451474    0.4694586246
 H   -0.3889332920    2.1549469512   -0.1009187069
 H   -0.1109195758    1.4783316831    1.5162277334
 H    0.7845556092   -0.9576443179    1.7084959267
 H    0.9381242879   -1.9423499049    0.2412866592
 H    2.0911191488   -0.6419500294    0.5537793410
 H   -2.0002592410    0.2440597403   -0.5493184729
 H   -1.4348155533   -1.4325166758   -0.4610904396
 H   -1.6666438795   -0.4968870056    1.0310622903
 H    1.4737252271    1.0117943237   -2.9045540199
 H    2.2003771030    1.0520655236   -1.2910290590
 H    1.9861125342   -1.5513975994   -2.9143031941
 H    4.4778307971   -1.2715740046   -3.2645256773
 H    4.4258761540    0.3496128093   -2.4006694930