14

 C    0.0112121773    1.4744480967    0.0357086411
 N    0.1839377810    0.0349317443   -0.0258314491
 C    0.6547987755   -0.6847799915   -1.0582012243
 N    0.7368874567   -1.9910749226   -0.9197065864
 C    1.2165336493   -2.7044466220   -1.9766336007
 O    1.3705537969   -3.8993410527   -2.0555639956
 N    1.5647774295   -1.8916542394   -3.1028808272
 N    1.4621214720   -0.5784602304   -3.1896733912
 N    1.0109299109    0.0646734357   -2.1879415908
 H    0.6131266596    1.9008513754    0.8454701866
 H    0.3295359475    1.9085598235   -0.9098283513
 H   -1.0395638531    1.7297246350    0.2104872174
 H   -0.0664938823   -0.5232994395    0.7769816150
 H    1.9290218991   -2.3494388227   -3.9281498035