19

 C   -0.1609991019    1.5597449938   -0.0299071502
 C    0.0061735194    0.0476877402   -0.0102940652
 O   -1.2439201689   -0.5811440898   -0.2541897323
 C    1.2400858118   -0.6020743495   -0.6986549560
 C    2.1283053988   -0.1790998485    0.5232274715
 C    3.1120005898   -1.3183015518    0.7580058165
 O    2.2735824444   -2.4570687662    0.5176309840
 C    1.0321003516   -1.8574269469    0.2072103138
 C    0.7626724329   -0.6367574600    1.1460165859
 H    0.7645320606    2.0939597504    0.1940186300
 H   -0.4986040060    1.8929146739   -1.0198890676
 H   -0.9205295094    1.8605440638    0.6982888938
 H   -1.6252150557   -0.1908336131   -1.0474181847
 H    1.5227832455   -0.5815981097   -1.7529915135
 H    2.4873312720    0.8420924292    0.6365790299
 H    3.9558543598   -1.3130379133    0.0563611869
 H    3.5062429746   -1.3463051530    1.7819113081
 H    0.2741898776   -2.6046964741   -0.0014767138
 H    0.4934044732   -0.6570669755    2.2029427128