15

 C    0.0485994496   -1.1039908282    0.1430178187
 C   -0.0369249085    0.0922762811    0.0539601299
 C   -0.1012095684    1.5068265284   -0.0504510764
 N   -1.1814996307    2.1934445969   -0.0946406059
 C   -0.7351242192    3.5896567448   -0.0352989327
 C   -0.1619539587    3.7957839115    1.4138411104
 C    1.2057108036    3.3999379566    0.8576946872
 C    0.7442073868    3.5887623767   -0.5421360935
 N    1.1417168270    2.2437498887   -0.1165514148
 H    0.1123859056   -2.1616060047    0.2197817592
 H   -1.4705281597    4.2948821828   -0.4131151617
 H   -0.1526481377    4.8538879141    1.6859696132
 H   -0.6176441681    3.2007103729    2.2094155513
 H    2.1742358683    3.5601014072    1.3140269271
 H    1.1986000901    4.0471626511   -1.4127445720