21

 C   -0.0915278044    1.5781549741    0.0299269134
 C   -0.0293936603    0.0447139210   -0.0074805827
 C    0.6558700321   -0.4881361551   -1.2426097591
 C    0.1139518751   -0.3410794928   -2.6776671149
 C    1.1931089814   -1.3976235575   -2.9849780828
 O    2.4069834156   -0.6526447729   -2.7885649938
 C    2.2484442741   -0.4278896066   -1.3796454760
 C    2.3336251569   -1.8632834800   -0.8133417682
 C    0.9874651862   -2.0075055722   -1.5349689436
 H    0.9113036107    2.0176263240    0.0148550056
 H   -0.6382572620    1.9730652831   -0.8324560990
 H   -0.5965072414    1.9291437896    0.9349013681
 H    0.4859928546   -0.3207194914    0.8903131901
 H   -1.0479607551   -0.3624055961    0.0412801427
 H   -0.9030079770   -0.7401939186   -2.7444270498
 H    0.1936919553    0.6122248458   -3.2068755374
 H    1.2367150573   -1.9837395884   -3.9013582577
 H    2.8666392543    0.4030139301   -1.0421634187
 H    3.1909762737   -2.4620342641   -1.1299735307
 H    2.2096032504   -1.9083013797    0.2715284969
 H    0.2794309024   -2.8233891925   -1.3971710025