21

 C    0.2206034545    1.5132938904   -0.0994128130
 C    0.1132135077    0.0161703295   -0.0576677184
 C   -0.9227184119   -0.7224471768    0.7428001935
 C    0.5359309197   -0.9699954369    1.0337900979
 C    1.1627312391   -1.9109952143   -0.0293494775
 C    0.6941482241   -3.3663074808   -0.0542956352
 C    0.6708739602   -0.9270749901   -1.1380842422
 C    2.6697439791   -1.8689904245    0.1449886636
 O    3.4411000355   -1.1919342047   -0.4847059680
 H    1.2435999244    1.8309015376   -0.3289376351
 H   -0.4394395254    1.9367014972   -0.8663689688
 H   -0.0633915958    1.9570055350    0.8606861002
 H   -1.4358662835   -0.1343729758    1.4982704325
 H   -1.5446299888   -1.4889937687    0.2862097145
 H    0.9616565330   -0.7721104242    2.0122293655
 H   -0.3971126899   -3.4277685874   -0.0434194996
 H    1.0500968629   -3.8802785658   -0.9541465351
 H    1.0665983431   -3.9174581554    0.8172338736
 H   -0.0630584214   -1.3304191198   -1.8430447035
 H    1.5162033818   -0.5078783946   -1.6869110540
 H    3.0367771516   -2.5335945001    0.9632098290