21

 C   -0.0853582248    1.6154476015    0.0140688653
 C    0.0591553015    0.0918394127   -0.0183270551
 C    0.8804615231   -0.4582081506   -1.1682464735
 C    1.6568442024   -1.4731193675   -0.7847514802
 C    1.5150919655   -1.7456787459    0.6700883606
 C    1.2760664602   -3.1491757514    1.1965722213
 C    2.5727106072   -2.4471238705    1.4892955836
 C    0.7645491906   -0.5268920621    1.2333991175
 O    1.6460607449    0.3835319971    1.8804337612
 H    0.8870335296    2.1100829169    0.0802043208
 H   -0.5863183120    1.9697972177   -0.8929703393
 H   -0.6773982436    1.9375608605    0.8758829706
 H   -0.9515926007   -0.3404310962   -0.0800800410
 H    0.7956687695   -0.0781370920   -2.1806904567
 H    2.3056145202   -2.0585616875   -1.4279813887
 H    0.5628476354   -3.2690268323    2.0057022504
 H    1.2799280071   -3.9649847513    0.4810888473
 H    3.4683966684   -2.7882950568    0.9799105669
 H    2.7411237995   -2.0716750561    2.4925749021
 H    0.0401297880   -0.8012738476    2.0050594699
 H    2.3947726381    0.5272320514    1.2906490368