19

 C   -0.3705997902    1.4584925885    0.0696044675
 C   -0.0366820466   -0.0270295947   -0.0097924438
 C    1.1428772299   -0.4335725471   -0.9819565339
 N    1.8415633368   -0.9536601403    0.2132197039
 C    2.8403906738   -1.5578778453    0.9078223488
 N    2.5103322048   -1.6115120350    2.1868368387
 C    1.2598071636   -1.0326649884    2.3346642700
 C    0.5944431006   -0.9362532501    3.6686802587
 C    0.8468335220   -0.6222529719    1.0889157255
 H    0.5304117585    2.0553991941    0.2425419626
 H   -0.8436538847    1.8052538396   -0.8554481628
 H   -1.0642293398    1.6538370967    0.8933110873
 H   -0.9433885189   -0.6085205307   -0.2060907855
 H    0.9100380007   -1.2018864103   -1.7233585290
 H    1.6593246292    0.4035511538   -1.4594976552
 H    3.7548608191   -1.9284803461    0.4720502265
 H    1.1903273279   -0.3396456067    4.3682400434
 H   -0.3920918447   -0.4722929907    3.5822456731
 H    0.4670186182   -1.9263355553    4.1196588741