17

 C   -0.2926854045    1.3172277171    0.0168713452
 C   -0.0488535054   -0.1497925378    0.0664030635
 O    0.9446185776   -0.7440519205   -0.7669663124
 C    0.3052249977   -2.0305339454   -0.5153913980
 C    0.6127982929   -2.2866937634    0.9802565021
 C   -0.2807793054   -1.0694615215    1.2413545975
 C   -1.0277226220   -1.3190618682   -0.0953533678
 C   -2.4457608819   -1.3016022157   -0.4186422047
 O   -3.2489241270   -0.5761687392    0.1313911949
 H    0.5224389698    1.8643019123    0.5018450826
 H   -0.3734443733    1.6580978242   -1.0188222272
 H   -1.2283803560    1.5475593768    0.5331050910
 H    0.4718890192   -2.7591232851   -1.3052188969
 H    0.1522605992   -3.2072919975    1.3453539295
 H    1.6660066802   -2.2321977474    1.2710619128
 H   -0.7427660375   -0.7385588198    2.1622722087
 H   -2.7569270137   -1.9912642590   -1.2340102608