15

 O    0.6453834104   -0.1014286662   -0.5668714190
 C    0.5313305056    1.0361066492   -0.1882848042
 C    1.3707939192    2.1966924326   -0.7089904653
 N    2.5163039517    1.7869918442   -1.4917055597
 C    3.7780531855    1.7201465763   -0.7419927983
 C    3.7583455047    0.9020013503    0.4767874371
 C    3.6949706303    0.2452235625    1.4822391329
 C   -0.5158718695    1.4122495483    0.7830629540
 N   -1.3180993522    1.7431290598    1.5474646631
 H    0.6794498514    2.8100951071   -1.3114041547
 H    1.6699612718    2.8292947890    0.1336280001
 H    2.3176545241    0.8775979051   -1.8995110652
 H    4.5461467578    1.3466301106   -1.4276079333
 H    4.0749652912    2.7440879328   -0.4820301436
 H    3.6518840179   -0.3489329317    2.3618731960