17

 C   -0.0134144763    1.5503273351    0.0263886724
 C    0.0270439543    0.0394588521    0.0274497761
 C    0.9742722674   -0.7953133727   -0.9127970237
 C    0.6147517488   -1.9275093305    0.1075665329
 C    0.6639642983   -0.8021599398    1.1954227087
 C   -0.9018337577   -2.0260213544   -0.1159811476
 C   -1.2844135120   -0.7485045220   -0.1681385959
 H    0.9845932040    1.9756683642    0.1748542234
 H   -0.4016877734    1.9352392339   -0.9236081694
 H   -0.6596077591    1.9295712547    0.8263982841
 H    0.6597206579   -0.9326549073   -1.9504720496
 H    2.0209348274   -0.4756811329   -0.8598275992
 H    1.1945328859   -2.8461988085    0.1899215242
 H    1.6812002274   -0.4831721733    1.4483087267
 H    0.0638969235   -0.9458044701    2.0975648317
 H   -1.4820581216   -2.9336627592   -0.2043300859
 H   -2.2649262148   -0.3148398593   -0.3110462289