18

 C    0.5497011981    0.5708147890    0.4794671527
 O   -0.1098947339   -0.5588040201   -0.0696759429
 C   -1.5285568820   -0.4427883111   -0.1104260726
 C   -2.0486578134   -1.6046965154   -0.9678615401
 O   -2.3652499288   -2.7630836397   -0.1934342125
 C   -1.6677047792   -2.8169335580    1.0050143254
 O   -2.0614436075   -1.7443754766    1.8775291078
 C   -2.1092008788   -0.5177151928    1.2930036199
 N   -2.5741996016    0.5084314362    1.8706814199
 H    1.6203653628    0.3645225045    0.4190534223
 H    0.3229458043    1.4792996300   -0.0967790255
 H    0.2700073687    0.7478201385    1.5248780616
 H   -1.8194596154    0.5209264013   -0.5449927150
 H   -2.9724722206   -1.3170475199   -1.4761929253
 H   -1.2832699610   -1.8407186766   -1.7180181893
 H   -1.9547671207   -3.7357101701    1.5172242485
 H   -0.5824787658   -2.7658895449    0.8540275318
 H   -2.9078055950    0.2640360858    2.8067592333