23

 C    0.1097975403    1.4501136557   -0.3472471316
 C   -0.0641439225    0.0352678397    0.2130369156
 C   -1.4890397625   -0.5487688691    0.0794521315
 C   -2.5294074864    0.3072419685    0.8046977004
 O   -1.8866685704   -0.5498177659   -1.2997190874
 C   -1.4733462159   -2.0055657445    0.6318707849
 C   -2.8308110021   -2.7040448748    0.5806171343
 C   -3.2037603802   -3.3922597336   -0.7167234015
 O   -3.5742416638   -2.6858488673    1.5363367662
 H    1.1666479597    1.7329664530   -0.3513739754
 H   -0.2654376399    1.5107401518   -1.3725437022
 H   -0.4269168709    2.1929042380    0.2495002999
 H    0.6261601759   -0.6461743748   -0.3057483555
 H    0.2291422203    0.0095388310    1.2692629393
 H   -2.5642688584    1.3082021874    0.3700330791
 H   -3.5239284391   -0.1347817443    0.7227551979
 H   -2.2856920307    0.3904283393    1.8673726584
 H   -1.1856589229   -0.9722830636   -1.8090110175
 H   -0.7320644344   -2.5796601755    0.0611777698
 H   -1.1571515932   -1.9839641021    1.6786664450
 H   -2.4679839422   -4.1664143184   -0.9642359926
 H   -4.1949598370   -3.8394394506   -0.6328589876
 H   -3.1830381938   -2.6542992699   -1.5252302810