21

 C   -0.2124646285    1.5597329303    0.0379561845
 C    0.0051782533    0.0498159782    0.0193119216
 O    0.5930510198   -0.3473753582   -1.2220492587
 C    1.6767431654   -1.2710343427   -1.0268418932
 C    2.9888705647   -0.5203389486   -1.2915401490
 C    3.1677968160    0.3528551358   -0.0228471660
 C    2.4108584586   -0.4063251318    1.0747935156
 C    0.8927430231   -0.5340607607    1.1021562829
 C    1.7213070504   -1.6112088005    0.4708258165
 H    0.7336383432    2.1047851132    0.0042437106
 H   -0.8166585480    1.8633280186   -0.8217749666
 H   -0.7459705589    1.8509600632    0.9489681546
 H   -0.9817365478   -0.4361887057    0.1085729975
 H    1.5223806655   -2.1373761055   -1.6774646893
 H    3.8115589058   -1.2409668033   -1.3698587617
 H    2.9475020232    0.0536939988   -2.2207966270
 H    4.2223439772    0.4535833379    0.2499205156
 H    2.7864423401    1.3657034898   -0.1763658220
 H    2.8860866569   -0.4944647760    2.0460992901
 H    0.4405840727   -0.6917079390    2.0761158376
 H    1.8009282074   -2.6293536739    0.8295673164