19

 C    0.5643172135    1.3071024910   -0.3056083666
 C   -0.0735927084    0.0138209185    0.1906880245
 O   -0.2351154083   -0.9268825156   -0.9044402035
 C    0.7517082984   -1.7988453985   -1.2488334217
 N    0.6252947223   -2.5803045473   -2.2395317726
 C    2.0056971075   -1.8172942568   -0.4023366592
 C    1.6972047401   -1.6159890022    1.0705275190
 N    2.0371093089   -0.2971978483    1.6248950590
 C    0.6241026839   -0.6382380860    1.3790811819
 H    1.6103445673    1.1624874751   -0.5803307622
 H    0.0113560349    1.6799792805   -1.1714778587
 H    0.5348802238    2.0624300363    0.4855486470
 H   -1.1097259204    0.2213140551    0.4730234938
 H   -0.2713661772   -2.4122345805   -2.7015936656
 H    2.5145755032   -2.7612956971   -0.5976951545
 H    2.6713208821   -1.0119607055   -0.7328025731
 H    1.7956869637   -2.4845391082    1.7151966072
 H    2.2372409713   -0.3715054068    2.6187440295
 H   -0.0069847665   -0.8279468435    2.2422951658