22

 C    0.1319055093    1.3565268851    0.0033112418
 O   -0.0584460675   -0.0365936588    0.0940949263
 C   -1.4029699329   -0.5328598439    0.0472137849
 C   -2.2120363244   -0.0727089654    1.2694563533
 C   -2.1092076894   -0.1269121886   -1.2538855073
 C   -1.2009258294   -2.0781159324    0.0410292040
 C   -0.3888687043   -2.6089281774    1.2196696594
 O   -2.4490737142   -2.7566319640   -0.0794445386
 H    1.2095877489    1.5263385116    0.0755611033
 H   -0.2184820624    1.7705961591   -0.9521149241
 H   -0.3572637001    1.9071154965    0.8194103548
 H   -2.4423886115    0.9949754717    1.2179129964
 H   -3.1682331840   -0.6032395667    1.3078471076
 H   -1.6672074069   -0.2576589961    2.1991217609
 H   -1.4618994941   -0.3292998956   -2.1131990981
 H   -3.0238694871   -0.7122706268   -1.3674944856
 H   -2.3769958711    0.9335765685   -1.2639528937
 H   -0.6603620863   -2.3062947793   -0.8850154568
 H   -0.9229691973   -2.4688925059    2.1676771257
 H   -0.2080689441   -3.6797852017    1.0908811799
 H    0.5676854438   -2.0893851903    1.2925472897
 H   -2.8123605750   -2.8637423495    0.8053956962