19

 C   -0.0074516259    1.5786316410    0.1543159631
 C    0.0122585833    0.0505859966    0.0399947154
 O    0.7002283220   -0.5406692324    1.1336389343
 C   -1.3832011298   -0.5280811290   -0.0459261889
 C   -1.7041273420   -2.0574127502    0.0337295305
 C   -2.9916502027   -1.4085612503    0.6156107524
 O   -2.1345789229   -0.3833667887    1.2242957385
 C   -3.5402750215   -0.6572594928   -0.6130826261
 C   -2.4396583388   -0.0555481448   -1.0673225632
 H    1.0100749865    1.9463493619    0.3067724576
 H   -0.4155345494    2.0438145166   -0.7487895767
 H   -0.6244127533    1.8872833998    1.0038867175
 H    0.5670233135   -0.2459969676   -0.8592731790
 H    0.0834842060   -0.5125992315    1.8769290258
 H   -1.7782330492   -2.6225348301   -0.8970049236
 H   -1.0982327519   -2.5682857950    0.7838882322
 H   -3.6695365130   -1.9024873813    1.3098754841
 H   -4.5552494068   -0.6532556049   -0.9821584798
 H   -2.2818028041    0.5884675726   -1.9196114440