11

 N    0.0567111807    1.3312539613    0.0901256717
 C   -0.0436332199   -0.0109378594    0.0296867657
 N   -1.1630875512   -0.6347872572    0.0120036711
 C   -1.1509994206   -2.0336843378   -0.0094239360
 O   -2.1583048473   -2.6883833003   -0.0167515417
 N    0.1311339965   -2.6914847821   -0.0277316568
 C    1.1621693380   -1.9681373888   -0.0160151244
 O    1.1934981043   -0.5961714124    0.0153303611
 H    0.9441458586    1.7749878846   -0.0698851828
 H   -0.7918644485    1.8606664748   -0.0154881039
 H    2.1746112793   -2.3624562827   -0.0295137140