16

 O    0.4046591641    1.3661457387   -0.1530933084
 C    0.1699627044    0.0203354542   -0.0652598769
 C    0.1507565168   -0.8328348601   -1.1427674591
 N   -0.0775986834   -2.0991430563   -0.6460101576
 C   -0.2080478871   -2.0590935465    0.7109875392
 C   -0.0573568598   -0.7477716589    1.1171799194
 C   -0.0949080026   -0.2474011028    2.5053626438
 C   -1.2953471313   -0.3350549627    3.3639392116
 O   -0.1979837965   -1.2297447184    3.5395040935
 H    0.0494034534    1.7940341656    0.6308628629
 H    0.2796678586   -0.6413408103   -2.1940499123
 H   -0.1220732088   -2.9323100886   -1.2041548782
 H   -0.3677891525   -2.9470554588    1.2991360090
 H    0.6111362444    0.5550704417    2.7347979723
 H   -1.4459882127    0.3821495549    4.1708431626
 H   -2.1991562872   -0.7802935518    2.9513339583