23

 C   -1.1117515734    1.9809444566    0.7220382806
 C   -0.6208254704    0.5545396062    0.4619006579
 C   -1.7648275062   -0.4165862155    0.1555199580
 C   -1.2875632624   -1.8567885525   -0.0799225745
 O   -0.6795883227   -2.2994958725    1.1276453579
 C    0.0007801926   -3.5293573837    1.0102507070
 C   -2.3891720298   -2.7338512727   -0.5006352545
 C   -3.3012602201   -3.4443812132   -0.8391607216
 C   -4.4044217795   -4.3011077332   -1.2500188935
 H   -0.2772257543    2.6559431974    0.9363212379
 H   -1.6505692479    2.3822059177   -0.1439072877
 H   -1.7943321077    2.0141691599    1.5785237693
 H    0.0854799665    0.5571207122   -0.3795555218
 H   -0.0654170980    0.1841583561    1.3292022198
 H   -2.4832739231   -0.4319867511    0.9834697163
 H   -2.3136520303   -0.0905612824   -0.7355601155
 H   -0.5246724871   -1.8494504627   -0.8799234427
 H    0.4378843760   -3.7472310534    1.9876671797
 H   -0.6781022819   -4.3458981640    0.7288060996
 H    0.8085838079   -3.4755157049    0.2630164790
 H   -4.0686992936   -5.0881988818   -1.9341949454
 H   -4.8702676863   -4.7876801911   -0.3860683261
 H   -5.1824327883   -3.7249256614   -1.7629435500