14

 O    0.4751804687    1.0234557347    0.7624597720
 C    0.1827200477   -0.2238536284    0.3378788614
 N    0.3251195158   -0.6021057109   -0.9218843705
 N   -0.0692743663   -1.8984674916   -0.9270901551
 C   -0.4401468861   -2.3474378894    0.2938951158
 C   -0.2904174880   -1.2804948007    1.1543510223
 O   -0.6331668367   -1.2732005877    2.4793292952
 C    0.2510847347   -0.7227628983    3.3564245668
 N   -0.0623271837   -0.6543637857    4.5734520973
 H    0.7538861528    1.5315356777   -0.0099230649
 H   -0.0604584811   -2.4045602163   -1.7942840832
 H   -0.7886602051   -3.3515243660    0.4707913941
 H    1.1783949233   -0.3880498887    2.8814450810
 H    0.6958562641   -0.2281713186    5.1021945378