16

 O   -0.1934797675   -0.0616101355    0.3751363790
 C   -0.1159020649    1.1187413674    0.1117486226
 N    1.0375331790    1.7916575037   -0.1622401111
 C    2.3369159215    1.1645340962   -0.1717341200
 C    3.2969065213    1.4747042673   -1.3421734406
 C    3.7748444728    2.8194470759   -0.6925879383
 O    5.1903824895    2.5019590685   -0.7822016554
 C    4.5444651071    1.2401418060   -0.4355893145
 C    3.5074178113    1.8829617075    0.5363368472
 H   -0.9983840919    1.7874838155    0.0656858145
 H    0.9675308377    2.7763997741   -0.3670823678
 H    2.1881313498    0.1131351572    0.0733682860
 H    3.2058743315    1.2529859378   -2.4048419003
 H    3.4633072628    3.8467767395   -0.8809666891
 H    5.1554331763    0.3480067497   -0.3101483310
 H    3.6534928637    2.1210492393    1.5892820287