15

 C    0.0367148192    1.4951311267    0.1199585203
 C    0.0013553017   -0.0019743407    0.0578897362
 C   -1.1109046595   -0.7507368156    0.1406461701
 C   -1.0607055856   -2.1993179279    0.0718946257
 N   -2.1027417729   -2.9239852806    0.1484132752
 O    0.1870270847   -2.7780879408   -0.0832541803
 N    1.3611293900   -2.0237223343   -0.1721987386
 C    1.2426043002   -0.7457358640   -0.1037913689
 O    2.3704926084   -0.0092209791   -0.1886187262
 H    0.6601339419    1.8352409870    0.9533700162
 H    0.4794640711    1.9118275300   -0.7906580009
 H   -0.9693727455    1.9011879754    0.2420343716
 H   -2.0967929912   -0.3182481478    0.2620935455
 H   -1.8587591942   -3.9134985062    0.0796354613
 H    3.1084245917   -0.6278460921   -0.2924660770