19

 O    0.1363970388    0.5068846758    0.8926308641
 C   -0.2072778871    0.1537471054   -0.4415398867
 C   -1.5241685064   -0.5736194338   -0.4096239374
 C   -1.8077241536   -1.6666161338   -1.3910927045
 C   -1.5424859339   -2.0178518319    0.0550970283
 C   -0.4166374808   -2.8388347557    0.7105655740
 C   -1.4550871702   -3.4006053037    1.7383598357
 C   -2.5463066706   -2.5796980480    1.0194100547
 O   -3.7297917595   -2.4424765145    1.1609982570
 H    0.9166013863    1.0689387985    0.8632369488
 H   -0.2956590140    1.0477471111   -1.0784978666
 H    0.5615023463   -0.4945245502   -0.8918266759
 H   -2.3699776434    0.0212381286   -0.0758706890
 H   -2.8254098275   -1.7913290779   -1.7455867829
 H   -1.0351851516   -1.9273358507   -2.1083838637
 H    0.0285064439   -3.6010793927    0.0670377597
 H    0.3730492941   -2.2319504592    1.1561602980
 H   -1.6218880957   -4.4809576870    1.7107494657
 H   -1.2968508151   -3.1000634702    2.7776686908