15

 C   -0.0896945943    1.5187062366    0.0342708524
 C   -0.0001946953    0.0198568742   -0.0237621416
 C   -0.0674022333   -0.6709029126   -1.2264214173
 C    0.0281301667   -2.0609672570   -1.1442167175
 O   -0.0287587018   -2.7954150098   -2.2649323437
 N    0.1751468824   -2.7055990866    0.0076111049
 C    0.2264855265   -1.9282459411    1.0975712536
 O    0.3747160841   -2.5587970384    2.2721809401
 N    0.1484180247   -0.6097448110    1.1556708822
 H    0.8112137850    1.9277187830    0.5022037446
 H   -0.2080511924    1.9590070346   -0.9579010314
 H   -0.9354832156    1.8172798838    0.6614893313
 H   -0.1866474934   -0.1766998657   -2.1803912911
 H    0.0548857169   -3.7202668005   -1.9924880347
 H    0.4160327897   -3.5031834495    2.0722389182