15

 C    0.0915564899    0.8431098812    0.5614591580
 O   -0.3385399326    0.5588274335   -0.7750546896
 C    0.4262599491   -0.3482464154   -1.4248471963
 C    0.8330654126   -1.6329049131   -1.1524517460
 N    0.5928230910   -2.3817633678    0.0200270352
 N    1.5900635160   -2.1138159200   -2.1954802288
 C    1.6314760931   -1.1509543840   -3.0898311782
 N    0.9352174190   -0.0555055000   -2.6757040599
 H    0.1518424742   -0.0739063516    1.1558882648
 H    1.0733608473    1.3317559402    0.5561337428
 H   -0.6533430333    1.5192343970    0.9850095957
 H   -0.3835178033   -2.6473485761    0.1037388866
 H    1.1408623366   -3.2343812865   -0.0228357273
 H    2.1354772847   -1.1915610611   -4.0431095232
 H    0.7929599755    0.8116848837   -3.1656841538