22

 C   -0.0018215895    1.3771769431    0.0450818425
 O    0.0026387339    0.0054642760   -0.2812505679
 C   -1.2319369996   -0.6257130276   -0.0890086447
 C   -1.3543352973   -2.0108492132   -0.7020180005
 N   -0.4299063688   -2.9128354346    0.0358526766
 C   -1.7615064734   -2.6066229645    0.6063117396
 C   -2.7603733777   -3.6738515814    0.9299407119
 C   -1.5888944628   -1.2533475500    1.3288789188
 C   -0.5493932223   -1.1768507030    2.4383449523
 H    0.9951271413    1.7659690612   -0.1764781614
 H   -0.7407478512    1.9334509580   -0.5539735183
 H   -0.2196408776    1.5548239657    1.1080974093
 H   -2.0515162420    0.0237395069   -0.4320038665
 H   -1.6695336422   -2.2547756033   -1.7101224042
 H   -0.5003069688   -3.8244888232   -0.4169910038
 H   -2.8246001379   -4.4130236354    0.1234601434
 H   -2.4900040764   -4.2068733323    1.8493114272
 H   -3.7591752480   -3.2478728953    1.0756821551
 H   -2.5568899913   -0.8728128550    1.6717803132
 H    0.4213420999   -1.5152738894    2.0726645650
 H   -0.4429900726   -0.1541612574    2.8144358851
 H   -0.8401409256   -1.8086166352    3.2855259973