19

 C    0.0295673001    1.5449620931   -0.0441699050
 C   -0.0094514895    0.0282918268   -0.0657387017
 C    0.6067853120   -0.6466085599   -1.2505324551
 C    0.1500310705   -1.9034216509   -1.3183118201
 C   -0.6857740844   -2.1181455989   -0.0817674276
 O    0.3035719775   -2.1022916091    1.0214807057
 C    0.2721642931   -0.7274497953    1.3554868370
 C   -1.2193749330   -0.5175163568    1.6938932515
 C   -1.3609563073   -0.7428106538    0.1735316307
 H    1.0654405193    1.8999170309   -0.0902874880
 H   -0.4987208257    1.9620729776   -0.9088411860
 H   -0.4186331239    1.9712051708    0.8570082866
 H    1.3532453109   -0.1881889164   -1.8893370456
 H    0.4555562498   -2.6839754187   -2.0028923278
 H   -1.2890742932   -3.0219802357   -0.0070757190
 H    1.1061698586   -0.4643313199    2.0049679193
 H   -1.6591292390   -1.2505007734    2.3731156622
 H   -1.4832840666    0.4957673623    1.9968352565
 H   -2.2564508793   -0.5127539628   -0.4049544837