14

 N    0.0903695854    1.2827806621    0.0070213921
 C    0.0112715352    0.0195495531    0.0043801679
 N   -1.2114220062   -0.6654957209    0.0119642859
 C   -1.2712060472   -2.0733077048    0.0085880273
 N   -0.2330849137   -2.8073660348   -0.0014811599
 C   -2.7074985489   -2.4295028775    0.0187896572
 C   -3.4360215435   -1.3119339340    0.0275160111
 C   -2.5265591762   -0.1235096920    0.0236638694
 O   -2.8355620880    1.0358630463    0.0292986906
 H    1.0722072353    1.5573257817    0.0002052672
 H    0.8395654338   -0.6926803285   -0.0038266288
 H   -0.4910846395   -3.7931896180   -0.0021549357
 H   -3.0461648731   -3.4566582670    0.0186252981
 H   -4.5098611333   -1.1946883856    0.0362058377