20

 C   -0.6511741588    1.0963567615    0.3193413845
 C    0.1126748007   -0.1371408468   -0.1630995772
 O    1.0368767703    0.1787968763   -1.2021948562
 C    0.9685507972   -0.7140704637    0.9457442436
 O    0.2921558280   -1.3459834654    2.0418583318
 C    1.1343544857   -2.1514827878    1.2036415792
 C    0.4513239045   -3.2286677574    0.4122569606
 C   -0.3011579409   -4.2882291629    1.1299687203
 N   -1.0148895302   -3.2674093827    0.3407806940
 H    0.0452043726    1.8731687876    0.6512192418
 H   -1.2695207157    1.5089112697   -0.4858388471
 H   -1.3111978619    0.8365279725    1.1523968568
 H   -0.6007974874   -0.8987706701   -0.5038302634
 H    0.5474055999    0.6081982002   -1.9106181522
 H    1.7801157834   -0.0499850567    1.2493918354
 H    2.0656449702   -2.4610458013    1.6820045876
 H    0.9554010949   -3.4850521004   -0.5174974110
 H   -0.3410878627   -5.2962443497    0.7277126944
 H   -0.3510051585   -4.2230660355    2.2138872018
 H   -1.3676944013   -2.5623506474    0.9868227853