17

 O    0.2636964336    0.0980821902   -0.5713109551
 C    0.2510394274    1.2876951291   -0.4804842152
 O    0.9614041693    1.9568301422    0.4468423303
 C    0.8963506199    3.3919299035    0.4514472700
 C    2.2688937200    3.9541968843    0.1379397683
 C    2.8294471603    4.1018594349   -1.3073788375
 C    1.8810192659    5.2936892905   -1.5842691778
 C    2.5140472973    5.4574044525   -0.1808889918
 O    3.8160794740    5.0672219685   -0.7670053117
 H   -0.3403247360    1.9594439714   -1.1347264982
 H    0.1250603961    3.7300209300   -0.2493836072
 H    0.5871969543    3.6880124675    1.4592640409
 H    3.0178678404    3.5534338947    0.8243154117
 H    3.1987041111    3.3326436837   -1.9852475482
 H    2.2487731916    5.9986527667   -2.3297380415
 H    0.8067385801    5.1183081237   -1.6724036246
 H    2.5022377848    6.3148971665    0.4924363476