19

 C    0.2581127113    1.6804687023   -0.0620899897
 C    0.0368572212    0.1802677949   -0.0451389688
 C    0.8166239022   -0.7231062476   -1.0399930126
 C    1.1554522962   -1.6271475934    0.1807846873
 C    2.5480208498   -1.4293714626    0.8283802587
 C    1.9077303714   -0.2702205231    1.6337879984
 N    0.5310662050   -0.6182280020    1.1386618118
 C    0.6121906447   -2.9758210633    0.1516831059
 N    0.1970796270   -4.0544755013    0.1129428887
 H    1.3165893222    1.9532105784   -0.1116331155
 H   -0.2317200218    2.1129221149   -0.9406900770
 H   -0.1767946325    2.1473625974    0.8279140318
 H   -1.0386383175   -0.0152256756   -0.1166690369
 H    0.2343516775   -1.1903203619   -1.8354532805
 H    1.7061303268   -0.2586214059   -1.4753086646
 H    2.8597874828   -2.2753533898    1.4422273320
 H    3.3516332052   -1.1762815851    0.1338276481
 H    1.9760888353   -0.3663543152    2.7201200355
 H    2.2534060232    0.7289974688    1.3581078673