21

 C    0.0589017993    1.3839357364    0.0956359572
 O   -0.1369127793    0.0010424606   -0.0840340360
 C    0.5889958751   -0.5650923876   -1.1532004030
 C    2.0935253107   -0.7104677670   -0.8692084853
 C    2.7682860793   -1.5019632690   -1.9962090346
 O    2.1257988899   -2.7494404843   -2.2321973751
 C    0.7673885418   -2.5732777020   -2.6174595393
 C   -0.0105137603   -1.9502662810   -1.4545964646
 O    0.0361164253   -2.8119557896   -0.3305468063
 H    1.0821824359    1.6316691466    0.4140469118
 H   -0.1611592503    1.9502454167   -0.8238869732
 H   -0.6318968601    1.7055264396    0.8789233028
 H    0.4551744223    0.0565388627   -2.0584249377
 H    2.5780811157    0.2666646874   -0.7728442363
 H    2.2151664084   -1.2347871065    0.0847839209
 H    2.7702166988   -0.9088033595   -2.9264184204
 H    3.8067566151   -1.7361382631   -1.7467902408
 H    0.6985923166   -1.9513285595   -3.5245732290
 H    0.3774275562   -3.5692651571   -2.8429705879
 H   -1.0672730014   -1.8286032748   -1.7159039663
 H    0.9102952711   -3.2209737891   -0.3384427470