20

 C   -0.3878234328    1.3656135118    0.2322736246
 C    0.0401186154   -0.0907482591    0.0447510104
 C    0.7880473983   -0.3430269420   -1.2705391326
 O    1.9497315757    0.4532034037   -1.2622107483
 C    0.9473543050   -1.8772518787   -1.5894130818
 C   -0.2316693747   -1.7830078066   -2.6078609514
 C   -0.0872756948   -0.2791670745   -2.5177986577
 N   -0.3074119926    0.7123681774   -3.2753767033
 O   -1.0182193826    0.3308666835   -4.4275374849
 H    0.4842392648    2.0232023711    0.2243702202
 H   -1.0571756893    1.6855411670   -0.5724187495
 H   -0.9121658445    1.4968562696    1.1836272972
 H    0.7111926781   -0.3974745499    0.8569702510
 H   -0.8307477064   -0.7554002528    0.0890731406
 H    2.1634003925    0.6738756762   -2.1748090206
 H    1.9028658560   -2.0710810144   -2.0814222217
 H    0.8270919144   -2.5603685643   -0.7461736804
 H   -0.0820246097   -2.2075554611   -3.6025647354
 H   -1.1843036199   -2.1505817873   -2.2149929868
 H   -1.0939541430    1.1641730003   -4.9051201896