25

 C   -0.7553332434    0.7627200232   -1.1383685162
 C    0.3039555924   -0.1493692868   -0.5374861417
 C    1.7444170436   -0.0973354125   -1.1197136927
 C    2.3268209789   -0.1379960980    0.3340467899
 C    3.4018468566    0.9021637329    0.6344375784
 C    0.8918272708    0.2134890424    0.8551246064
 C    2.7048842037   -1.5609832755    0.7212385624
 C    4.0941930388   -2.1307029079    0.5789962483
 C    3.5011502701   -1.9145376662    1.9524785762
 H   -0.4130296368    1.8040819590   -1.1544893809
 H   -0.9922871429    0.4751225264   -2.1691490090
 H   -1.6864897133    0.7282019960   -0.5611998228
 H   -0.0666903590   -1.1801642805   -0.5352648825
 H    2.0488072683   -0.9032227659   -1.7935897818
 H    1.9478582876    0.8600188002   -1.6117167631
 H    3.0588442399    1.8960233077    0.3299817816
 H    3.6367344996    0.9531272803    1.7031600726
 H    4.3320165434    0.6996759911    0.0924775652
 H    0.7893201250    1.2823819763    1.0717913406
 H    0.5316907741   -0.3501372269    1.7204819589
 H    1.9125126684   -2.2703511442    0.4907574002
 H    4.1973874423   -3.1465140955    0.2128951040
 H    4.8989294694   -1.4713511094    0.2737254223
 H    3.9144850939   -1.1125278769    2.5537029454
 H    3.1975616388   -2.7820825291    2.5284578781