14

 C    0.0068212951    1.4026056463    0.0634938399
 N   -0.0694932446   -0.0432324424   -0.0072496581
 C    0.5437749658   -0.6095746659   -0.9383092048
 O    0.5002839603   -1.9838629728   -1.0101717975
 C    1.0811176268   -2.5881727261   -2.0622448283
 C    1.5279923170   -3.8694098450   -2.1459791570
 O    1.9804044580   -4.0559956606   -3.3887946814
 N    1.8106198130   -2.8384311266   -4.0799679454
 N    1.2797355035   -2.0071113757   -3.2874167924
 H    0.4307956540    1.6939903126    1.0303391979
 H    0.6091394266    1.8605201695   -0.7359863897
 H   -1.0052108219    1.8186394940    0.0197866057
 H    1.1342837576   -0.1415860885   -1.7311572665
 H    1.5741517788   -4.6924562088   -1.4549749123