18

 C   -0.0088548470    1.5729973662   -0.0300019703
 O    1.4187794542    1.5907438391   -0.2540776079
 C    1.4262640537    0.1560400753   -0.4955538773
 C    2.2629295005   -0.7332423543    0.3979094000
 C    2.2505300004   -0.5990124298    1.8770204777
 C    1.0677832981    0.1933030062    2.4014316790
 C    0.2076639993   -0.6314956721    1.4017443408
 C   -0.0164608286    0.0334401582    0.0405539878
 N    1.3712460873   -1.6248990525    1.2011800480
 H   -0.3013039832    2.1308867696    0.8659832879
 H   -0.5533051585    1.9726382906   -0.8950083840
 H    1.5985852453   -0.0555049619   -1.5568027836
 H    3.1155131732   -1.2493466507   -0.0314863267
 H    3.1165024228   -0.8970472556    2.4613171130
 H    0.8375053267   -0.0877788386    3.4315288671
 H    1.0976535455    1.2808536129    2.3219690173
 H   -0.6748867487   -1.1164905634    1.8170935259
 H   -0.7524525509   -0.4952925093   -0.5668265047