19

 C   -0.1565815429    1.5380184215    0.0367074121
 C   -0.0020937165    0.0240344036   -0.0372325573
 C    0.8211211370   -0.5789411964   -1.2171506752
 N    1.7551438421   -1.1187147411   -0.2185295109
 C    2.9078188588   -1.8731204293   -0.4021924833
 C    3.6253607058   -2.2573691602    0.8683651609
 N    3.2293145930   -2.1575075436   -1.6034260129
 C    1.0775794434   -0.5900945265    0.8785575679
 O    1.3053441166   -0.6200513814    2.0583351539
 H    0.8024998606    2.0418777799   -0.1220732506
 H   -0.8591709162    1.8986882297   -0.7207615310
 H   -0.5328131848    1.8342178023    1.0201371062
 H   -0.9666056744   -0.4735122685    0.1017615872
 H    0.3292581064   -1.3536603581   -1.8091910904
 H    1.2869047980    0.1512794374   -1.8838503836
 H    3.8985734316   -1.3693948167    1.4448403856
 H    2.9755363472   -2.8544019409    1.5146412516
 H    4.5240961469   -2.8293920537    0.6300296837
 H    4.0844636574   -2.7114991980   -1.6175535239