17

 C   -0.6551770159    1.4863069485   -0.3024317648
 C    0.0473612419    0.1739266744   -0.0149470864
 C    0.8804410525   -0.5131478070   -1.1718982931
 C    2.0357211650   -0.4029686120   -0.2002547904
 N    3.1854614586   -0.8745282150    0.2325793652
 C    3.2000869689   -0.4443468293    1.5440632436
 O    4.2773423211   -0.6687624419    2.3269395603
 C    2.0493071597    0.2273330006    1.9162996021
 N    1.3387965229    0.2853696287    0.7246187449
 H    0.0248284777    2.1926195088   -0.7877047712
 H   -1.5117764979    1.3167145216   -0.9629539974
 H   -1.0260630242    1.9434744180    0.6203053820
 H   -0.6248849578   -0.5392748230    0.4730040827
 H    0.5616207839   -1.5301724653   -1.4123510528
 H    0.9560351660    0.0699661137   -2.0937560466
 H    4.9045694997   -1.1594308251    1.7821019132
 H    1.7759940779    0.7293974744    2.8265386787