17

 C   -0.1458068281    1.5761714662   -0.0241079858
 C   -0.0043962360    0.0662775238   -0.0080457002
 C    1.2678848392   -0.5979084495   -0.6187035074
 N    2.0436539260   -0.0429947608    0.5535225885
 C    0.7803283740   -0.6240331267    1.1534297624
 C    0.9312684131   -1.8786516268    0.2405893868
 O   -0.2277874796   -2.6322295559    0.0139248124
 C    2.0740711772   -2.7605127007    0.5236976574
 N    2.9434902019   -3.5014717579    0.7054090738
 H    0.7898215704    2.0678561558    0.2450716747
 H   -0.4488493011    1.9186072144   -1.0194785229
 H   -0.9240454101    1.8917229085    0.6790470988
 H   -0.9321890308   -0.4411281799   -0.2696372110
 H    1.6501299113   -0.5617378091   -1.6399509530
 H    2.8527222499   -0.6336122635    0.7684106677
 H    0.5835490696   -0.6146412493    2.2257884944
 H   -0.0434530369   -3.3000864088   -0.6564408766