18

 O   -0.1105431077    0.0224217195    0.3081711262
 C    0.0795669583    1.0985697328   -0.1976939933
 C    1.3161160545    1.9246882973   -0.0070322122
 C    1.0711812987    3.4003820017    0.1949047833
 N    1.5242574942    2.9083065319   -1.0904446173
 C    2.9331970645    3.1777467161   -1.4502986170
 C    3.8107728280    1.9214356330   -1.3942760317
 C    3.6498737599    1.2117791722   -0.0726652685
 C    2.4931224473    1.2423510451    0.5865792747
 H   -0.6740248661    1.5911105329   -0.8523858840
 H    0.0554468908    3.7885836534    0.2299688588
 H    1.7854760903    3.9120080276    0.8373028572
 H    2.9355464102    3.6050677366   -2.4585653968
 H    3.3620881607    3.9303095299   -0.7756970632
 H    3.5534020649    1.2406824581   -2.2176761002
 H    4.8541834362    2.2117885173   -1.5556780392
 H    4.4985957706    0.6660352324    0.3288968252
 H    2.3459198848    0.7135120622    1.5219019178