23

 C    0.8772694229    0.0553906880    0.1520619271
 C    0.2663072181   -1.0528326136    1.0193741154
 C   -1.2492748490   -1.1243761898    0.8467963420
 C   -2.1636169456   -1.6736641570    1.9192283735
 C   -2.2132962667   -0.2060641868    1.5692494680
 C   -1.7741484567    0.8440560253    2.5665426265
 C    0.8380821920   -2.4244414956    0.6281620887
 C    1.0569191975   -3.4227904090    1.7486917593
 O    1.0785191551   -2.6960590445   -0.5262723416
 H    1.9581795875    0.1300219429    0.3077224762
 H    0.7099376475   -0.1632213623   -0.9052560109
 H    0.4279734192    1.0234730144    0.3884748470
 H    0.4955949087   -0.8717190486    2.0757506125
 H   -1.5291274190   -1.3697460373   -0.1750144325
 H   -2.9843966208   -2.3206446247    1.6292754910
 H   -1.7178493653   -1.9302731099    2.8765005821
 H   -3.0681096901    0.0982351532    0.9700741487
 H   -0.9251079782    0.5090968706    3.1695657593
 H   -1.4822165727    1.7755059069    2.0690749819
 H   -2.5895921974    1.0810709436    3.2588847807
 H    1.8355921072   -3.0524603759    2.4264495685
 H    0.1452674481   -3.5356703706    2.3445995417
 H    1.3593569877   -4.3876809994    1.3396169949