19

 C   -0.0141881210    1.3960039807    0.0230927516
 O    0.0210433826   -0.0164437249   -0.0398993542
 C    0.6527757508   -0.5203218741   -1.1435717613
 C    0.6118658872   -0.1882265108   -2.6306417019
 C    0.8124462995   -1.6961918169   -2.9579054563
 C    2.1380026644   -1.6938906982   -2.2003105703
 C    1.9538826248   -0.1858882343   -1.8636717809
 C    0.8425447426   -2.0343406353   -1.4710693526
 C    0.4279822978   -3.2690512292   -0.7418637874
 H    0.9984324326    1.8224790294    0.0531176702
 H   -0.5530493372    1.8234311819   -0.8343200504
 H   -0.5400319865    1.6599988828    0.9425826319
 H    0.1522909470    0.6224866103   -3.1797243297
 H    0.4828970187   -2.3134060599   -3.7846799912
 H    3.0192597626   -2.3089851372   -2.3350734478
 H    2.6581575504    0.6268228112   -1.7476950970
 H    0.8773633854   -3.3178630877    0.2564993730
 H   -0.6600925247   -3.3199818204   -0.6212371228
 H    0.7443158031   -4.1612251474   -1.2938129330