18

 C    0.1447023574    1.4949928603    0.0363198561
 C    0.0436975507    0.0088193787   -0.0105026139
 C   -0.1471675118   -0.8422754619   -1.0864767102
 C   -0.1592080262   -2.1454066332   -0.5244056630
 N    0.0096067746   -2.1132804449    0.7928835228
 N    0.1297320999   -0.8001681903    1.0774337465
 N   -0.2873491882   -0.3888262951   -2.4213696986
 C    0.2734549896   -1.2179169560   -3.4949126556
 C   -1.1967612288   -1.1238113692   -3.3085853451
 H    1.1096693569    1.8295338917    0.4345677689
 H    0.0415185687    1.8805132468   -0.9798956662
 H   -0.6423767410    1.9416641578    0.6549336469
 H   -0.2828428379   -3.0980377638   -1.0193976591
 H    0.2686995774   -0.5234066077    2.0344852453
 H    0.7622911240   -0.6699715473   -4.2958191867
 H    0.7610597673   -2.1476406915   -3.2124080981
 H   -1.7115715423   -1.9893742480   -2.8990424414
 H   -1.7965138702   -0.5061949265   -3.9715363486