14

 C    0.0218720354    1.4883808419    0.0921433047
 C    0.0469889890    0.0005185767   -0.0031872120
 C   -0.0230515061   -0.7774042646   -1.1199829019
 O   -0.1918350994   -0.5053171871   -2.4439175519
 N    0.0389998976   -2.1034543642   -0.6812067812
 C    0.1379929985   -2.0360060233    0.6695879147
 O    0.2028374632   -3.1694349525    1.3920955798
 N    0.1581046677   -0.8163682638    1.1248171916
 H    0.9634180671    1.8849968229    0.4899453433
 H   -0.1495492836    1.9324682446   -0.8924761535
 H   -0.7767559693    1.8256209894    0.7617350740
 H    0.6359730108   -0.1791270730   -2.8137179674
 H   -0.0368902697   -2.9287787791   -1.2505742496
 H    0.2552467687   -2.8912731679    2.3153892895