16

 O   -0.0301885995    1.2872385440   -0.7139491906
 C    0.0592227243    0.1869794735    0.1717927344
 C   -1.2819983458   -0.4977928206    0.3123783671
 N   -1.7293230612   -1.2382665298   -0.8840648313
 C   -1.4982463349   -1.9691496283    0.3653966455
 C   -0.3737416169   -2.9962300103    0.3619555089
 C   -0.8472293563   -4.3082975208   -0.0808813419
 N   -1.2413888852   -5.3394498053   -0.4216317314
 H   -0.3601031395    0.9337791037   -1.5487198107
 H    0.8257178891   -0.5281344886   -0.1596365828
 H    0.3791888395    0.5918676904    1.1376516642
 H   -2.0295888673    0.1063733568    0.8240143712
 H   -2.7224622330   -1.1100098066   -1.0529607715
 H   -2.3742284953   -2.2974931451    0.9213174301
 H    0.4305830587   -2.6740500388   -0.3039388830
 H    0.0493840232   -3.1002804142    1.3680285118