19

 C    0.0667695843    1.6128752734   -0.0503088146
 C   -0.0027013452    0.0715778100   -0.0308010820
 C    0.6031212984   -0.4884637927   -1.2373510397
 C    1.1259928555   -0.9098188063   -2.2339739800
 C    0.6600221769   -0.5012665392    1.2344576376
 C    0.0843161519   -0.1392987843    2.6420203854
 C    0.1835046811   -1.6315841024    3.0787457368
 C    0.4138792524   -1.9814761853    1.5989963920
 O    0.3088063391   -2.9851320106    0.9581048581
 H    1.1073735888    1.9504149147   -0.0661850332
 H   -0.4311420613    2.0076027679   -0.9394937229
 H   -0.4204300785    2.0321580755    0.8349190921
 H   -1.0619367473   -0.2223001360   -0.0114469345
 H    1.5738646814   -1.3095111491   -3.1097607687
 H    1.7404119265   -0.3139250954    1.1964154021
 H    0.6576948657    0.5791880268    3.2282199321
 H   -0.9532621414    0.2004503288    2.5831730147
 H    1.0700988557   -1.8468740781    3.6840721074
 H   -0.6838142441   -2.0943549776    3.5552606972