16

 C   -0.0477260270    1.4833387545    0.6422821876
 O    0.0114632288    0.2080009198    1.2927557009
 C    0.7537284189   -0.7145506095    0.6721777239
 O    1.3721229731   -0.5272540134   -0.3480105262
 C    0.7333437737   -2.0450820081    1.3619349401
 N    0.3188301314   -2.1331002613    2.7620291008
 C   -0.5456312817   -2.7519563068    1.7465442950
 C   -1.8562277853   -2.2060065145    1.5290110843
 C   -2.9732916186   -1.8139261717    1.3239914747
 H   -0.4782820354    1.3852664383   -0.3574382145
 H   -0.6811690152    2.1062458899    1.2731671183
 H    0.9517966242    1.9162452291    0.5538996950
 H    1.5302317194   -2.6870558432    0.9976214715
 H    0.8602921515   -2.8483115986    3.2409368631
 H   -0.4963232903   -3.8346066851    1.6412982037
 H   -3.9557722576   -1.4497040595    1.1514234017