15

 C   -0.0282300515    1.4823186943    0.0104371940
 C   -0.0209057401   -0.0351392085    0.0019588652
 O   -1.3689067784   -0.4868261056    0.0127833525
 C   -1.4853202907   -1.8674508663    0.0062853775
 C   -2.9481187417   -2.2636782267    0.0182856281
 O   -3.8832825067   -1.5124038005    0.0314271893
 C   -3.1475482186   -3.7333767632    0.0120874922
 N   -3.2914724013   -4.8805605505    0.0070436253
 H    0.9968009686    1.8639983196    0.0023752808
 H   -0.5513300705    1.8679638428   -0.8686390111
 H   -0.5337343522    1.8581531871    0.9039384272
 H    0.4949928075   -0.4203247986   -0.8926042479
 H    0.5125434580   -0.4301538369    0.8818209014
 H   -1.0213135843   -2.3362880509   -0.8830811587
 H   -1.0041966781   -2.3460384662    0.8812471142