19

 C   -0.0767156536    1.4592689665   -0.1524864627
 C    1.3478612811    1.9339811237    0.2646604891
 C    2.2414137361    0.7388393019   -0.1101618424
 C    3.5090970259    0.3286573940    0.6831058207
 C    3.4083085888   -1.2004968588    0.7728190222
 O    2.4678470214   -1.6429070907    1.7528356103
 C    2.0590963479   -1.6551636648    0.3645383626
 C    1.2859888653   -0.4344995640    0.0293548318
 C    0.0127319066   -0.0523632350   -0.0160452108
 H   -0.8645464000    1.8934272363    0.4723970233
 H   -0.3077840612    1.7526953208   -1.1876791090
 H    1.6396498085    2.8758177876   -0.2081948240
 H    1.3734990704    2.0798292457    1.3509439741
 H    2.5286576076    0.8190071336   -1.1708872421
 H    4.4332384559    0.6419730781    0.1889396489
 H    3.5121599282    0.7450989379    1.6963328226
 H    4.2940907204   -1.8237536704    0.6707410657
 H    1.8480830283   -2.6383709218   -0.0459269527
 H   -0.8578745776   -0.6943526408    0.0529828926