16

 C   -0.1068987033    1.4222837761   -0.1433238892
 O   -0.1175260907    0.1042781562    0.3684121814
 C   -1.3081802478   -0.5841722035    0.1311348656
 C   -1.4029890984   -1.2025273202   -1.3027282948
 C   -0.9434281982   -2.5396596216   -0.7081859159
 O   -0.5108776295   -3.5557827475   -1.1465275904
 C   -1.2017929914   -2.0200006916    0.7467458614
 C   -0.2341695748   -2.2795230231    1.7905446628
 N    0.5404592845   -2.5066763457    2.6173023040
 H    0.8557134029    1.8590255315    0.1278438363
 H   -0.2114357697    1.4409968637   -1.2378052164
 H   -0.9145044196    2.0271224905    0.2947553627
 H   -2.1810260737   -0.0058512082    0.4588468280
 H   -2.4198633408   -1.2620165843   -1.7038879295
 H   -0.7437744525   -0.7724520893   -2.0595664869
 H   -2.1921057970   -2.3720319431    1.0587912809