21

 C   -0.1474858152    1.4430282679   -0.0091947427
 C    0.0049111792   -0.0481570465   -0.0351933603
 C    0.9499953630   -0.8856027642   -0.8962350606
 C    0.1064275163   -2.1262276684   -0.4761237622
 C   -0.0084205457   -3.3383426400   -1.3608082523
 C    0.4071762748   -2.2489090501    1.0477976369
 C   -0.3284841468   -0.9239323286    1.2167479570
 C   -1.0645767522   -1.0944240363   -0.0912899729
 O   -2.3766335972   -0.9627625936   -0.4708196223
 H    0.7296030495    1.9298307684    0.4331527520
 H   -0.2773990003    1.8444935449   -1.0206526482
 H   -1.0243224517    1.7388556362    0.5762433984
 H    0.8262547158   -0.6511893386   -1.9587876994
 H    2.0186734251   -0.9042294117   -0.6472152598
 H    0.9597055816   -3.8444447246   -1.4611177097
 H   -0.7197715863   -4.0668727910   -0.9549251349
 H   -0.3468766752   -3.0670914653   -2.3667330313
 H   -0.1393164659   -3.0795876700    1.5070039395
 H    1.4632547608   -2.3046231980    1.3374548781
 H   -0.6749644439   -0.4471057531    2.1255529914
 H   -2.9070380356   -1.5974550473    0.0241027633