17

 C   -0.0445478959    1.4409981831    0.0298830553
 N    0.0306581535   -0.0063857020   -0.0194208504
 C   -1.0393496811   -0.6747492539   -0.0073266214
 O   -2.2850287677    0.0100926824    0.0541233864
 C   -3.4346266920   -0.6813889210    0.0683070561
 C   -3.4864027885   -2.0258517957    0.0265766244
 C   -4.7653360587   -2.8120997129    0.0418665286
 C   -2.1924771602   -2.6692128165   -0.0353555874
 N   -1.0577053308   -2.0556248645   -0.0515208201
 H    0.9681185872    1.8501526869    0.0110683220
 H   -0.6010879831    1.8555324667   -0.8221179665
 H   -0.5452373878    1.7983792307    0.9404182046
 H   -4.3009313179   -0.0284432811    0.1168381019
 H   -4.8658635366   -3.4311071592   -0.8571060290
 H   -4.8104679935   -3.4870138188    0.9043569002
 H   -5.6351779591   -2.1512808330    0.0901996521
 H   -2.1563144280   -3.7597518511   -0.0718716068