14

 N   -0.1734837445    0.9782910841    0.7536003088
 C   -0.1117803807   -0.0898464362    0.1076321653
 C   -1.1292758915   -1.0885467965   -0.3996926378
 C    0.1163819152   -1.8074758615   -0.9915386327
 O    0.9794968159   -0.7703660880   -0.4092781327
 C    0.4134345557   -3.1382078423   -0.5134491328
 C    0.6359333935   -4.2622594919   -0.1316550520
 C    0.9328123339   -5.5910181484    0.3454835300
 O    0.3214828380   -6.5811480415    0.0191265422
 H    0.7508806254    1.3832135059    0.9092436214
 H   -1.6562904865   -1.6406557140    0.3784662314
 H   -1.8397104638   -0.7042164977   -1.1317046319
 H    0.1811274171   -1.7685480309   -2.0830730610
 H    1.7854491323   -5.6360816612    1.0519331817