25

 C   -0.0632671064    1.3767827148    0.0034599472
 O   -0.0776772940   -0.0283467142   -0.0222802960
 C    0.6729059887   -0.5697005579   -1.0887578711
 C    0.5664523587   -2.0950038000   -1.0582888956
 C   -0.8902185112   -2.5450038394   -1.2259742552
 C    1.5141376768   -2.7044227147   -2.1090088671
 C    1.6371537207   -4.2137509010   -2.0454894127
 C    0.7679485655   -5.1119583178   -2.8916217485
 C    2.2383716985   -4.9748643392   -3.2002364720
 H    0.9577971622    1.7745981574    0.1209170379
 H   -0.4923063580    1.8086757548   -0.9151955782
 H   -0.6655967077    1.6968146562    0.8575442191
 H    0.2980120304   -0.1822708314   -2.0541041255
 H    1.7287493357   -0.2580390026   -1.0046523061
 H    0.9126156725   -2.4120851942   -0.0642409302
 H   -1.2652846039   -2.2843390082   -2.2238170519
 H   -0.9904545930   -3.6263890440   -1.1050007805
 H   -1.5265724380   -2.0508143857   -0.4883924760
 H    1.1813193145   -2.4125114438   -3.1155507875
 H    2.5124844246   -2.2630724247   -1.9793826754
 H    1.8832005996   -4.5952149457   -1.0567068651
 H    0.4146382609   -6.0450244926   -2.4662337755
 H    0.0638056951   -4.6409165232   -3.5694827530
 H    2.5192897159   -4.4108525857   -4.0840293258
 H    2.8916903519   -5.8131232074   -2.9846051354