18

 C   -0.0121174489    1.4925420868   -0.0466166587
 C    0.0198232847   -0.0134312206    0.0532354966
 O    0.6661698833   -0.6111145454   -1.0994938384
 C    0.5498907223   -1.9720491777   -0.6451824030
 C    1.1469501838   -1.8746545284    0.7539419746
 C    0.8118684366   -0.6627925509    1.1892894202
 C   -1.0104457530   -2.0832401819   -0.5222779043
 N   -1.5709127872   -1.9150315189    0.8378975984
 C   -1.3740940354   -0.7415552509   -0.0413648437
 H    1.0026358747    1.8927807588   -0.1174240412
 H   -0.5693702365    1.8085827817   -0.9337598180
 H   -0.4948133751    1.9232902783    0.8360312699
 H    1.0080347857   -2.6576215779   -1.3564106931
 H    1.6200365682   -2.6816731625    1.2952622798
 H    0.9474358691   -0.2349555430    2.1729505258
 H   -1.5683671972   -2.6182659171   -1.2813007779
 H   -2.5568328284   -2.1758996291    0.8151233057
 H   -2.2274167166   -0.1841544315   -0.4113499227