14

 N   -0.0145640487    1.3360434352   -0.0147318689
 C    0.0700514108   -0.0235962419    0.0049403364
 O    1.1231332792   -0.6282652628    0.0238476952
 C   -1.2798657657   -0.7414555703    0.0302474794
 C   -2.0300276592   -0.8457364562   -1.3382207061
 C   -1.7047211010   -2.3588640545   -1.2442041635
 O   -1.8385337102   -3.3122657002   -1.9564972756
 N   -1.1644937842   -2.1965346064    0.0194582896
 H    0.8373425710    1.8686923489   -0.0812477784
 H   -0.8919860579    1.8179574869   -0.1060755439
 H   -1.8907071979   -0.3553140826    0.8548885164
 H   -3.0915188398   -0.5940517393   -1.3219382656
 H   -1.5409209449   -0.3466755244   -2.1767720093
 H   -0.4297523014   -2.7378177826    0.4548691445