19

 C    0.0705499760    1.6053365274   -0.0161157990
 C    0.0258110032    0.0764661911    0.0346653245
 C    0.6183361037   -0.5639138013   -1.2225576294
 C    0.5941456093   -2.0593731612   -1.2134554438
 N    0.1448451575   -2.8116783566   -0.2940861476
 C    0.3423214059   -4.1961402421   -0.7457184332
 C    1.0101744961   -4.0635001776   -2.1396919058
 O    1.1214072001   -2.6373658837   -2.3328747289
 H    1.0991684867    1.9722963940   -0.1085114066
 H   -0.4951141762    1.9936379918   -0.8708082605
 H   -0.3573455606    2.0424680447    0.8910263338
 H    0.5690589993   -0.2902856886    0.9116354947
 H   -1.0056038392   -0.2692030286    0.1587713542
 H    0.0855927655   -0.2246489296   -2.1211372255
 H    1.6592939418   -0.2455115278   -1.3688104611
 H    0.9697634916   -4.7379442372   -0.0298369271
 H   -0.6202855508   -4.7168895214   -0.7896231107
 H    2.0131964279   -4.4972884389   -2.1882995099
 H    0.4087218721   -4.4759961445   -2.9549775582