17

 O    0.0698994660    1.3599087651    0.0508009227
 C   -0.0504672552   -0.0200711519   -0.0041051884
 C   -1.3702611740   -0.7266856440    0.0029569683
 C   -2.6062916465    0.1069139548   -0.3297062575
 C   -2.3512584667    0.5978877864   -1.7397166850
 C   -1.2249855665    0.0954897515   -2.2556508817
 C   -0.4877869762   -0.7662705853   -1.2795253867
 C    0.2331086746   -1.9196423925   -1.7177345808
 C    0.8516289878   -2.8853284521   -2.0836232795
 H   -0.4593508459    1.7310917708   -0.6683730941
 H    0.7594213585   -0.4935159234    0.5401164214
 H   -1.4757226782   -1.6200919134    0.6066278324
 H   -3.5274414074   -0.4852770937   -0.2732014239
 H   -2.7241481406    0.9399716494    0.3762100138
 H   -3.0187218528    1.2842524954   -2.2485019708
 H   -0.8394778569    0.2839105837   -3.2503736701
 H    1.3937694301   -3.7386501308   -2.4074357300