17

 C   -0.1160505129    1.5265441465   -0.0086927203
 C   -0.0070057060    0.0345596368    0.0586978574
 O   -1.2454699024   -0.6400571636   -0.1713660895
 C   -1.2085528083   -1.7595553366    0.5942177326
 N   -2.2684375919   -2.6015538966    0.4181390804
 N   -0.1937319388   -1.9506955763    1.3596016494
 C    0.6948486804   -0.8430327093    1.0969762898
 C    1.2208125255   -0.7691343884   -0.3252104700
 O    1.1295934089   -1.8668269176   -1.1717144981
 H    0.8599855343    1.9791090190    0.1872897034
 H   -0.4451824362    1.8526176329   -1.0010588643
 H   -0.8251584706    1.9073789451    0.7337456174
 H   -3.1168135236   -2.1677702634    0.0886325954
 H   -2.3891350390   -3.2750203467    1.1583563066
 H    1.2825639181   -0.4740303491    1.9307266376
 H    2.1229260934   -0.1784839680   -0.4731853179
 H    0.9630661691   -2.6397240145   -0.6161197099