15

 C    0.0023964343    1.4923240001    0.0363371419
 C   -0.0156232730   -0.0112597306   -0.0137567195
 C   -0.0963707027   -0.7127003414   -1.2179500338
 C   -0.0937032953   -2.1000936122   -1.1332166638
 N   -0.0293134854   -2.7613690157    0.0183723743
 C    0.0315374992   -1.9886467094    1.1185705344
 N    0.0469798849   -2.6388117523    2.3192433601
 N    0.0509683957   -0.6478954659    1.1586391266
 H    0.8980007773    1.8412291396    0.5597133866
 H   -0.0187568894    1.9316216874   -0.9634267013
 H   -0.8598065884    1.8601780559    0.6019627807
 H   -0.1482771990   -0.2030190370   -2.1715048342
 H   -0.1425903828   -2.7109792333   -2.0329922141
 H    0.2715176303   -3.6191223531    2.3004394784
 H    0.3284182442   -2.1025771419    3.1223181038