21

 O    0.0075914638    1.4169229873   -0.1638417354
 C    0.0400625478   -0.0053693479   -0.0308049419
 C    0.7411011880   -0.5187206607    1.2585573334
 C   -0.3701547063   -0.9860065200    2.2309403534
 C   -0.9274123659    0.1619174759    3.1031143457
 C   -1.9013975251    0.9396584300    2.1838825195
 C   -2.3326203065   -0.0894489129    1.1364308969
 C   -1.3746034113   -0.5555622709    0.0490731939
 C   -1.5517559021   -1.3688281404    1.3092268182
 H    0.9149820906    1.7219462137   -0.2623801892
 H    0.5394222018   -0.4291223591   -0.9146561070
 H    1.3749507659   -1.3730251087    0.9966549696
 H    1.3933310243    0.2477654836    1.6922712774
 H   -0.0255592627   -1.8209618051    2.8459644286
 H   -1.4838223212   -0.2685847215    3.9435630231
 H   -0.1374105314    0.7912387819    3.5265031720
 H   -2.7683515786    1.3078907882    2.7406819340
 H   -1.4161215152    1.7985191380    1.7177063902
 H   -3.3815254312   -0.1314763563    0.8624431152
 H   -1.8375541781   -0.8761300090   -0.8781253672
 H   -1.9973656864   -2.3560281762    1.3260687096