16

 O    0.0614396642   -0.0155025658   -0.0266674349
 C    0.0116437781    1.1869371793   -0.0582777731
 C   -1.2566218677    2.0467083450   -0.1371899625
 C   -0.8218922505    3.3291577395   -0.9034199552
 C   -1.5745777206    4.5288325120   -0.5646135395
 C   -2.1937444089    5.5212153162   -0.2888016376
 C    0.6835835740    3.4366111518   -0.6134809238
 N    0.9938259606    3.2826408425    0.8037286932
 C    1.1857872284    2.1229611700   -0.1215890986
 H   -2.0696017849    1.5044551309   -0.6203892960
 H   -1.5669561908    2.3011658112    0.8802050716
 H   -0.9282541118    3.1396005711   -1.9798914079
 H   -2.7405481192    6.3967814279   -0.0397859897
 H    1.2939682253    4.0840293866   -1.2337462463
 H    1.9080336039    3.6842336898    0.9991458356
 H    2.1796233598    1.7406475222   -0.3199624052