16

 C   -0.5846824324    1.4430635734    0.1733893305
 C   -0.1441650535   -0.0032567161    0.1288396931
 C    1.2164118296   -0.3955683230   -0.3337900052
 N    0.8296641602   -0.5923016748    1.0678278262
 C    1.4744010235    0.2778414476    2.0490945409
 C    0.5930473613    0.4513063138    3.2197797591
 N   -0.1195870915    0.6217761361    4.1111589922
 C    2.7628153732   -0.3164971967    2.4541249493
 N    3.7895336822   -0.7592366591    2.7387758892
 H    0.2513313301    2.1430464131    0.2543964679
 H   -1.1155030795    1.6848174084   -0.7526347383
 H   -1.2707512981    1.6232311614    1.0069138062
 H   -0.9557057303   -0.7005493882   -0.0669698909
 H    1.3864283690   -1.3074160427   -0.8973700770
 H    1.9102434814    0.4132755480   -0.5594832265
 H    1.7029679548    1.2890436288    1.6714549632