20

 C    0.1165334010    1.3408152123    0.1170396131
 O   -0.1181529322   -0.0339962076   -0.0816557431
 C    0.5466733436   -0.5707532977   -1.2045525169
 C    2.0793316839   -0.7285359877   -1.0542788044
 C    2.4713533977   -1.9549638478   -1.9229360288
 O    3.5898825546   -2.6695997730   -1.4358480860
 C    1.1984048404   -2.7887902326   -1.9755173406
 N    0.6762918076   -3.0022208117   -0.6064849478
 C    0.0620287026   -1.9796973412   -1.4843278273
 H    1.1684769452    1.5554986677    0.3560305251
 H   -0.1622224024    1.9337544321   -0.7693764786
 H   -0.5035117575    1.6563700444    0.9597142899
 H    0.3181623097    0.0469272376   -2.0917430008
 H    2.6392396382    0.1659165729   -1.3337859352
 H    2.2958450806   -0.9545542346   -0.0066359716
 H    2.7446578916   -1.6395720482   -2.9359054539
 H    3.3099679093   -3.0541525667   -0.5954986688
 H    1.0874222321   -3.5716211768   -2.7183487327
 H    0.0780257649   -3.8241094571   -0.5981556271
 H   -0.9543894007   -2.1335068342   -1.8308281845