19

 C    0.5979728607   -0.0068861633    0.8790213264
 C   -0.1199144185    0.4008894508   -0.4175465532
 C    0.7087895101    0.1579360521   -1.6480213623
 N    1.1444347346    1.0669654625   -2.3971860511
 O    0.8991487745   -1.2386065263   -1.7857310804
 C    1.6285962767   -1.8128337039   -2.7786405356
 O    2.1953456194   -1.2276317100   -3.6652433686
 C    1.6277836874   -3.3304594965   -2.6089189376
 N    2.3716010164   -4.0671703860   -3.6104931221
 H    0.8485268352   -1.0707921266    0.8722830218
 H    1.5233130218    0.5625918492    1.0078959011
 H   -0.0420054554    0.1864565793    1.7442720226
 H   -1.0555230740   -0.1633750907   -0.5107458872
 H   -0.3652921893    1.4644027805   -0.4072688210
 H    1.6903311890    0.6921980462   -3.1711141441
 H    2.0195578426   -3.5526510265   -1.6090582561
 H    0.5829095852   -3.6627009449   -2.5940239282
 H    2.0059150074   -3.8462259557   -4.5323984701
 H    3.3337717963   -3.7408326803   -3.6234758442