14

 O   -0.1754446971   -0.0473717808   -0.0493551422
 C   -0.0188582410    1.1423371675    0.0526900673
 N   -1.0565492724    2.0815354090    0.2162771797
 C   -0.5853839101    3.3767971377    0.4339912312
 C    0.7315988641    3.4326923348    0.1649871457
 C    1.9644609340    3.7427105569    0.9937384233
 O    1.8900414154    2.8274748414    2.1167922914
 C    2.3873019337    2.3303929753    0.8805733435
 C    1.2237442152    2.0253269754   -0.1170954366
 H   -2.0198440550    1.7918272930    0.2813427154
 H   -1.2432848391    4.1158278663    0.8726294362
 H    2.5390961265    4.6489470239    1.1299995382
 H    3.3714675905    1.8771810900    0.8774862464
 H    1.6387646753    1.8617999097   -1.1176848293