18

 O    0.0050540097    1.4273978210   -0.1814982175
 C    0.0725718495    0.0461804838    0.1062272769
 C   -1.3179706192   -0.5763684226    0.1289848533
 O   -1.9618145258   -0.3042502642   -1.1478463250
 C   -2.2718403033   -1.5903107606   -1.6269018507
 C   -2.7661809883   -2.5069755037   -0.4731996822
 N   -2.1763335385   -3.6855773522   -1.2034332257
 C   -1.1341133424   -2.6027797830   -1.3158634541
 C   -1.3879002022   -2.0967029598    0.1483123305
 H   -0.5333889107    1.5032675773   -0.9787497110
 H    0.6999895152   -0.4895254040   -0.6250192227
 H    0.5455673430   -0.0545144727    1.0894627272
 H   -1.9163750740   -0.1082840085    0.9209895353
 H   -2.7683741388   -1.5645241580   -2.5936180668
 H   -3.7454993608   -2.5358478736    0.0057218380
 H   -1.8632631416   -4.3785877677   -0.5182709276
 H   -0.1870739286   -2.7508517903   -1.8354231930
 H   -0.9851090831   -2.6500525212    0.9974617849