17

 C    0.1014835041    1.5656595575   -0.1888458024
 C   -0.0260933084    0.0875298820    0.0751802841
 O    1.1699092811   -0.7218249990    0.0715918968
 C    0.4697229398   -0.5968572166    1.2968761440
 C    1.1489585386    0.1397864622    2.4425871322
 C    1.9790187624   -0.7522127489    3.2448887633
 C    2.6482999094   -1.5065984598    3.8973843554
 C   -1.1677312536   -0.6083274272   -0.6113084871
 O   -2.0829443931   -0.0389730789   -1.1471826633
 H    0.9502896459    2.0019119143    0.3378706507
 H    0.2327721838    1.7415193786   -1.2602864439
 H   -0.8152286254    2.0774901159    0.1159995061
 H   -0.0431844999   -1.5087319860    1.6095217494
 H    1.7575764952    0.9569682079    2.0450282711
 H    0.3752156215    0.5936517889    3.0760810093
 H    3.2495771330   -2.1643186025    4.4749360006
 H   -1.0859730943   -1.7176729383   -0.5850708862