16

 C   -0.2270934112    1.4338535695    0.0774500216
 C   -0.0206252443   -0.0589147286   -0.1075780759
 C    0.9844912295   -0.4069238356   -1.1850310415
 O    1.1273797713   -1.8203089657   -1.2999847238
 C    1.3188303599   -2.4982283510   -0.1440458411
 N    1.6635710791   -3.7110270517   -0.1882093480
 C    1.0688285938   -1.7772406928    1.1840817673
 O    1.4027634996   -2.2714821659    2.2254916824
 O    0.4529732775   -0.5814142591    1.1575313785
 H    0.7228600043    1.9349437814    0.2847312571
 H   -0.6674279767    1.8700088049   -0.8236963027
 H   -0.9018726302    1.6162410271    0.9167419140
 H   -0.9738128996   -0.5531570531   -0.3351672413
 H    0.6463153000   -0.0585550211   -2.1630588312
 H    1.9551191784    0.0577264704   -0.9624971230
 H    1.7474907685   -4.0543318886    0.7700879175