22

 C   -0.2683449904    1.5697416755   -0.0400087573
 C    0.0492801034    0.0712138854   -0.0057919465
 C    0.8787399111   -0.4299097438   -1.1709335973
 C    1.6966590460   -1.4137878190   -0.8057432917
 C    1.5564882569   -1.7418120785    0.6671572452
 C    2.8527878300   -2.1846807894    1.3535370767
 C    0.8539198317   -0.4600986613    1.2272232882
 C    1.8451972184    0.5706736708    1.7841027955
 H    0.6381878758    2.1800229854   -0.0875280250
 H   -0.8729615456    1.8085422783   -0.9216357483
 H   -0.8386022404    1.8786340995    0.8426309774
 H   -0.9161836194   -0.4609361218   -0.0262126795
 H    0.7601975482   -0.0452294805   -2.1789401921
 H    2.3575645493   -1.9667088683   -1.4657363671
 H    0.8437946730   -2.5780201525    0.7595947801
 H    3.6450447919   -1.4369367212    1.2549934998
 H    2.6964914097   -2.3737416107    2.4210052054
 H    3.2197096201   -3.1145492236    0.9056909247
 H    0.1647135944   -0.7334056518    2.0345114379
 H    2.5679682157    0.8900481192    1.0257531863
 H    1.3241413689    1.4619669536    2.1447613185
 H    2.4065206014    0.1599709247    2.6280320992