15

 C   -0.0787853088    1.5339464132    0.0575379939
 C   -0.0351071586    0.0453866800   -0.0431573127
 C    0.1127118754   -0.8225225282   -1.1076850787
 C    0.2952622056   -1.3932835194   -2.5141412556
 C    0.2398785824   -2.8070972796   -1.8137786242
 N    0.0714454639   -2.0437483886   -0.5563791131
 N   -0.0903160089   -2.0335075617    0.7714887415
 N   -0.1537004567   -0.7524911963    1.0707978009
 H    0.8451992310    1.9947891691   -0.3081017078
 H   -0.9071036654    1.9577468306   -0.5204809486
 H   -0.2116167822    1.8180391135    1.1034933835
 H   -0.5218291657   -1.2024418560   -3.2125596431
 H    1.2469479047   -1.1654357022   -2.9981081084
 H   -0.6205853007   -3.4308728076   -2.0622576242
 H    1.1597063441   -3.3936935968   -1.8463673934