17

 C   -0.0088804270    1.4796108789    0.0335578951
 C    0.0074205733   -0.0105055373   -0.0328812398
 N   -0.0291238356   -0.7334492867   -1.1243464311
 C    0.0055979472   -2.0566934703   -0.7023438948
 C   -0.0178347261   -3.1534869744   -1.5964922631
 C   -0.0367238809   -4.1016654318   -2.3395897418
 C    0.0639891553   -2.1238602563    0.6752546339
 C    0.1171534921   -3.2814459301    1.6091103213
 N    0.0646201232   -0.8091670910    1.0833323528
 H    0.8914455907    1.8767974056    0.5166689107
 H   -0.0560240680    1.8708347411   -0.9831868712
 H   -0.8760129675    1.8542000960    0.5898964541
 H   -0.0537124488   -4.9282596941   -3.0050987717
 H    1.0255381001   -3.2740391213    2.2239814646
 H   -0.7423662481   -3.3017797376    2.2904098648
 H    0.1098201157   -4.2075996871    1.0307493242
 H    0.1007947543   -0.4938426436    2.0388395119