18

 C   -0.2203572227    1.5559689216    0.1374824930
 C    0.0450246120    0.0709937762    0.0794328014
 C   -1.1508792265   -0.8355909276   -0.2122555052
 O   -0.8050690021   -2.1165066883    0.2910987980
 C   -0.0726619005   -1.9062023561    1.4933384109
 C    0.7956094044   -0.6732298538    1.2227875648
 C    1.8619151258   -0.8811885332    0.1690349362
 N    2.9863711181   -1.4346642671    0.1609654828
 O    1.1635526856   -0.2431144574   -0.8330109334
 H    0.6964324235    2.1042801073    0.3688204376
 H   -0.5990951725    1.9182581220   -0.8238873888
 H   -0.9661787510    1.7831482868    0.9053949442
 H   -2.0455635582   -0.4372241297    0.2952559585
 H   -1.3587431167   -0.9295605983   -1.2808410596
 H   -0.7509108629   -1.7125829571    2.3401994363
 H    0.5057971882   -2.8090754601    1.6992452932
 H    1.0940000087   -0.1172085916    2.1108038471
 H    3.4174439467   -1.3899862537   -0.7641352569