19

 O   -0.1265144739    1.4705546257   -0.0280870935
 C   -0.0001948063    0.0654255773    0.1377299352
 C   -1.3905276125   -0.5512686085   -0.0123268841
 C   -1.9752124673   -0.2835684850   -1.4285884175
 C   -1.9705160391   -1.6386164794   -2.0919678813
 C   -1.6297729553   -2.6176084996   -1.2545419234
 C   -1.3602504465   -2.0851719511    0.1060362064
 C   -0.6540397796   -2.8364257521    1.1562916582
 O   -2.0728182484   -2.7043315815    1.1992172184
 H    0.7512830416    1.8599378558    0.0198411966
 H    0.6755625528   -0.3671559453   -0.6186319276
 H    0.4138811676   -0.1758163380    1.1278698553
 H   -2.0320464879   -0.1411176456    0.7718984403
 H   -2.9919752677    0.1264941527   -1.3855669563
 H   -1.3759197614    0.4572391382   -1.9676914072
 H   -2.2386934373   -1.7752728302   -3.1340699634
 H   -1.5824259967   -3.6762314999   -1.4800680309
 H   -0.2784668962   -3.8380188023    0.9433833144
 H   -0.1106830059   -2.3058964011    1.9378500003