19

 C   -0.0660192283    1.5938833496   -0.0171312965
 C    0.0262160552    0.0723230834    0.0114641312
 O    0.6989285791   -0.5043972206   -1.1208815216
 C    2.0632255706   -0.1564908097   -1.3260482751
 C    2.8649084806    0.0083970704   -0.0574792581
 C    2.2435619128   -0.2192011565    1.0865837614
 C    2.2392095041    0.2071789056    2.5315447840
 O    0.7797285705    0.2095837202    2.4970041973
 C    0.7777200390   -0.4976652858    1.2226926616
 H    0.9161169645    2.0680241660    0.0586483482
 H   -0.5415044116    1.9197668649   -0.9464860423
 H   -0.6680141480    1.9405052741    0.8272304046
 H   -0.9825228896   -0.3468001891   -0.0556202683
 H    2.4675743452   -0.9472707759   -1.9698130742
 H    2.1388947278    0.7841705432   -1.8986940389
 H    3.8657097523    0.4237772266   -0.1344498294
 H    2.6165006617   -0.5299743128    3.2538738664
 H    2.6563042589    1.1926094969    2.7683393846
 H    0.5018617151   -1.5496515306    1.3726932853