18

 O    0.1850320828    0.0089022984    0.0086452102
 C    0.0972348746    1.2152308655   -0.0191968762
 N   -0.9721922271    1.9688394990   -0.4950279600
 C   -0.8537138844    3.3593660190   -0.0780627057
 C    0.6843241053    3.5072413038    0.1277375743
 N    1.0471589466    2.1301634485    0.4010327075
 C    1.3696829097    4.1355139990   -1.0812214320
 C    2.6872444277    3.6749944906   -1.5812717544
 N    1.4646915643    3.4393536673   -2.3682612746
 H   -1.8696407757    1.5109760418   -0.5055627214
 H   -1.2223354730    4.0464952083   -0.8444106412
 H   -1.3898616119    3.5594710835    0.8598465600
 H    0.8864019808    4.1453372398    0.9959335974
 H    1.9793089303    1.8212521834    0.6141058921
 H    1.1310668528    5.1942773670   -1.1819395281
 H    3.3849948749    4.3881057578   -2.0108476240
 H    3.1566428902    2.8233381830   -1.0959864379
 H    1.1686506620    2.4714063941   -2.2602789459