16

 O    0.0188637775   -0.0766068291   -0.2206754782
 C    0.0141031880    1.0982411630    0.0320319539
 C    1.2580752370    1.9724787569    0.0203750766
 C    1.1400550553    2.9970579351   -1.1534393303
 C    0.8111228225    4.2996339525   -0.4723993691
 C    0.9286283412    4.2363924104    0.8492644209
 C    1.3860027044    2.8616062984    1.3093389625
 C    0.6408581698    2.3584626705    2.4684134545
 N    0.0567164370    1.9756735591    3.3894111039
 H   -0.9319554044    1.6418719850    0.2522822844
 H    2.1167231699    1.3097467114   -0.0913030907
 H    2.0812031045    3.0625583483   -1.7129667610
 H    0.3754294221    2.6992313573   -1.8816985344
 H    0.5404083133    5.1904241358   -1.0276498165
 H    0.7693550070    5.0444060803    1.5520172599
 H    2.4401601849    2.9020128152    1.6162091636