16

 C   -0.0356938345    1.5707695984   -0.0331187163
 O    1.3414619818    1.9296244261    0.0954116575
 C    2.1044775349    0.7300543400   -0.0491296192
 C    2.5437488562    0.2191344202    1.3312995989
 C    1.3555965953   -0.3544055250    2.0642239902
 C    0.1630168131   -0.4414263971    1.4764674712
 C    0.0186683445    0.0324630135    0.0473532705
 O    1.2444471489   -0.2045915180   -0.6601720228
 H   -0.6087430287    2.0309724614    0.7768403880
 H   -0.4299283710    1.9063272434   -1.0013381734
 H    2.9486307553    0.9170951384   -0.7196053511
 H    3.3347020848   -0.5357818750    1.2215872439
 H    2.9811013807    1.0544382538    1.8910079415
 H    1.5056713322   -0.6996027328    3.0834824396
 H   -0.7112925949   -0.8260873081    1.9918247452
 H   -0.7869269988   -0.4681121291   -0.4918815937