17

 C   -0.0844357237    1.5119758643    0.0109369555
 C    0.0833475938    0.0191765999    0.0352639051
 C    1.0276677825   -0.7906763065   -0.8977675784
 C    0.6795096742   -1.9147655761    0.1264152225
 C    0.6958405149   -0.7935706208    1.2110342136
 C   -0.8297418229   -2.0316979579   -0.1112259689
 O   -1.1903533183   -0.6343653272   -0.1660530384
 H    0.8772193427    2.0101850542    0.1625135488
 H   -0.4969353066    1.8351139745   -0.9499223070
 H   -0.7715583386    1.8327893837    0.8000930409
 H    0.7131045091   -0.9165781273   -1.9371904577
 H    2.0699964540   -0.4721664348   -0.8389254690
 H    1.2543397579   -2.8357503615    0.2156001809
 H    1.7057368911   -0.4753475903    1.4759942744
 H    0.0773158064   -0.9221156719    2.1032813642
 H   -1.0873078495   -2.5263332850   -1.0557491754
 H   -1.3647094669   -2.5287532371    0.7072327386