18

 O   -0.0700988124    0.0822113770   -0.7109550243
 C   -0.0773123332    1.1913850478   -0.2397364041
 C   -1.2767787483    2.0719722657   -0.0173531449
 C   -1.5723163446    2.4204373408    1.4367563956
 C   -0.7722367060    3.3661473898    0.5843440276
 N    0.6776086042    3.3220631977    0.6584637118
 C    1.3411565033    3.1089879243    1.9793728988
 C    1.8738305968    1.7255226961    1.5174366368
 C    1.1557197784    2.0057487372    0.1675621765
 H   -2.0992261103    2.0020307252   -0.7179313783
 H   -2.6022590384    2.6797785550    1.6577714666
 H   -1.0823114267    1.8527943712    2.2200105574
 H   -1.2152578985    4.3175390972    0.3060438654
 H    2.1124441105    3.8590742673    2.1783394070
 H    0.6519733251    3.0896474969    2.8301465571
 H    2.9585976597    1.6365959839    1.4477628988
 H    1.4870399491    0.8659180029    2.0690701098
 H    1.8224083811    2.0700912440   -0.7012446875