21

 O   -0.3423034746    1.4195507975    0.3213023164
 C   -0.0572217199    0.0390146061    0.1383336474
 C   -1.3900871167   -0.6794794543   -0.0339567619
 C   -1.2776480643   -2.2120243772   -0.1478740762
 C   -0.9848936661   -2.9105096601    1.2328638195
 C   -2.4998535443   -3.1962507997    1.3930121453
 C   -2.6946014143   -2.8925991750   -0.1144596864
 C   -0.4208385698   -2.6075287581   -1.2544012140
 C    0.2786506702   -2.9555205592   -2.1700932899
 H    0.4931340186    1.8931280449    0.3667158392
 H    0.5704709799   -0.1287971206   -0.7482919045
 H    0.4851950627   -0.3708974568    1.0057437104
 H   -2.0304923359   -0.4309339801    0.8204698554
 H   -1.8863559623   -0.2868631602   -0.9286001547
 H   -0.3992506427   -3.8222207497    1.0999829292
 H   -0.5029857846   -2.2914977666    1.9933234176
 H   -2.7774924479   -4.1960053099    1.7323720909
 H   -2.9988378723   -2.4672875745    2.0361936373
 H   -3.5330954561   -2.2533251742   -0.4022024356
 H   -2.7150453176   -3.7978777165   -0.7244066599
 H    0.8965882979   -3.2608233556   -2.9777690953