19

 C   -0.0785765845    1.5446018786   -0.0087436200
 C    0.0763923222    0.0422736334    0.0427355813
 C    1.3824773430   -0.6737025884   -0.2027969215
 O    2.5744207066    0.0875309150   -0.0423790818
 C    2.5860994023    0.4457537774    1.2751309973
 N    3.6104483733    1.2885921565    1.6158522853
 N    1.6426650423    0.0300489394    2.0319549783
 C    0.7480235165   -0.7262264785    1.1798497348
 C    0.0939954441   -1.9272089940    1.8106511490
 H    0.7611261324    2.0619554865    0.4587506476
 H   -0.1514519014    1.8925024107   -1.0447954949
 H   -0.9884621652    1.8542435144    0.5156796301
 H   -0.7620590993   -0.5058873004   -0.3835967877
 H    1.5021101389   -1.4826640681   -0.9132381608
 H    4.4515548380    1.1782082755    1.0693333778
 H    3.7624599559    1.3536892266    2.6107449795
 H   -0.5792597723   -1.6169215301    2.6165988945
 H   -0.4910803753   -2.4891565551    1.0763550256
 H    0.8452637926   -2.5972969594    2.2412538355