13

 O    0.0170602672    0.0377209260   -0.3743754678
 C   -0.0394818018    1.1731801481   -0.0098297610
 C   -1.2856872329    2.0463661477    0.1892858018
 C   -0.7573955383    3.3447625647    0.7551109532
 C    0.0063136262    3.2725109403    2.0656292084
 C    0.7404700480    3.1894132477    0.7615891578
 O    1.0806374637    1.8921562240    0.3139996668
 H   -1.7721545767    2.1817969052   -0.7818067500
 H   -1.9916037237    1.5147583349    0.8336117674
 H   -1.2220748219    4.2800516098    0.4705183874
 H    0.0984472141    4.1908242986    2.6348539181
 H   -0.0607733373    2.3691617662    2.6642298635
 H    1.4470370136    3.9401009168    0.4328306743