16

 O    0.0235571844    1.3985850713   -0.0246768045
 C   -0.0302858022    0.0294016795    0.0680355792
 C    0.4082204067   -0.8133634847    1.2899443102
 N   -0.4153187292   -1.9279860381    0.6852164895
 C    0.0472969153   -2.1059536693   -0.7746267979
 C   -1.3965505721   -1.7302752603   -1.2236397415
 C   -1.3346830986   -0.8911349299    0.0613152638
 C    0.7084414834   -0.7568308306   -1.0063310887
 O    1.5052362293   -0.3333460336   -1.8007223781
 H    0.6108298466    1.6072956997   -0.7676009908
 H    1.4734183102   -1.0171478475    1.4409727196
 H   -0.0546547437   -0.5089486364    2.2318602159
 H    0.5500536479   -3.0279256285   -1.0569539070
 H   -1.5209191521   -1.2394303958   -2.1912244371
 H   -2.0875020372   -2.5689623342   -1.1208856841
 H   -2.2034161887   -0.5518972517    0.6261176314