14

 N   -0.0116746821    1.4998816896   -0.0394844926
 C   -0.0397842509    0.1147147781   -0.0549458370
 C   -0.9656147672   -0.8199763845    0.2996724347
 C   -0.3202170506   -2.0979848843    0.1352905236
 C    0.9287733742   -1.8281406470   -0.3031913019
 O    1.9788288702   -2.5966498629   -0.6860209671
 C    2.7076980690   -3.1972843111    0.3132115576
 O    3.6160547607   -3.9236824124    0.0753075177
 O    1.1285868433   -0.4788014533   -0.4214200041
 H    0.5560921147    1.8911819988   -0.7808210016
 H   -0.9359495611    1.9084190846   -0.0412802320
 H   -1.9752898496   -0.6355922952    0.6282145198
 H   -0.7421131688   -3.0767428111    0.2965777760
 H    2.3239056081   -2.9246487695    1.3120609568