15

 N    0.1660256189    1.3925063363    0.0851154787
 C    0.0352569406    0.0032924430    0.0149420375
 N   -1.1270787833   -0.6040421005    0.0194414757
 O   -0.8347804817   -1.9650768012    0.0166542943
 C    0.5018770735   -2.1385115434    0.0008502499
 C    1.1201933115   -0.9264320030    0.0102811797
 N    2.4625058007   -0.5576123342    0.0353101293
 C    3.5193822173   -1.4303410280    0.0054492524
 N    3.3648779598   -2.6871693952   -0.1474948982
 H    0.6781728093    1.7712128010   -0.7047030084
 H   -0.7443818647    1.8365757990    0.1323934552
 H    0.8756105925   -3.1457527487   -0.0132084848
 H    2.6476334559    0.3892191569    0.3259430986
 H    4.4776557255   -0.9100371624    0.1134227462
 H    4.2677354340   -3.1542920096   -0.1711103759