17

 O   -0.0872065322    1.4310542658    0.0415057130
 C    0.0261024614    0.0204602252    0.0258696858
 C    0.6855320505   -0.5207673133   -1.2567805632
 C   -0.0869833652   -0.1051413359   -2.5112520937
 C    0.6057201607   -0.5993038625   -3.7961108882
 C   -0.1207429645   -0.2144678565   -5.0042427647
 N   -0.7081654593    0.0972097378   -5.9490309038
 C    0.7450236142   -0.4702392595    1.2197142110
 N    1.3406144046   -0.8352168079    2.1401206384
 H    0.7966285505    1.8086993015    0.1227216631
 H   -1.0047069262   -0.3486016650    0.0818085666
 H    1.7186590207   -0.1515742295   -1.3014365778
 H    0.7475514224   -1.6131417630   -1.1835837663
 H   -1.1048110881   -0.5095554918   -2.4742222671
 H   -0.1834546406    0.9833882234   -2.5393701854
 H    1.6232830470   -0.1958734989   -3.8597875119
 H    0.7030201441   -1.6913533500   -3.7830437857