21

 C   -0.2988794128    1.4992345824   -0.0338918255
 C   -0.0008869416   -0.0008315653    0.0062081038
 C   -1.2665360250   -0.8200590687   -0.2296085122
 C    1.2198880702   -0.4012917147   -0.8851757421
 C    2.1239396589   -0.4760946681    0.3852517079
 N    2.9255040199    0.7372298471    0.5409263674
 C    0.8327084374   -0.4208228771    1.2607799288
 C    2.9218134689   -1.7035864043    0.5180279335
 N    3.5752667842   -2.6524172658    0.6272806109
 H    0.6083701307    2.0842481744    0.1350925804
 H   -0.7172615872    1.7847492884   -1.0061643814
 H   -1.0314922983    1.7688882889    0.7358113717
 H   -1.7076542122   -0.5876026414   -1.2058025340
 H   -1.0608023833   -1.8954369648   -0.2022518437
 H   -2.0217385492   -0.6034113904    0.5347923586
 H    1.0955592686   -1.3761993932   -1.3612630495
 H    1.5514637152    0.3255168205   -1.6305196954
 H    3.3788107162    0.7384365006    1.4512977845
 H    3.6684439420    0.7529881155   -0.1533758806
 H    0.8806099915    0.2916835107    2.0876854253
 H    0.5529550459   -1.4035661548    1.6461559216