19

 C   -0.5899419372    1.0300706692    0.3102521945
 O   -0.3021983031   -0.3547620446    0.4054500509
 C    0.8920461614   -0.6463188534    1.0958430444
 O    0.8122979231   -0.3253945806    2.4636547336
 C    0.4460313053   -1.4859696925    3.1933611226
 C   -0.7927573049   -2.2284433081    2.7773387886
 C    0.5825419424   -2.6987870092    2.3303186808
 C    1.1083903767   -2.1878423303    0.9931065882
 O    0.5542021684   -2.7468533655   -0.1702400084
 H    0.2171572762    1.5641849836   -0.2118193933
 H   -1.5133923122    1.1276682260   -0.2639413530
 H   -0.7250851460    1.4736380448    1.3026908249
 H    1.7094116037   -0.0474293724    0.6724884568
 H    0.7602978565   -1.4210127639    4.2274852645
 H   -1.2885116262   -2.8288673475    3.5330058863
 H   -1.4509917670   -1.7642636855    2.0532481327
 H    0.9736024414   -3.6360564440    2.7061799416
 H    2.1857055906   -2.3852979167    0.9545179271
 H   -0.2236015792   -2.2144827594   -0.3802907828