18

 C    0.1770388231    1.5639603769   -0.0819705763
 C    0.1086069895    0.0638052145    0.0074967387
 C   -1.2201072740   -0.7178988970    0.0948615391
 N   -0.5187855801   -1.8364008457    0.8086493647
 C    0.8324735740   -1.9187064166    0.1574019793
 C    0.5637562538   -0.8928391419    1.1914993691
 C    0.9527384795   -0.8445475246   -0.9353199811
 C    0.5192440693   -1.1160183100   -2.3533238451
 O   -0.3220890544   -0.4887653264   -2.9481647112
 H    1.2067308211    1.9271627566    0.0075948003
 H   -0.2154889315    1.8995918028   -1.0474385662
 H   -0.4153935580    2.0352566317    0.7095572318
 H   -1.9245802872   -0.2612493703    0.7955371636
 H   -1.7341084361   -0.9885839612   -0.8310888714
 H    1.3554471677   -2.8621702883    0.2390391303
 H    0.9331304744   -0.7459757970    2.1981464079
 H    1.9998437790   -0.5113603154   -0.9667903899
 H    1.0597396200   -1.9573742981   -2.8487143536