19

 C   -0.0307850044    1.5931106002   -0.0540896942
 C   -0.0534895323    0.0529257235   -0.0164801738
 C   -1.4963982798   -0.4868970416    0.0101192750
 C    0.7143745034   -0.5235842641   -1.1643920841
 C    1.8259467955   -1.3101858619   -1.2601218691
 C    2.7142238532   -1.9045108497   -0.2201971386
 N    2.0458811140   -1.5066420530   -2.6093337233
 N    1.1802597899   -0.9176669737   -3.3022909330
 O    0.2838611028   -0.2581206547   -2.4037496319
 H    0.9933752251    1.9766380386   -0.0374045605
 H   -0.5168245377    1.9640377877   -0.9610171200
 H   -0.5633511353    1.9988203763    0.8111607738
 H    0.4554512209   -0.2775064074    0.8963400398
 H   -2.0355539838   -0.1913792871   -0.8944926161
 H   -1.5118288470   -1.5787592814    0.0723680935
 H   -2.0324991243   -0.0861714093    0.8755105649
 H    2.7289143285   -2.9967697370   -0.2914629344
 H    3.7453295356   -1.5556563618   -0.3361040089
 H    2.3764291958   -1.6351904336    0.7833392710