22

 C   -0.0498609998    1.6243481391   -0.0364925997
 C    0.0199281357    0.1002927198   -0.1591186033
 C   -1.3251548653   -0.5681433475    0.1551434974
 N   -1.2957625979   -2.0078529065    0.0545263261
 C   -1.1436823379   -2.9231377677   -1.0806605868
 C   -1.3078627734   -4.1015895770   -0.0700923520
 C   -0.1433512261   -5.0669994440    0.1027302131
 C   -1.4418553151   -2.9914352018    1.0022210284
 O   -1.6018730855   -2.9457424044    2.1957786346
 H    0.9154100233    2.0845369959   -0.2664112709
 H   -0.7914307255    2.0453726036   -0.7246113891
 H   -0.3305432931    1.9274246898    0.9780424982
 H    0.3335500384   -0.1753294728   -1.1739068559
 H    0.7791181359   -0.3009910459    0.5222552621
 H   -1.6292336956   -0.3429412764    1.1831131590
 H   -2.1034178177   -0.1669783494   -0.5106287908
 H   -1.9321231300   -2.8306806320   -1.8368044848
 H   -0.1642418524   -2.8734913915   -1.5701027068
 H   -2.2490218400   -4.6425250696   -0.2061573231
 H    0.8034384730   -4.5276182376    0.2131555010
 H   -0.2865277458   -5.6761876138    1.0000278809
 H   -0.0528742150   -5.7406680004   -0.7553895575