18

 C    0.0228323817    1.5697862692   -0.0213495343
 C    0.0222632465    0.0448816144    0.0500553840
 N    0.6288192542   -0.5302120939   -1.1516828202
 C    1.5423982408   -1.5433348987   -1.2442139437
 O    2.0863703959   -1.8708515543   -2.2673501059
 O    1.8543657981   -2.1792252800   -0.0703682952
 C    0.9860575685   -1.9921576561    1.0563285256
 C    0.7682517149   -0.5027162847    1.2796043846
 O    1.9977023240    0.1530502665    1.5270147666
 H    1.0458539634    1.9503741183   -0.0162691612
 H   -0.4853572312    1.9153640121   -0.9276857403
 H   -0.5072950245    1.9892908187    0.8390393839
 H   -1.0191872489   -0.3040632739    0.1299230236
 H    0.4495707624   -0.0838437073   -2.0378288485
 H    0.0350161337   -2.5139843862    0.8917799908
 H    1.5034293444   -2.4504250379    1.9014225358
 H    0.1439221860   -0.3415854911    2.1645321276
 H    2.6674099102   -0.2564980150    0.9657665967