17

 O    0.0354909720    1.4208451731   -0.1522736032
 C    0.0742988348    0.0247828901    0.0259445872
 C   -1.3401831771   -0.5578806493    0.0941899464
 N   -1.9489134410   -0.2462710534   -1.2365602899
 C   -2.5737455245   -1.3053872555   -1.5601943548
 N   -1.9310820973   -2.1779693778   -2.5621992752
 C   -1.6250068011   -2.9433586077   -1.2302076751
 C   -1.4463087305   -2.0996670344    0.1124958693
 C   -2.7767730745   -2.4166741119   -0.4744723431
 H   -0.5026622133    1.5572258861   -0.9435299189
 H    0.6276483423   -0.4805979938   -0.7798088830
 H    0.5929759344   -0.1694773630    0.9724190352
 H   -1.8645773007   -0.1176327789    0.9549471183
 H   -2.6261819753   -2.7973884156   -2.9947312510
 H   -1.2330368071   -3.9523430789   -1.3114689415
 H   -1.0466564605   -2.6763919594    0.9439632265
 H   -3.6753489307   -2.8590501498   -0.0657964170