14

 N    0.0856031275    1.4608899271   -0.0117381216
 C    0.0415754809    0.0124634162   -0.0029606207
 C    0.2497515363   -0.6449813643    1.4266621876
 C   -1.1444566781   -1.2600059443    1.3045996628
 O   -2.0633515982   -0.1744863236    1.0834456227
 C   -1.3561382885   -0.7012236621   -0.0357309166
 C    0.9481612353   -0.5380135576   -1.0078794557
 N    1.6282555697   -0.9980296932   -1.8212884330
 H   -0.0734199729    1.8202667302   -0.9488476265
 H   -0.6733681868    1.7947125902    0.5777760480
 H    1.0592470411   -1.3761136911    1.4340690111
 H    0.3860962539    0.0766942907    2.2342483845
 H   -1.5404281938   -2.1590986997    1.7585480261
 H   -1.9250550463   -1.0442128986   -0.8921797885