16

 C   -0.0294831181    1.5456961585    0.0241313606
 C    0.0349433458    0.0168254533   -0.0092185854
 C    0.7197230270   -0.5251090215   -1.2664579421
 N    0.7170379280   -0.4868589812    1.1938447643
 N    0.1295090647   -1.2771115018    2.0847267043
 C    1.1142723291   -1.4608332927    2.9573116473
 N    2.2468743828   -0.8123135427    2.6123336390
 N    1.9763216775   -0.1963573535    1.4846691058
 H    0.9753551241    1.9745126177   -0.0059193474
 H   -0.5891755082    1.9073482123   -0.8429020515
 H   -0.5307512317    1.8968647837    0.9299355344
 H   -0.9712314265   -0.3996159720    0.0744235965
 H    1.7481125007   -0.1608215357   -1.3318025011
 H    0.7371844316   -1.6181619866   -1.2625345116
 H    0.1743369985   -0.1913673110   -2.1535580943
 H    1.0128780945   -2.0642457070    3.8445499511