20

 C    0.0391092438    1.5489466942    0.0203513325
 C    0.0725033924    0.0361811515   -0.0129462027
 C   -0.8520454935   -0.7311698362    0.9338529213
 C    0.6244658128   -0.7487271797    1.1775943049
 C    1.4299466864   -2.0332567949    0.9273695465
 N    1.8308258906   -2.2740512310   -0.4590643411
 C    0.7339388592   -2.0287993871   -1.3994587098
 C    0.2711214981   -0.5698574982   -1.3670438897
 O    0.1486225212    0.0829107134   -2.3832887683
 H    0.9847340637    1.9720038122   -0.3332029998
 H   -0.7516196958    1.9307260081   -0.6307945874
 H   -0.1399552177    1.9106923065    1.0373481044
 H   -1.4857915257   -0.1275495760    1.5747537988
 H   -1.3225458565   -1.6407010322    0.5745152777
 H    0.9761098331   -0.1312385660    1.9996420965
 H    2.3373101972   -2.0180879506    1.5381441766
 H    0.8422553029   -2.8991391907    1.2607103721
 H    2.6041400497   -1.6594760220   -0.6968795012
 H    1.0497313257   -2.2543500807   -2.4210215043
 H   -0.0932905975   -2.7070816307   -1.1503740770