20

 C   -0.1117925997    1.5587519029   -0.0072601784
 C    0.0715442618    0.0306473583   -0.0145936534
 C    0.7586724180   -0.5029041606    1.2091932787
 C    2.0650948896   -0.9139984632    1.2881449723
 N    2.3113044004   -1.3149741312    2.5897336112
 C    1.1710857922   -1.1632234976    3.3206814556
 O    1.2115767905   -1.5237047959    4.6319574063
 C    0.1722978298   -0.6631775284    2.5171452572
 C   -1.2377159847   -0.3681256290    2.9320805271
 H    0.8569705923    2.0636343628    0.0599780588
 H   -0.6140190144    1.9005028917   -0.9187309709
 H   -0.7125571066    1.8836005725    0.8482524010
 H   -0.9125554696   -0.4442181926   -0.1272333787
 H    0.6475944226   -0.2564997772   -0.9022079467
 H    2.8368609657   -0.9632850615    0.5374586395
 H    3.1743537760   -1.6746528238    2.9564814921
 H    0.3690416447   -1.2887290264    5.0324342998
 H   -1.4334778446    0.7040638643    3.0637855856
 H   -1.9601695838   -0.7353592177    2.1940527838
 H   -1.4926625401   -0.8573314773    3.8810435091