19

 C   -0.0550690006    1.5413757614    0.0648513335
 C   -0.0342791054    0.0350348197    0.0603991039
 C   -1.2979738546   -0.8320617138    0.2471894839
 C   -0.2738747365   -1.9730304352    0.5434412134
 C    0.7300018644   -0.8705182410    1.0866325518
 C    1.9806391210   -0.8525798255    0.1898429708
 C    0.9380649410   -0.7162265559   -0.9661941923
 C    0.3092539310   -2.1034912917   -0.8633960863
 O    0.2720362977   -3.0109185204   -1.6476133781
 H    0.9557429423    1.9630859512    0.0826694045
 H   -0.5579536957    1.9281455221   -0.8291000407
 H   -0.5929974183    1.9217793558    0.9403717831
 H   -1.8484687343   -0.5285254291    1.1431810174
 H   -1.9955925520   -0.9731241701   -0.5855866049
 H   -0.5365953000   -2.8801513025    1.0823077190
 H    0.7423752891   -0.6862948150    2.1606778605
 H    2.5676027153    0.0583441998    0.3327779023
 H    2.6481390481   -1.7199146700    0.1703839152
 H    1.1905104275   -0.3317227099   -1.9523325071