19

 C    0.4056871957    1.4707398687   -0.2789495660
 C    0.0483888912    0.0016548981   -0.0101289705
 C    0.3511980743   -0.9949073896   -1.1553441463
 N    1.5812647750   -1.7405282567   -0.8058472697
 C    2.8063556317   -1.1539158645   -1.3403426532
 C    1.5794633387   -1.8266320404    0.6533389186
 C    0.8663707430   -0.5653294865    1.1630792565
 O    0.9378795430   -0.0941481280    2.2682764742
 H    1.4423891720    1.5801575598   -0.6124686973
 H   -0.2418910125    1.8920657009   -1.0536744236
 H    0.2826804538    2.0574007839    0.6358497761
 H   -1.0069614365   -0.0444176693    0.2840581634
 H   -0.4729716305   -1.7121988029   -1.2559601204
 H    0.4756524744   -0.5035886357   -2.1234908935
 H    3.0474608206   -0.1463952105   -0.9548809409
 H    3.6521196612   -1.8080472180   -1.1062510413
 H    2.7293998839   -1.0882055384   -2.4295660353
 H    0.9979230463   -2.6993459879    0.9895637112
 H    2.5834060447   -1.9213549332    1.0723477978