15

 C    0.2113497702    1.5260510852   -0.0738297116
 C    0.0279366671    0.0473913455   -0.0344023414
 C   -0.3251523376   -0.8130452372   -1.0197435683
 O   -0.3624947183   -2.0798249308   -0.4975767266
 C   -0.0270822774   -1.9119557307    0.8000817596
 C    0.0471075740   -3.1272907724    1.6709764488
 C   -1.2230410588   -3.8525737537    1.7613982349
 N   -2.2197456284   -4.4307911285    1.8346819546
 N    0.2146055054   -0.6884055795    1.1381875854
 H    1.2303615374    1.8002588676    0.2178996688
 H    0.0220738447    1.9182824620   -1.0760331355
 H   -0.4703707797    2.0212105844    0.6252188388
 H   -0.5702189322   -0.7173730253   -2.0633108231
 H    0.8137973582   -3.8177567303    1.2987913740
 H    0.3522980355   -2.7993261063    2.6677232216