17

 O    0.0380877877    0.0105838116    0.5518413160
 C    0.0333952143    1.1248687858    0.1148403383
 C   -1.2382876797    1.9516553367   -0.0183802254
 C   -1.4279938720    2.8544133873   -1.2404487372
 O   -0.4275252220    3.8568406919   -1.3281897661
 C    0.7114952212    3.4025554039   -1.9808393570
 C    2.0405809188    3.7413928331   -1.3698347199
 C    1.5501674171    2.3188635517   -1.3455436534
 O    1.2302191798    1.7766240296   -0.0897449337
 H   -2.0771536405    1.2555809463    0.0649709962
 H   -1.2557838870    2.5951371777    0.8713284590
 H   -1.4678431492    2.2652415955   -2.1674236761
 H   -2.3834022382    3.3780815656   -1.1381751266
 H    0.6277992823    3.3783267560   -3.0686211222
 H    2.8728739719    4.0065336484   -2.0109053257
 H    1.9937152598    4.2606101222   -0.4194841329
 H    2.0218389956    1.5905645567   -2.0007887434