20

 C   -0.0474688397    1.5903635968   -0.1601644663
 C   -0.0213373211    0.0680123657    0.0377405746
 N    0.6737849669   -0.6113789973   -1.0474660479
 C    1.9648143653   -0.9914311787   -0.7736962431
 O    2.7521025416   -1.4483127406   -1.5722471146
 C    2.1930778760   -0.7084136485    0.7126938857
 C    0.7847349465   -0.4427243222    1.2695971961
 C    0.7367917741    0.4486742636    2.5007966510
 O    1.4147328415   -0.2422248718    3.5395715949
 H    0.9635660832    2.0083018346   -0.1914811738
 H   -0.5385613646    1.8369969132   -1.1071817756
 H   -0.6062281926    2.0868459941    0.6395775734
 H   -1.0560824968   -0.2903954876    0.0989331404
 H    0.3596681671   -0.5701144394   -2.0050918883
 H    2.7103343491   -1.5374865512    1.1954970097
 H    2.8434645216    0.1710463494    0.7980331154
 H    0.3507740362   -1.4066052558    1.5583834360
 H    1.2171229711    1.4170588667    2.2917144807
 H   -0.3112098307    0.6526779106    2.7771165262
 H    1.4463214452    0.3284977084    4.3127413453