15

 C   -0.0592489777    1.4564357819   -0.1673000967
 C   -0.0457484354    0.0055340341   -0.0623008396
 C   -0.0014302902   -1.1955188198    0.0284175837
 C   -0.0179226625   -2.6372976086    0.1233335014
 O    0.0242807900   -3.1211628724    1.5146997778
 C   -1.2770514969   -3.5728051534    1.4758927149
 O   -1.9201985426   -4.0067830400    2.3729672824
 C   -1.4376137458   -3.2879028680   -0.0371316180
 O   -2.5022014290   -2.5433366488   -0.5119933597
 H    0.9557509508    1.8517558572   -0.2787211870
 H   -0.6442271540    1.7831451171   -1.0335090370
 H   -0.5006177965    1.9104134805    0.7261119620
 H    0.7846822003   -3.1058761667   -0.4504469974
 H   -1.4011958933   -4.2165774835   -0.6128335732
 H   -2.4513659974   -1.6599127296   -0.1241490034