16

 C    0.0048446587    1.4731127903    0.1231544154
 O    1.4416456992    1.4415746163   -0.1339851928
 C    1.3418813217    0.1123129073   -0.7167751559
 C    2.1719150632   -1.0382271326   -0.1553200931
 O    1.4684245114   -2.2239058236   -0.5205805078
 C    0.1980932211   -2.4030885050    0.0938430032
 C   -0.5825330474   -1.1247949731    0.2894888324
 C   -0.0489153401   -0.0046938639   -0.1683821830
 H   -0.2338882158    1.7944168398    1.1432173021
 H   -0.5115229035    2.1268537934   -0.5934492794
 H    1.4371371058    0.1596892408   -1.8096179402
 H    3.1662875923   -1.1322891847   -0.5986446219
 H    2.2703769612   -0.9287744339    0.9345853758
 H   -0.3342508530   -3.1224278602   -0.5400594403
 H    0.3211029631   -2.8790949679    1.0831951601
 H   -1.4793822078   -1.1633371030    0.9010950554