20

 C    0.0081375140    1.6349378806    0.0292302341
 C    0.0473857204    0.1155158911    0.0179736133
 C    1.0709443944   -0.6028458194   -0.9017224960
 C    1.3277631483   -1.6558326863    0.2353735758
 C    2.7853890810   -2.0433729309    0.5027399423
 C    0.6733859343   -0.6288710600    1.2277502467
 C    0.4994751633   -2.8429401056    0.0663105096
 C   -0.1790221301   -3.8268008570   -0.0727696576
 H    1.0032177538    2.0537705690    0.2199959703
 H   -0.3410559311    2.0316458145   -0.9307725114
 H   -0.6654105288    2.0103727916    0.8078851939
 H   -0.9542370862   -0.2828898792   -0.1738997371
 H    0.7235471446   -0.9851494376   -1.8633149310
 H    1.9665829752    0.0072878893   -1.0608135296
 H    3.4000347559   -1.1462955013    0.6284715251
 H    2.8688094827   -2.6484660048    1.4110288562
 H    3.1935244495   -2.6271539364   -0.3283517709
 H    1.4486345932   -0.0266495321    1.7136087960
 H    0.0041703191   -1.0322405501    1.9899487688
 H   -0.7784011035   -4.6944950454   -0.1955652484