15

 C    0.0300281397   -1.1802195854   -0.3090698335
 C   -0.0022127941    0.0064626423   -0.1094571567
 C    0.0056914396    1.4037721013    0.1266437107
 N   -1.1561978621    2.1014910602    0.2171675511
 N   -0.7024321311    3.3318038023    0.4354972224
 C   -1.0458980622    4.7419140420    0.6655287747
 C    0.5198654394    4.9756467456    0.7416477716
 C    0.6307472068    3.4760488219    0.4910925209
 C    1.1702758197    2.2234733273    0.2923194860
 H    0.0450069177   -2.2269047255   -0.4854523952
 H   -1.5570163720    5.2161259726   -0.1757217123
 H   -1.5984154675    4.9177268073    1.5916148462
 H    0.9185155287    5.6206094511   -0.0441727080
 H    0.8774655697    5.3241161617    1.7127740046
 H    2.1953257578    1.8972395752    0.2612220175