15

 C   -0.0823103344    1.5370604110   -0.0207223318
 C   -0.0231629950    0.0255504487    0.0228576493
 C   -1.2359995895   -0.6892141952   -0.5375986740
 N    1.3056927489   -0.5454487926   -0.2237483391
 C    0.7217276377   -0.6649207573    1.1321906679
 C    1.3784541400    0.0605502799    2.1921581979
 N    1.8747909833    0.6400060524    3.0610496691
 H    0.8290558741    1.9776000108    0.3868996960
 H   -0.1942892648    1.8770918685   -1.0556563789
 H   -0.9373746723    1.9080789573    0.5535855361
 H   -1.3600308723   -0.4489679015   -1.5994298389
 H   -1.1441327244   -1.7761324684   -0.4432807900
 H   -2.1492909765   -0.3801683070   -0.0190711462
 H    1.2355542040   -1.4464358647   -0.6921250858
 H    0.3420759213   -1.6342680419    1.4446088985