19

 C   -0.1065346270    1.4522951884   -0.1111706380
 C    0.1190401700   -0.0367565327   -0.0001096332
 O   -0.9273895435   -0.7095467230   -0.6009568151
 C    1.4861511632   -0.6147699297   -0.0260767585
 C    0.7338512670   -0.6411074948    1.3210620583
 C    1.2347657415    0.2078533336    2.4715203664
 O    2.2683964512   -0.4455641723    3.1980583232
 C    0.1698508557   -1.9424157923    1.7234360874
 O   -0.2297330897   -2.7957291887    0.9489935803
 H    0.7284398389    2.0305827704    0.2865837938
 H   -0.2269630498    1.7060800772   -1.1689239545
 H   -1.0228760307    1.7428059797    0.4100850065
 H   -0.8261858653   -1.6579790084   -0.4048690769
 H    1.6170726611   -1.5759696293   -0.5132193936
 H    2.3385678913    0.0561532508   -0.0825204238
 H    1.5605784806    1.1938730105    2.1153272509
 H    0.4349967893    0.3768590408    3.2010173245
 H    2.9809992583   -0.6412745588    2.5798348766
 H    0.1011450179   -2.1073494513    2.8165962957