17

 C    0.0281138943    1.5006656328    0.0595171614
 C    0.0107584277    0.0086001375   -0.0055973382
 C   -0.0203250639   -0.7943128238   -1.0707591004
 C   -0.0730686164   -2.2497289175   -0.6741082582
 N    0.0086786598   -2.2741670009    0.8071398788
 C    1.2459822308   -1.7385970763    1.3603779446
 C    0.0440930774   -0.8481154546    1.2330164509
 C   -0.7126889801   -0.4465036714    2.3940587896
 N   -1.3019028586   -0.0789449612    3.3185151856
 H    0.9436098807    1.8674091986    0.5394519885
 H   -0.0380753807    1.9405166891   -0.9380511705
 H   -0.8100684025    1.8747517305    0.6587889000
 H    0.0011382641   -0.4632349718   -2.1025934177
 H   -1.0107454551   -2.7282314554   -0.9836378704
 H    0.7448150350   -2.8458784031   -1.0973606708
 H    1.5155567996   -2.1435357671    2.3315002968
 H    2.0754494078   -1.5127860052    0.6932739599