19

 C   -0.1190315002    1.5798186409    0.0702099138
 C   -0.0210544379    0.0477239011    0.1027166233
 C   -1.3665037013   -0.5984884900   -0.0851200129
 O   -2.3223404532   -0.2919127111    0.9691704570
 C   -2.6703869918   -1.6816568667    1.1434997533
 C   -1.7531254409   -2.1139492233   -0.0140256954
 N   -2.3102878507   -1.9751220261   -1.3606437350
 C   -2.0797449294   -0.5952165308   -1.4474914520
 N   -2.3413502085    0.3262947220   -2.2710866874
 H    0.8665219504    2.0310482149    0.2165359248
 H   -0.5237551501    1.9194643447   -0.8863350443
 H   -0.7807323663    1.9359213073    0.8644970907
 H    0.6475583961   -0.3081778122   -0.6904254586
 H    0.4001801138   -0.2864592322    1.0584903684
 H   -2.3542223350   -2.0479503940    2.1283864655
 H   -3.7421577962   -1.8716393270    1.0105289292
 H   -1.0629251566   -2.9455695943    0.1264234342
 H   -3.1161754737   -2.4670712988   -1.7245724665
 H   -2.9009367186   -0.0091128045   -3.0579060981