20

 C    0.1600857849    1.5039097770    0.3586213923
 C    0.0406884338    0.0027131844    0.0455929660
 C   -1.3905322667   -0.5452476433    0.2439486698
 C   -1.8746885472   -0.4783139903    1.7001127773
 N   -3.1928410848   -1.0648587265    1.8759944346
 C   -4.3157584926   -0.3153863566    2.0490447146
 O   -4.3449321094    0.8953036807    2.1113497583
 C    0.4436785815   -0.2479209955   -1.3956140215
 O    1.2643932634   -1.0498858209   -1.7581330668
 H    1.1801732798    1.8598364738    0.1849857820
 H   -0.5158803243    2.0922868774   -0.2718830396
 H   -0.0905698022    1.7154283955    1.4008381703
 H    0.7356043012   -0.5706784691    0.6699923427
 H   -2.0956851179    0.0092452398   -0.3878774690
 H   -1.4190118699   -1.5900196947   -0.0911929897
 H   -1.1601757070   -0.9897182791    2.3565696302
 H   -1.9614040092    0.5565503847    2.0352218120
 H   -3.2969199558   -2.0643065317    1.7992386466
 H   -5.2211427528   -0.9479552742    2.1375033565
 H   -0.1079905849    0.3826180985   -2.1344768366