14

 O   -0.9193200123    0.1141031081    0.3353625384
 C   -0.4673040385    1.2082039036    0.2091752861
 C   -1.1784912603    2.5448821517    0.0406465807
 O   -0.1561966939    3.5092710374    0.2111508839
 C    1.0631154895    2.8688781834   -0.0694595849
 C    2.1625356744    3.3970164730    0.8519545335
 C    2.4669279747    4.8002840411    0.5902393706
 N    2.7138494687    5.9068788198    0.3717177175
 O    0.8735163153    1.4789207239    0.1859172612
 H   -1.6416265751    2.5966928092   -0.9555810230
 H   -1.9513715872    2.6840825176    0.7989866298
 H    1.3425278685    2.9899943839   -1.1270783157
 H    1.8352468804    3.2716835030    1.8885581953
 H    3.0640688258    2.7942824744    0.7040268665