18

 C    0.1391687196    0.8842692008   -0.8780700954
 C    0.0124802157   -0.0277730766    0.3214230344
 O    0.8479334937   -0.0884023134    1.1933139120
 C   -1.2233037494   -0.9313069183    0.3754503238
 C   -0.8431183370   -2.3828276341    0.0794207510
 C   -2.0258450368   -3.3897482417    0.0916756863
 N   -2.1168661412   -3.8996043916   -1.2872431515
 C   -1.1736213789   -3.3439196060   -1.9216415254
 O   -0.3458337494   -2.4756241821   -1.2894369125
 H    1.0709949552    1.4486836479   -0.8303770943
 H    0.1087998261    0.2777013188   -1.7904036193
 H   -0.7126523561    1.5728646890   -0.9241436407
 H   -1.6255700077   -0.8872924390    1.3931468220
 H   -2.0007854320   -0.6076769742   -0.3242372510
 H   -0.0223093757   -2.6802065157    0.7368950439
 H   -1.8564614259   -4.2211316605    0.7831874460
 H   -2.9711548343   -2.9147454642    0.3765009013
 H   -0.9437631058   -3.4965030489   -2.9704046606