20

 C   -0.0803359263    1.4982472796    0.0082736985
 C   -0.0212358022   -0.0322232531    0.0017356895
 C   -1.4008610844   -0.6316389086   -0.2547015942
 C    1.1410477438   -0.5741692605   -0.8867815394
 O    1.5133527322    0.2791441351   -1.9445559839
 C    2.0492076431   -0.6600852821    0.3693924912
 C    0.7580818314   -0.5979944591    1.2291874133
 O    0.7326994931    0.2305731748    2.3686909517
 H    0.8961263903    1.9510759407    0.1900708707
 H   -0.4422802446    1.8628850768   -0.9569052642
 H   -0.7589673781    1.8431797291    0.7931402450
 H   -1.7968719717   -0.3028501653   -1.2221235815
 H   -1.3677722866   -1.7269728346   -0.2610714047
 H   -2.1120603518   -0.3225008801    0.5195476134
 H    0.8970804886   -1.5782372546   -1.2645431702
 H    2.2617966114   -0.1165598651   -2.4019163693
 H    2.7066464546   -1.5267922240    0.4786232856
 H    2.6285286166    0.2598406619    0.4845985417
 H    0.4011641716   -1.6090917576    1.4754989151
 H    1.2749348690   -0.1779661232    3.0506035517