13

 O   -0.0111488248    1.4351059780    0.0062320611
 C   -0.0029098929    0.0252915850    0.0025539451
 C   -1.4119134372   -0.4735469397    0.0122681843
 C   -2.4961878099    0.3209334413    0.0241462907
 N   -3.7886209682   -0.1996726137    0.0330369873
 N   -4.0349655357   -1.4012901461    0.0306183440
 O   -2.9047330079   -2.3419599907    0.0176305741
 C   -1.6036942767   -1.9267895287    0.0085525183
 O   -0.7105009661   -2.7351299174   -0.0017148903
 H    0.8984487747    1.7454767333   -0.0001105852
 H    0.5036936517   -0.3936847193   -0.8817111653
 H    0.5172303050   -0.3980299421    0.8768851348
 H   -2.4351113121    1.4000023701    0.0274920611