13

 O   -0.1553782932    1.3958026211    0.0833569614
 N    0.0357380109    0.0113851608    0.1893710001
 C   -1.0475205271   -0.6093581869    0.0209648095
 C   -2.4991160894   -0.3275549042   -0.2603639887
 O   -2.7744001646   -1.7502058301   -0.2242310231
 C   -1.3825426193   -2.0939282635    0.0497556308
 C   -0.7765435778   -2.9454123945   -0.9582400317
 C   -0.2718120107   -3.6538903007   -1.7866459293
 H    0.7345437291    1.7382728219    0.2225295231
 H   -3.0355624487    0.2276522679    0.5187155683
 H   -2.7150841625    0.1191758349   -1.2386420038
 H   -1.2851913264   -2.5500174298    1.0443632960
 H    0.1745851897   -4.2783538968   -2.5209457628