21

 C    0.9974480824   -0.3231141054    1.0364688798
 C    0.0132387940    0.0467514550   -0.0745486358
 O    0.5542347236   -0.2086933703   -1.3679363266
 C   -1.3799002400   -0.6165736794    0.0707341858
 C   -2.2621458040   -0.2783690505   -1.1757539707
 O   -2.0967096176    1.0479129113   -1.6220275438
 C   -1.2640284158   -2.1311176296    0.1643077406
 C   -2.1087036936   -2.8495754704    1.1913009786
 O   -0.5243819490   -2.7381565623   -0.5902851783
 H    1.9362501210    0.2164642109    0.8867273094
 H    0.6000312766   -0.0531557129    2.0213302919
 H    1.2205783025   -1.3943919623    1.0338989027
 H   -0.1584999549    1.1271586068   -0.0426026354
 H    0.5395934675   -1.1724582556   -1.4720612176
 H   -1.8631691893   -0.2187391234    0.9699126523
 H   -2.0276296287   -0.9946270970   -1.9732515533
 H   -3.3199274524   -0.3958306209   -0.9193793944
 H   -1.2260148588    1.0734978468   -2.0399284941
 H   -1.8076561230   -2.5385010481    2.1987478133
 H   -3.1623282484   -2.5678797160    1.0802416978
 H   -1.9963823221   -3.9296157269    1.0899089276