19

 O   -0.2359890689    1.4374277218   -0.7745249941
 C   -0.0430814452    0.1493828163   -0.2228607546
 C   -1.3641621926   -0.5497406516    0.0120983897
 C   -2.0335152144   -1.2857479891   -1.1048643007
 C   -1.4569432361   -2.0516862261    0.0707207898
 O   -2.2461466012    0.2087467552    0.8111757522
 C   -1.9528601513    0.1737445841    2.2072026939
 C   -2.9617225097    0.9341962261    2.9307648382
 C   -3.7791716973    1.5586228383    3.5500320872
 H   -0.9995819882    1.8115454663   -0.3181972581
 H    0.5605234520   -0.4271696406   -0.9314754817
 H    0.5313073645    0.2036086359    0.7178768343
 H   -3.1126769412   -1.2057836946   -1.1589556568
 H   -1.5258743290   -1.3316355146   -2.0616458711
 H   -0.5527624879   -2.6338210730   -0.0731004147
 H   -2.1640461802   -2.4818223009    0.7712724594
 H   -1.9374231017   -0.8667745903    2.5635748323
 H   -0.9581872584    0.5962783891    2.4127919486
 H   -4.5050490630    2.1112576576    4.0937463665