19

 C   -0.1301242685    1.4969458795    0.0116652861
 N   -0.0194500375    0.0441567119    0.0279757482
 C    0.0569425158   -0.6012795783   -1.2103244224
 O    0.0464910968    0.0061008649   -2.2687215362
 N    0.1849676744   -1.9636544356   -1.1638964562
 C   -0.0572424140   -2.8241922165   -0.0162177703
 C    0.0492638625   -2.0180614074    1.2400845086
 C    0.0559794576   -0.6803565909    1.2324102489
 C    0.1551757465    0.1207105644    2.5012609938
 H    0.7288297918    1.9744600915    0.4943686656
 H   -0.1608319708    1.7992328887   -1.0331344288
 H   -1.0448632910    1.8340823358    0.5105639220
 H    0.1709813226   -2.3739466160   -2.0840503515
 H   -1.0450702900   -3.3152157169   -0.0885838681
 H    0.6842150148   -3.6360904106   -0.0166761036
 H    0.1116882941   -2.5489347911    2.1809295647
 H    0.2044342150   -0.5525272911    3.3584053787
 H    1.0495303074    0.7533695683    2.5132266627
 H   -0.7079996274    0.7809432892    2.6373473078