13

 C   -0.0076411338    1.4107875094    0.0013824761
 O    0.0035856527   -0.0237180220   -0.0003177219
 C    0.5967152894   -0.5990408495   -1.0403331654
 N    1.1511283655    0.0736306876   -2.0277490150
 O    1.6510226346   -0.8863094577   -2.8988005707
 C    1.3755955678   -2.1094820255   -2.3959984793
 C    0.7067113919   -2.0084237491   -1.2172545378
 C    1.8049273540   -3.2366027886   -3.1395317710
 N    2.1482167781   -4.1680937362   -3.7337652944
 H    1.0136025245    1.8024213040    0.0008656713
 H   -0.5361443776    1.7913344226   -0.8773565316
 H   -0.5271823499    1.6990370512    0.9145569937
 H    0.3486931227   -2.7943087360   -0.5755539138