17

 O   -0.1084593865    1.4202252908    0.1824500097
 C   -0.0619962706    0.0207594082   -0.0674578182
 C   -1.4658730476   -0.4928030277    0.0011870991
 N   -2.4985521191    0.1022876793   -0.9134441558
 C   -3.4745574896   -0.4235692232    0.0952373002
 C   -3.2646903381   -1.9527286116    0.0994461248
 C   -1.7810734799   -2.0043747782    0.0302768259
 N   -2.4629637093   -1.9934806700    1.3704601507
 C   -2.4195772173   -0.4617896587    1.2400747093
 H    0.7733556745    1.7814179763    0.0548498738
 H    0.3526654978   -0.1951878064   -1.0649988409
 H    0.5563342371   -0.5040409456    0.6772538928
 H   -2.4362036750    1.1153628172   -0.7941399547
 H   -4.4744657861    0.0028436716    0.1355581366
 H   -3.9314225753   -2.7538432898   -0.1917337268
 H   -1.1950637792   -2.8451573644   -0.3193722325
 H   -2.3467912860    0.1812802521    2.1148545561