18

 O   -0.0982476958    1.4778434341    0.0602443378
 C   -0.0268006643    0.0801809977    0.0316366495
 C    0.3532071419   -0.7078951771    1.3189615268
 C   -0.8372246089   -1.6771499884    1.0377334725
 C   -1.9156482923   -1.7728219600    2.1089005878
 C   -2.6924270817   -0.4804041044    1.9396275067
 N   -3.4916166246    0.0151429599    2.7802995820
 O   -2.4124406218    0.0752857825    0.7181193846
 C   -1.3955990675   -0.6388497940    0.0174546772
 H    0.7984692816    1.8271572166    0.0737435947
 H    0.5637050206   -0.2840976257   -0.8232790805
 H    1.3535541656   -1.1434897930    1.3612591110
 H    0.1851907193   -0.1056756453    2.2163820171
 H   -0.5390125624   -2.6347140075    0.6120834938
 H   -2.5891048558   -2.6187456897    1.9308140934
 H   -1.5334536375   -1.8632703858    3.1271969010
 H   -3.8922801302    0.8839673406    2.4222803276
 H   -1.7952321362   -0.9535959804   -0.9494942532