21

 C    0.2337413907    1.4715454535   -0.2512454213
 C    0.2002068831   -0.0263152902   -0.0358912657
 C    1.4611636690   -0.8649446720   -0.0782835982
 O    2.7179256301   -0.2175648091   -0.1778056966
 C    3.1568576274    0.0551014304   -1.4246053715
 O    4.2086536156    0.5797394885   -1.6345507731
 C    0.7231466473   -0.7075089068    1.2241749597
 C    1.3540981345    0.1144201551    2.3330627086
 C   -0.0448892187   -1.9204608513    1.7193236636
 H    1.1598354663    1.9226794387    0.1095502391
 H    0.1444317858    1.7107222589   -1.3168214306
 H   -0.6001381072    1.9575816629    0.2658000108
 H   -0.6665004845   -0.5106747697   -0.4810297800
 H    1.4468811714   -1.8327001750   -0.5735435486
 H    2.4444782789   -0.2642700125   -2.2090695895
 H    1.9861023144    0.9176042287    1.9540706962
 H    0.5799298248    0.5540287254    2.9717103650
 H    1.9821323528   -0.5237174116    2.9643683030
 H    0.6012584799   -2.5831785946    2.3064018135
 H   -0.8799248067   -1.6150968566    2.3602828511
 H   -0.4598335651   -2.5038630329    0.8912651548