22

 C   -0.5123458480    0.5366966214   -2.6532849147
 C   -0.2326649085   -0.4587555714   -1.5195790652
 C   -1.5023065889   -0.8611431714   -0.7950907994
 C   -2.3722873415   -2.0253301761   -1.1965526746
 C   -2.0762141028   -2.9426217261   -2.3634372483
 C   -1.5751008635   -2.0949593607    0.1131303477
 C   -0.3926686376   -3.0381864368    0.2912371831
 C   -2.3510894170   -1.9305565125    1.3187179542
 N   -2.9699355097   -1.8013462636    2.2885951778
 H    0.4154512160    0.8362823642   -3.1497186053
 H   -1.1741440448    0.1013388864   -3.4088999097
 H   -0.9954055437    1.4428392040   -2.2725277998
 H    0.2827642918   -1.3334855650   -1.9267114471
 H    0.4598826247   -0.0062737983   -0.7987942233
 H   -2.0505913041   -0.0057295554   -0.4076876758
 H   -3.4359433334   -1.8633915507   -1.0461958635
 H   -1.0080562273   -3.0836873420   -2.5404210598
 H   -2.5192407914   -3.9309416097   -2.2026555975
 H   -2.5085800108   -2.5322215221   -3.2822203675
 H    0.1809568104   -3.1506877020   -0.6290001971
 H    0.2838367317   -2.6634955783    1.0651169438
 H   -0.7360106716   -4.0305609441    0.5982490418