19

 O    0.2935198571    1.0398660086    0.7573314603
 C    0.0210614490    0.0847337607   -0.2619048000
 C   -1.3283220828   -0.4698028365   -0.2056753710
 C   -2.4615517148   -0.8835327596   -0.1438021487
 C   -3.7942996296   -1.3745892098   -0.0979431615
 C   -4.4872699030   -1.7397437061    1.2001487095
 C   -4.3155332389   -2.8118464388    0.1731295013
 C   -5.3578731782   -2.6599491905   -0.9379176346
 C   -4.8534986530   -1.2053300182   -1.2066215412
 H   -0.4382413226    1.6656421320    0.7624315246
 H    0.1943432598    0.5113436926   -1.2635486080
 H    0.7648137448   -0.7093416057   -0.1278936362
 H   -3.8310380782   -1.8015493129    2.0610965760
 H   -5.4733716825   -1.3294739956    1.4095439158
 H   -3.7241569710   -3.6975178123    0.3700623977
 H   -5.1774990153   -3.3198062932   -1.7886117514
 H   -6.4010576694   -2.7711881451   -0.6249088582
 H   -5.5690423514   -0.3917411291   -1.0511405030
 H   -4.4062336201   -1.0968272805   -2.1959117213