19

 C   -0.0436262117    1.5562834825    0.0062243499
 C    0.0370873595    0.0293801511   -0.0215122913
 C    0.6799959948   -0.5008755631   -1.3047346639
 C    0.9302784415   -2.0068008241   -1.1996465576
 C    1.8938699804   -2.2969523981   -0.0441159991
 C    1.5580126151   -1.5714067514    1.2553115870
 O    1.9926083073   -1.9388292329    2.3317861646
 N    0.7852637077   -0.4457552817    1.1423788001
 H    0.9561768052    1.9976911473   -0.0545610126
 H   -0.6394953463    1.9228518818   -0.8352448888
 H   -0.5172041458    1.9108556416    0.9282860752
 H   -0.9914286769   -0.3667099605    0.0247922675
 H    0.0243556690   -0.2662159687   -2.1495722952
 H    1.6302646039    0.0221801340   -1.4762608388
 H   -0.0236757668   -2.5229109137   -1.0301736490
 H    1.3354934447   -2.4000057421   -2.1375743102
 H    1.9526494281   -3.3619721923    0.1925241077
 H    2.9108316011   -1.9856505890   -0.3167643727
 H    0.5707334494   -0.0229803507    2.0356211570