19

 C   -0.0752094173    1.5174216846    0.0239925030
 C   -0.0344033498    0.0195477277   -0.0000150320
 C   -0.0306673708   -0.7863657195   -1.1146563959
 N    0.0108776298   -2.0952142803   -0.7014534178
 C    0.0366873202   -2.1434820884    0.6676723425
 C    0.0025474281   -0.8494108681    1.1412467273
 C    0.0332023622   -0.4275218376    2.5627672568
 C   -1.2181739070   -0.0628587079    3.2847434326
 N   -0.4957853530   -1.3023901961    3.6253648962
 H    0.8276018239    1.9445898219    0.4776586043
 H   -0.1588956347    1.9259793660   -0.9872941726
 H   -0.9263797334    1.8902724684    0.6057578783
 H   -0.0615199740   -0.5329531871   -2.1628206346
 H    0.0216093027   -2.8947381688   -1.3088748874
 H    0.0975622416   -3.0839657059    1.1920815679
 H    0.9377186751    0.0953043597    2.8729644290
 H   -1.1999678226    0.7036144942    4.0545832782
 H   -2.1533912655   -0.1435585105    2.7375894096
 H   -0.9792490858   -2.0859308920    3.1918069845