22

 C   -0.1576932748    1.6944164198   -0.1914930271
 C    0.0884841912    0.2028879988   -0.0757436183
 C    1.3881620364   -0.5105248041   -0.3755043354
 C    2.7051131563    0.2594399039   -0.3303188347
 C    2.7683877440    0.9332240018    1.0634717416
 C    1.7923638561    0.1459153704    1.9771242433
 C    1.1561427893    0.9908627370    3.0855761595
 C    0.8137682158   -0.5429979268    1.0280567649
 H    0.7071708682    2.3036715323    0.0728870710
 H   -0.4316552390    1.9511188888   -1.2215012941
 H   -0.9883723584    2.0039847108    0.4529215698
 H   -0.7731450571   -0.3627409773   -0.4276917273
 H    1.3471514653   -1.3823577804   -1.0208524259
 H    3.5288373517   -0.4542606513   -0.4457665514
 H    2.8081919408    0.9874693469   -1.1432830847
 H    3.7844657840    0.9347950600    1.4697975528
 H    2.4665564439    1.9830347457    1.0057251268
 H    2.3605780262   -0.6615930982    2.4602560086
 H    0.5672099858    1.8143745600    2.6692238586
 H    0.4893337646    0.3879142953    3.7112443018
 H    1.9216571064    1.4238050132    3.7391980183
 H    0.3265542433   -1.4368892366    1.4067614419