14

 N   -0.0334498353    1.3753735209    0.1307161011
 C   -0.0416290357    0.0131846322    0.0390162605
 C   -1.2112807782   -0.7250062170   -0.0058068080
 O   -2.4219165531   -0.0522142122   -0.0786827304
 C   -1.0814476292   -2.1200431632   -0.0776986154
 N    0.0449377444   -2.7981498922   -0.0723569886
 C    1.2316524378   -2.1063802502   -0.0092840977
 O    2.3436957251   -2.5880160754    0.0145093487
 N    1.1223945561   -0.6765124871    0.0251775452
 H    0.7684192627    1.8710766156   -0.2270281461
 H   -0.9256169184    1.7987617068   -0.0803619778
 H   -2.9035447669   -0.1744463095    0.7467677137
 H   -2.0015793284   -2.7039250816   -0.1456528386
 H    2.0100959989   -0.1965671371    0.0851651235