21

 C    0.0407125423    1.3190319020   -0.1139756316
 O    0.1737966524   -0.0801674059   -0.0823569724
 C    0.5904213596   -0.5636374493    1.1759773007
 C    0.6914831160   -2.0807780555    1.1035956288
 C    1.1597234130   -2.7006299317    2.4196036450
 N    1.1993375193   -4.1555816345    2.3209277743
 C    2.4484202847   -4.7355700226    1.8383215271
 C    2.0617562997   -4.8450142796    3.2721673198
 H    0.9938310734    1.8273513050    0.1053244695
 H   -0.2820979645    1.5959694803   -1.1206897188
 H   -0.7094018709    1.6765166705    0.6100495591
 H    1.5652127395   -0.1220057538    1.4510908328
 H   -0.1274793282   -0.2608324628    1.9592538231
 H   -0.2844643342   -2.4967589629    0.8336256919
 H    1.3855000883   -2.3497117455    0.2988456767
 H    2.1446971687   -2.2823685447    2.7036101581
 H    0.4616951850   -2.4423211161    3.2262250845
 H    2.3513035031   -5.5866581838    1.1705513201
 H    3.2666583013   -4.0578561068    1.5968519796
 H    2.6236698433   -4.2414520145    3.9839750697
 H    1.6752619681   -5.7777881778    3.6730733919