16

 N    0.2253732739    1.4839979362   -0.0944130264
 C    0.0618869476    0.0305158739   -0.0273398380
 C    0.6969075481   -0.6000006380   -1.2658342173
 O    0.0489554641   -0.0431779214   -2.4008849348
 C    0.8052314523   -0.4528868439    1.2464220050
 O    2.1014859704    0.0852578587    1.2945576353
 C    0.0182445435   -0.0755283414    2.4464551596
 N   -0.6089310628    0.2434146530    3.3633088940
 H    0.0648967685    1.7832779542   -1.0508933146
 H   -0.4556382736    1.9510673489    0.4957674267
 H   -0.9882896626   -0.2906052655    0.0260324977
 H    1.7730487447   -0.3829611413   -1.2667575192
 H    0.5642392743   -1.6913229942   -1.2241037148
 H    0.5575107785   -0.2695444299   -3.1845865726
 H    0.8936926403   -1.5453785483    1.2378735793
 H    1.9899681028    0.9892693190    0.9471984501