21

 C   -0.0371129769    1.6037971574    0.0839228070
 C   -0.0514683404    0.0748478706   -0.0351060980
 C    0.6992181731   -0.5022361683   -1.2491844419
 C    0.0813363633   -0.0450556986   -2.5825096884
 C    2.2097244744   -0.1603622253   -1.2218932615
 O    2.8862489738   -1.2458269379   -1.8745594011
 C    2.1131336911   -2.3684118591   -1.8696487845
 O    2.4938091780   -3.4086471875   -2.3202816232
 C    0.7762640201   -2.0407412005   -1.2160079965
 H    0.9839642628    1.9977959163    0.1301142270
 H   -0.5425187203    2.0857669992   -0.7579069966
 H   -0.5499754541    1.9198317091    0.9970948039
 H    0.3843963907   -0.3569676391    0.8753100826
 H   -1.0907643409   -0.2758561154   -0.0686409769
 H    0.1185587769    1.0423234819   -2.6933564632
 H    0.6171377554   -0.4807860517   -3.4321578804
 H   -0.9662509202   -0.3564382068   -2.6516603308
 H    2.4608449852    0.7556398324   -1.7613090048
 H    2.5877277203   -0.0786167512   -0.1947339931
 H    0.8015213058   -2.4238791559   -0.1884345402
 H   -0.0360003081   -2.5504443299   -1.7372862395