13

 C   -0.0035784604    1.6008965460   -0.0434905874
 C   -0.0076431747    0.0578678054   -0.0545601745
 C    0.7354686630   -0.5074643366    1.2051257052
 O    1.1667641667    0.1921129278    2.0721055074
 C   -1.3618943036   -0.4975802457   -0.0015722766
 C   -2.4640794225   -0.9599424914    0.1139870083
 C    0.7077213492   -0.4625310642   -1.2327054180
 N    1.3083507341   -0.8726409176   -2.1305073651
 H    1.0234678073    1.9700628471   -0.0511172857
 H   -0.5346157207    1.9825793301   -0.9165950006
 H   -0.4953024195    1.9529179037    0.8641604328
 H    0.8001112656   -1.6126023315    1.2217466189
 H   -3.4444102343   -1.3631724531    0.1913944553