17

 C   -0.1003651129    1.5453314161    0.1015810238
 C    0.0219404064    0.0340280206   -0.0104637530
 C    0.7530347565   -0.6047498008    1.1648691615
 O   -1.3478783762   -0.4639153761   -0.0776137895
 C   -1.5400690249   -1.6615746378   -0.6146936435
 N   -0.6162007087   -2.4556029624   -1.0935968808
 O   -1.3007835061   -3.5617267824   -1.5520736646
 N   -2.6437561302   -3.4385978016   -1.3477860550
 C   -2.8159652727   -2.2847224897   -0.7736823388
 H    0.8943565710    1.9987334945    0.1317362221
 H   -0.6435504355    1.9563775945   -0.7530887784
 H   -0.6330987289    1.8213708122    1.0168021955
 H    0.5138974359   -0.2412161449   -0.9495688447
 H    0.8034272145   -1.6896108645    1.0523297496
 H    1.7764118323   -0.2206638080    1.2157844269
 H    0.2473701130   -0.3652512747    2.1054640927
 H   -3.7924872135   -1.9230588050   -0.4946459038