12

 N    0.0135626183    1.3738065416    0.0864346938
 C   -0.0438642016    0.0253240081    0.0297425899
 C   -1.1620735138   -0.7700702907    0.0128652304
 N   -1.1228649002   -2.1370379575   -0.0125007148
 N   -0.0163258553   -2.7644610951   -0.0274125955
 N    1.1244644677   -2.0131698452   -0.0207197088
 C    1.2580769628   -0.6432135570    0.0021594932
 O    2.3348044614   -0.0639992566   -0.0059768714
 H    0.9284945542    1.7829183883   -0.0294086108
 H   -0.8016019784    1.9426410085   -0.0573054057
 H   -2.1615295973   -0.3479206493    0.0225743633
 H    1.9730913220   -2.5638175751   -0.0413428237