16

 C    0.0211335320    1.4749793470   -0.0227025999
 C   -0.0581811642   -0.0219441999    0.0148466027
 C   -1.1869082936   -0.7473483574   -0.1500312991
 C   -1.1349002894   -2.1915735198   -0.0922478105
 C    0.2023786244   -2.7350107313    0.1509729900
 N    1.2702767062   -2.0208449938    0.3060381207
 N    1.1320506597   -0.6810867930    0.2370180124
 N   -2.2196468876   -2.8819591303   -0.2510748100
 O   -1.9514516924   -4.2684998099   -0.1588897182
 H    0.6940058376    1.8163614782   -0.8183307721
 H   -0.9658899082    1.9028041399   -0.2030060248
 H    0.4012944238    1.8756026590    0.9245606568
 H   -2.1367020511   -0.2588158952   -0.3261128324
 H    0.3379498071   -3.8063680793    0.2103253283
 H    1.9904225022   -0.1722093044    0.3643024432
 H   -2.8260173664   -4.6455070900   -0.2930532671