21

 C    0.0314309090    1.5720977426    0.0238516759
 C   -0.0163290767    0.0430834281    0.0880178200
 C   -1.4283229425   -0.5261729544   -0.0964782678
 C   -1.4897739015   -2.0453268085   -0.0149654675
 C   -1.2426809753   -2.7496250569    1.3526110794
 C   -2.3666149170   -3.7584444485    0.9938407840
 C   -2.8750671629   -2.7506422999   -0.0717404713
 H    1.0510637686    1.9477900519    0.1560488912
 H   -0.3364732522    1.9396584346   -0.9407450718
 H   -0.5921614306    2.0204486026    0.8055097933
 H    0.6452470366   -0.3774061359   -0.6811569120
 H    0.3872084388   -0.2954722521    1.0512463503
 H   -2.0952785538   -0.0986701696    0.6663581595
 H   -1.8286865845   -0.1980509796   -1.0666197290
 H   -0.8262828040   -2.4807774913   -0.7731222663
 H   -0.2446027991   -3.1452895057    1.5569575387
 H   -1.5354518835   -2.1017148298    2.1863528525
 H   -1.9641405206   -4.6654554183    0.5331956529
 H   -3.0580524889   -4.0529671108    1.7869237515
 H   -3.6622995831   -2.1036145855    0.3303895111
 H   -3.2105264367   -3.1444861430   -1.0347611147