20

 C   -0.0869729703    1.5014376774    0.1078598864
 C    0.0152922374   -0.0027405071    0.0569433830
 C    0.8671177530   -0.7908063669   -0.9590075213
 N    0.8533157674   -1.9366566382    0.0154648400
 C   -0.6228264289   -2.1519423887    0.4216918345
 C   -0.2284122416   -1.8121327625    1.8733189423
 C    0.7574999348   -0.9035739974    1.1402419711
 C   -1.2847435963   -0.8291117728   -0.0523475270
 O   -2.3014558051   -0.3109055637    0.7871108493
 H    0.8966890221    1.9617957640    0.2484757546
 H   -0.5114859159    1.8974600526   -0.8221551573
 H   -0.7377904333    1.8185959466    0.9278722842
 H    0.4582097569   -0.9867889493   -1.9568294871
 H    1.8967264234   -0.4315649543   -1.0504945385
 H   -1.0766798297   -3.1010303221    0.1337923716
 H   -0.9868848646   -1.3776784391    2.5221860398
 H    0.2960441171   -2.6382021941    2.3576184687
 H    1.6864454416   -0.5231964953    1.5691437663
 H   -1.6445602812   -0.8787987859   -1.0892889577
 H   -3.0702218167   -0.8863431434    0.7224505573