21

 O   -0.1888355436    1.5250894713    0.0219374786
 C    0.0112264920    0.1232234682    0.1359205121
 C   -1.3413040043   -0.5501198347   -0.0396175192
 C   -2.0264692858   -0.2549723681   -1.3891094804
 C   -3.0201235622   -1.4169206969   -1.5591330404
 C   -2.2177512209   -2.6363097652   -1.0725085821
 C   -1.3288172680   -2.0864518352    0.0473915751
 C   -0.2593959017   -2.8920442484    0.6530358465
 O   -1.4820058790   -2.6575436380    1.3539361946
 H    0.6569478606    1.9623133379    0.1561664116
 H    0.7113032561   -0.2435935709   -0.6335218613
 H    0.4341431961   -0.1335325570    1.1197150316
 H   -1.9940019736   -0.1969295199    0.7689163946
 H   -2.4921256557    0.7317308437   -1.4108673174
 H   -1.2814399841   -0.2808075712   -2.1958916281
 H   -3.8929030262   -1.2582152573   -0.9145534647
 H   -3.3859340099   -1.5252136989   -2.5835761979
 H   -2.8303380960   -3.4647175781   -0.7084840005
 H   -1.5900202562   -3.0185798603   -1.8868285510
 H   -0.1038571481   -3.9154156962    0.3092158746
 H    0.6238202908   -2.4185863746    1.0792361140