23

 C   -0.0450178019    1.5335403208    0.1914625938
 C   -0.0597626521    0.0097349815    0.0157169752
 C   -1.4970940646   -0.5109277075   -0.0705228466
 O   -2.1555942251   -0.2098588227    1.1510923196
 C    0.7276932492   -0.4610623540   -1.2206812147
 C    2.2277215294   -0.0860305695   -1.2452448095
 C    3.0163284538   -0.6753916432   -0.0635041075
 C    2.8160719457   -0.6037838774   -2.5436527659
 O    3.2169615131    0.0785763721   -3.4503266861
 H    0.9587262543    1.9111482207    0.4062966977
 H   -0.4022079931    2.0338573769   -0.7172392795
 H   -0.7005406970    1.8204013721    1.0163378158
 H    0.3747968497   -0.4491930784    0.9129429699
 H   -2.0086873484   -0.0384872791   -0.9258920479
 H   -1.4862131785   -1.5975976438   -0.2536832388
 H   -3.0803948782   -0.4577408901    1.0654769935
 H    0.6398823428   -1.5537636850   -1.3049736791
 H    0.2538829185   -0.0436471530   -2.1197177810
 H    2.3382396121    1.0022688754   -1.2660676265
 H    2.9374284836   -1.7686185045   -0.0423076708
 H    4.0772529654   -0.4153197679   -0.1300628609
 H    2.6407613349   -0.2961648858    0.8900017911
 H    2.8466783362   -1.7193690976   -2.6103727420