15

 O    0.0861590893    1.3955484152    0.0864061029
 C    0.0078202280   -0.0274451014    0.0241848194
 C   -1.4720015513   -0.3906598440   -0.0068808078
 C   -2.1477142743   -0.0384856070   -1.3245361939
 O   -3.3083484563    0.3014606801   -1.3935561754
 C   -1.3253874763   -0.2024056058   -2.5533745922
 C   -0.0026806802   -0.4212439727   -2.5154727016
 C    0.7550609879   -0.4677141387   -1.2431548724
 O    1.9361709182   -0.7473643516   -1.2108021055
 H    1.0175426950    1.6367388947    0.1492052714
 H    0.5065186775   -0.4891097346    0.8859581864
 H   -1.5772762971   -1.4750817344    0.1301292838
 H   -2.0061144544    0.1007714860    0.8092817349
 H   -1.8703686769   -0.1283467162   -3.4899556354
 H    0.5856166209   -0.5628352296   -3.4176632146