18

 C    0.0229564878   -1.2352435557    0.0453043227
 C   -0.0003965545   -0.0337412055    0.0681285752
 C    0.0067045238    1.4234601690    0.0912418565
 C    1.4116849377    2.0235448810   -0.1265551700
 C    1.4077621596    3.5458664907   -0.0852476112
 C    1.2523149522    4.2264154445    1.2967111912
 O    2.5318495019    4.8776812921    1.1743490393
 C    2.7818198819    4.2538865113   -0.1010133421
 H    0.0306667737   -2.2967427831    0.0273756603
 H   -0.6754399372    1.8055227975   -0.6799153887
 H   -0.3961643700    1.7735056755    1.0510921984
 H    2.0915796045    1.6337910178    0.6405220172
 H    1.8004563574    1.6787657982   -1.0919433605
 H    0.7156394784    3.9424734796   -0.8343206304
 H    0.4324888843    4.9480026868    1.3972062398
 H    1.2232900788    3.5364778562    2.1520100950
 H    3.6492178073    3.5804098779   -0.0667228135
 H    2.9382815324    4.9926497360   -0.8964336592