17

 O    0.7690306139   -1.5134449880   -0.2169532069
 C   -0.1318148020   -0.5947561554   -0.7967169154
 C   -1.5041589909   -0.6612404519   -0.1412597902
 C   -1.9657170176   -1.9197496766    0.4482131839
 O   -1.4542212521   -0.8507178305    1.2821260481
 C   -2.5576239161    0.3722201759   -0.5743594339
 O   -3.7165144723    0.2740877259    0.2323248756
 C   -2.0122284989    1.7379522662   -0.5686660154
 C   -1.5800766910    2.8591865648   -0.5445872339
 H    0.7251706855   -1.3610217498    0.7357378502
 H    0.2426273552    0.4366391592   -0.7333091203
 H   -0.2180106202   -0.8516260527   -1.8586877903
 H   -3.0312632863   -2.0991134229    0.5518165439
 H   -1.3173613331   -2.7888418174    0.3877478621
 H   -2.8792599796    0.1242437984   -1.5938770903
 H   -3.4014659052    0.3088255396    1.1465051897
 H   -1.2048810994    3.8530205453   -0.5291689770