16

 O   -0.1651990909   -0.0426782526    0.0600709677
 C   -0.0695788914    1.1615156033    0.0610199669
 N   -1.1250406735    2.0650650569   -0.0668814413
 C   -0.7248108531    3.3933506789    0.2024332837
 C    0.6097877230    3.4411145741    0.3274617297
 C    1.6481464502    4.2442114260    0.9411371507
 C    2.6395689797    3.4347475443    1.3626707611
 C    2.3469587725    1.9636772073    1.0950122667
 C    1.1732647492    2.0583833731    0.0937085307
 H   -2.0822225936    1.7520295918   -0.0924553661
 H   -1.4749420931    4.1574658743    0.3463797964
 H    1.6034017842    5.3158895664    1.0903636147
 H    3.5270820727    3.7619928476    1.8916061499
 H    3.2062721316    1.4148679656    0.6996081375
 H    2.0468178051    1.4550611625    2.0211805053
 H    1.5800608471    2.0009826706   -0.9273428236