14

 N   -0.0889549149    1.3088543788   -0.0347302917
 C   -0.0019671419   -0.0436361800    0.0105948860
 O    1.0429846104   -0.6773757455    0.0564764704
 C   -1.3073376430   -0.7324959906   -0.0021760696
 N   -2.5245619242   -0.1993651635   -0.0510764689
 C   -3.3726722150   -1.2595931306   -0.0399962332
 O   -4.7128022524   -1.1105625871   -0.0797917567
 C   -2.6834082187   -2.4551865795    0.0156037859
 N   -1.3613005170   -2.0817528438    0.0386810896
 H    0.7550220648    1.8548196249   -0.0321747037
 H   -0.9902192099    1.7547811181   -0.0735392374
 H   -4.8835572109   -0.1617125179   -0.1144540149
 H   -3.0097492730   -3.4793462714    0.0391953094
 H   -0.5375778442   -2.6616663019    0.0785572946