18

 C    0.1596853933    1.6376782823   -0.1396393885
 C    0.0377723027    0.1163301037    0.0459863848
 C    0.6840409741   -0.6246205052   -1.1131308843
 N    0.2353182261   -0.6587105646   -2.2910288063
 O    1.8397064890   -1.2369885288   -0.7048173289
 C    2.1086835285   -0.9640391646    0.6768451430
 C    0.8011908038   -0.4343989476    1.2412332376
 C    0.6138610868   -0.0498836974    2.6389002464
 O    0.0998920605   -1.2920704223    2.1455678843
 H    1.2073702582    1.9540314559   -0.1792213253
 H   -0.3158586994    1.9304344060   -1.0784199086
 H   -0.3256644077    2.1708984820    0.6828069101
 H   -1.0153450539   -0.1642508342    0.1167135406
 H    0.8522772133   -1.1995408552   -2.8993726981
 H    2.4145533721   -1.8890843676    1.1709014156
 H    2.9200775647   -0.2284485463    0.7445365132
 H    1.4433178440   -0.1316199632    3.3414555755
 H   -0.1343170163    0.6977706072    2.8986789688