14

 N   -0.1074638520    1.2601926305    0.2334013638
 C   -0.0031149127   -0.1023383877    0.0441894940
 O    0.9631650395   -0.7553227118    0.3883529513
 N   -1.1181076817   -0.6657541119   -0.5675103306
 C   -1.2247079283   -2.0998647815   -0.5848953205
 C   -2.5540423231   -2.5603315549   -0.0327834793
 O   -3.4283846447   -1.8200646356    0.3444748038
 C   -2.7411453217   -4.0229669338   -0.0143823615
 N   -2.8727464869   -5.1715168697   -0.0041808454
 H    0.7650627298    1.7008340724    0.4795014482
 H   -0.6913219922    1.7913203082   -0.3938192513
 H   -2.0003005741   -0.1866057975   -0.4454265528
 H   -1.1272319801   -2.5255547956   -1.5967059403
 H   -0.4033439317   -2.5283905010    0.0046320107