21

 C   -0.2977625101    1.3112758242   -0.1027532988
 O    0.2568012596    0.0184996773    0.0708515874
 C    0.7827712188   -0.5251500219   -1.0913219826
 C   -0.1126694079   -1.1189440857   -2.1491457581
 C    0.7850425218   -2.0087919981   -1.3067807194
 C    2.1498558027   -2.3496467043   -1.8854200882
 C    2.1794702675   -3.3646966039   -3.0161416542
 O    2.6495287333   -1.1009436149   -2.3869888074
 C    2.1525906446   -0.0510748023   -1.5698128082
 H    0.4633321228    2.0518689205   -0.3864088758
 H   -1.0864003093    1.3118937473   -0.8678926001
 H   -0.7293589027    1.6028059333    0.8573876708
 H   -1.1710298098   -1.1606884777   -1.9172634701
 H    0.1293099047   -0.9606070248   -3.1953549350
 H    0.3319875818   -2.6695181351   -0.5777124094
 H    2.7956433557   -2.7003624071   -1.0617958819
 H    1.5018458668   -3.0673116711   -3.8213860256
 H    3.1901642314   -3.4457499249   -3.4261087471
 H    1.8755207959   -4.3503347878   -2.6504186416
 H    2.1415840480    0.8581458078   -2.1801202246
 H    2.7891731845    0.1241504994   -0.6867246304