17

 C    0.1009403911    1.5134104420    0.0688289952
 C    0.0046257796    0.0220402543   -0.0404601091
 C    0.4836494289   -0.7295757537   -1.3003432610
 C    0.4446768106   -2.1977116666   -0.7462823584
 O    1.7168617569   -2.7878132983   -0.6278114192
 C   -0.1660316581   -1.8858681244    0.6369352087
 O    0.6713249245   -0.7470904789    1.0409450756
 C   -1.2381283857   -0.8185877698    0.3467705493
 O   -2.4033181350   -0.6473152490    0.5191114552
 H    1.1361087674    1.8467832666   -0.0544659860
 H   -0.5031196534    1.9797921869   -0.7152979989
 H   -0.2671672305    1.8571083701    1.0385307019
 H   -0.1731114701   -0.5718776264   -2.1605737540
 H    1.5037923632   -0.4530580979   -1.5806484828
 H   -0.1636729344   -2.8761562461   -1.3481170644
 H    2.2096899403   -2.2372197936   -0.0050925295
 H   -0.2475910152   -2.6790699752    1.3766663975