19

 O   -0.0893179676    1.4676639847    0.2213093405
 C    0.0224817543    0.0666101349    0.0043038825
 C   -1.3864996988   -0.4883016358   -0.0718688132
 C   -2.1847986719   -0.5285543945    1.2563878577
 O   -2.4797273101   -1.9307716353    1.0794911864
 C   -1.6157611428   -2.0273124030   -0.0750094239
 C   -2.3721597258   -2.3907835372   -1.3617624019
 C   -2.7203679370   -1.0388522233   -1.9442615448
 C   -2.1863305956   -0.0251325403   -1.2622906833
 H    0.7959381760    1.8413691273    0.2581374493
 H    0.5611929028   -0.1528330275   -0.9312939718
 H    0.5691723558   -0.4207798841    0.8276133564
 H   -1.5768884981   -0.3471760326    2.1529321614
 H   -3.0928564505    0.0816275358    1.3046799139
 H   -0.7517864284   -2.6715360146    0.1287330828
 H   -1.7622107648   -2.9895933642   -2.0516252188
 H   -3.2555154620   -2.9911091057   -1.1136090020
 H   -3.3380612756   -0.9312067174   -2.8297488071
 H   -2.2961951799    1.0267300827   -1.4979686642