18

 C    0.6109695026    1.2200825779    0.4628374801
 N   -0.2507857979    0.3749395601   -0.3549456571
 C    0.4332677689   -0.3209468737   -1.4026401644
 C    1.2908482284   -1.5778182595   -1.0934843488
 N    0.3472935002   -2.5393642333   -0.4791476178
 C    0.4283774151   -2.4322992112   -1.9498015580
 C   -0.4614400690   -1.2427737296   -2.3450583936
 C   -1.8826310829   -1.3488198119   -2.0540712804
 N   -3.0127105117   -1.4418417570   -1.8297891724
 H    1.4461981568    0.6876774611    0.9496772580
 H    1.0391834393    2.0151563640   -0.1584287719
 H    0.0123352509    1.6955582889    1.2443984694
 H   -0.7393239254   -0.3013638517    0.2244519497
 H    0.9885161469    0.3976240287   -2.0128170981
 H    2.3559152979   -1.6411237361   -0.9091380707
 H    0.8727758310   -3.3653341290   -0.1983427790
 H    0.6735257430   -3.2850424202   -2.5686705896
 H   -0.3270472441   -0.9578817776   -3.3911894053