18

 N   -0.2196965964    1.3105469399    0.2571447577
 C   -0.0045411381    0.0926935226    0.0139336732
 O    1.2290999565   -0.4649373009   -0.0881129221
 C    1.3308328879   -1.6998522458   -0.8039954690
 C    1.1651779565   -1.4981333907   -2.3154198397
 O    0.0224643358   -0.7591684993   -2.7008092976
 C   -1.2457507888   -1.3334625226   -2.4263097664
 C   -1.8759544701   -0.6533866630   -1.2136232738
 O   -1.0136604552   -0.8116429791   -0.0834240653
 H    0.6605246564    1.8224845808    0.2774532718
 H    2.3393765445   -2.0726307134   -0.6043706954
 H    0.6091141480   -2.4187681763   -0.4116847194
 H    2.0108365419   -0.9202394597   -2.7001950795
 H    1.1808856577   -2.4897068882   -2.7979198529
 H   -1.8831689213   -1.1772898758   -3.3059254337
 H   -1.1622364653   -2.4159040638   -2.2571609196
 H   -2.0334489918    0.4134165130   -1.3988366016
 H   -2.8295531284   -1.1217767778   -0.9540072968