22

 C   -0.1944013185    1.5491814005   -0.0342990169
 C    0.0633256529    0.0451879784   -0.0066866557
 N    0.9534423842   -0.3821348289   -1.0784763565
 C    1.7077627651   -1.4887874819   -0.7883349163
 O    2.4229397694   -2.0889236794   -1.5601793505
 C    1.4417148364   -1.8073787472    0.6846085649
 C    0.7759620944   -0.5358680311    1.2632089644
 C    1.8663067183    0.4137937647    1.7894218024
 C   -0.2296098631   -0.8460021902    2.3764318391
 H    0.7376632101    2.1186913742   -0.0028873423
 H   -0.7304824734    1.8279540603   -0.9478960402
 H   -0.8182136309    1.8503862917    0.8128797970
 H   -0.9106534985   -0.4635449995   -0.1016436796
 H    0.8453125514   -0.0820672055   -2.0352780599
 H    0.7615074044   -2.6675259771    0.7195608664
 H    2.3631127130   -2.0990108788    1.1931170612
 H    2.5833443958    0.6774089067    1.0058113236
 H    1.4417253525    1.3398887049    2.1882176956
 H    2.4214123207   -0.0694725074    2.5999072655
 H    0.2717412137   -1.2975751676    3.2388830304
 H   -0.7300214098    0.0632517644    2.7282121910
 H   -1.0012681483   -1.5440053910    2.0349323464