15

 O    0.1921745170    1.3704841995    0.0379981517
 C   -0.0080153205   -0.0038967876   -0.1316629952
 C   -1.4572458727   -0.3530277706    0.1873122792
 O   -2.3062054517    0.4678304437    0.3928824457
 C   -1.7273256587   -1.8736672849    0.2368185476
 C   -3.1264906471   -2.2310467875    0.1162816239
 C   -4.2889952885   -2.5354186549    0.0088884866
 C   -5.6893191755   -2.8530989710   -0.1103539243
 O   -6.1221948817   -3.9519048882   -0.3721566325
 H    1.0972433792    1.5771718190   -0.2128856654
 H    0.1801688856   -0.3416621213   -1.1670965727
 H    0.6419058723   -0.6194650789    0.5159395020
 H   -1.1288291542   -2.3855359926   -0.5281418610
 H   -1.3367804379   -2.2341537450    1.2002000896
 H   -6.3630494956   -1.9895514897    0.0605083146