18

 C    0.0039070848    1.5789492076    0.0828221168
 C    0.0488538550    0.0502254933    0.0488372828
 C    0.6167913107   -0.4902726372   -1.2796538834
 C    0.6630327766   -1.9471959564   -1.3356381432
 C    0.6903604053   -3.1500085515   -1.3568346017
 C    0.7238261946   -4.6139701871   -1.3880887429
 C    1.5219192618   -5.1607245189   -2.4879376666
 C    2.1721136397   -5.6217644961   -3.3857452586
 H    1.0041482853    2.0091567141   -0.0403346207
 H   -0.6276867738    1.9760001088   -0.7197581740
 H   -0.3990544109    1.9413726515    1.0332491879
 H    0.6611779613   -0.3281232127    0.8750056920
 H   -0.9561944670   -0.3604418073    0.1968255996
 H    0.0115245835   -0.1096720834   -2.1135576934
 H    1.6263920035   -0.0855593427   -1.4326585140
 H    1.1175914722   -4.9945072607   -0.4351930894
 H   -0.3005262804   -5.0057439796   -1.4591067066
 H    2.7486923181   -6.0235213716   -4.1816170447