16

 C   -0.0156361196    1.5031318115   -0.1042709090
 C    0.0607618651    0.0130028329    0.0317310372
 C   -0.8266514097   -0.8197478789    0.9046061302
 C    0.6734130656   -0.8324885230    1.1567345540
 N    1.4081750033   -1.8841209237    0.5134649371
 C    1.2254029085   -1.7239596259   -0.7403872346
 O    0.4951739715   -0.6486557819   -1.1560361148
 C    1.7643433264   -2.5673114429   -1.8464399318
 O    2.4099024648   -3.5667968646   -1.6760311165
 H    0.9420719424    1.9150673028   -0.4357371028
 H   -0.7854681638    1.7920363919   -0.8272945772
 H   -0.2717046366    1.9530145164    0.8586685005
 H   -1.4234826537   -0.2780219680    1.6299675068
 H   -1.2850454823   -1.7162544556    0.5007558347
 H    1.0728959426   -0.4492819270    2.0879070343
 H    1.5143536055   -2.1759562441   -2.8539835779