15

 O    0.2174844577    1.4440179456   -0.5541003496
 C    0.0154626066    0.1318672442   -0.0507598593
 C    0.1917853595   -0.9395206371   -1.1624474138
 C   -0.5921007678   -0.5388002638   -2.3936407564
 O   -1.7381004803   -0.8519230524   -2.6122323095
 C    0.1251942180    0.3444120750   -3.4252281549
 O    1.2533667451    0.7435582692   -3.2925598125
 C    0.8768666131   -0.1710696711    1.0942303757
 C    1.6121120222   -0.4232432979    2.0108125465
 H    1.1052273502    1.4874937288   -0.9318771142
 H   -1.0324050413    0.1158116902    0.2698200013
 H    1.2538483804   -1.0212884171   -1.4092281552
 H   -0.1751013196   -1.9031349878   -0.8022296122
 H   -0.5059843213    0.5752868405   -4.3077447187
 H    2.2502888373   -0.6357585660    2.8331016226