25

 C    0.0112384067    1.5500570347    0.1228012332
 C    0.0652709037    0.0387097551   -0.0407193824
 C    0.8852146052   -0.4757944272   -1.2259397419
 C    1.2890814591   -1.8778629612   -0.7510004298
 C    2.4335779666   -2.5240639498   -1.5302716922
 C    1.5226905333   -1.6562004686    0.7724091401
 C    1.0746609157   -2.8591914139    1.6058225219
 C    2.9648988755   -1.2681214564    1.1253374436
 O    0.6796321526   -0.5355700555    1.1163640552
 H    1.0220310521    1.9643794501    0.1921492705
 H   -0.5001148614    2.0120115143   -0.7283747224
 H   -0.5310809929    1.8175982115    1.0341657395
 H   -0.9657097376   -0.3465163319   -0.1240314685
 H    0.3189409204   -0.4856224013   -2.1615509300
 H    1.7717888623    0.1530751647   -1.3776270465
 H    0.4071682292   -2.5260804788   -0.8447844484
 H    3.3275147563   -1.8929603846   -1.5369572377
 H    2.7113916123   -3.4953927633   -1.1068405827
 H    2.1408612111   -2.6927550119   -2.5717008709
 H    1.6582334462   -3.7515724985    1.3540994063
 H    1.2044746001   -2.6583906877    2.6734907190
 H    0.0174642643   -3.0749365276    1.4258181346
 H    3.3182995642   -0.4375314856    0.5074041437
 H    3.0038624494   -0.9460722577    2.1697857489
 H    3.6532254154   -2.1096597388    0.9991946470