16

 C   -0.1305705549    1.4477692978   -0.0182674132
 N    0.1148815421    0.0177611568   -0.0232837705
 C    0.7808926935   -0.5964050691   -1.0258610409
 N    1.1876183393    0.0452016186   -2.0618690230
 C    1.7477619090   -0.6831881079   -3.0903675134
 N    1.4947880596   -1.9717412822   -3.3366080422
 N    2.2630138142   -2.2076291519   -4.4310362294
 C    2.9098703035   -1.0849549999   -4.7978533409
 N    2.6120494023   -0.0982341073   -3.9803763795
 H    0.7978028111    2.0206546259    0.0934605120
 H   -0.5902491354    1.7452063899   -0.9638246104
 H   -0.8053873749    1.6896451484    0.8052389983
 H   -0.0373732986   -0.5012904770    0.8232741095
 H    0.9271478027   -1.6718738288   -0.8828895579
 H    2.2482457353   -3.1133390831   -4.8690149740
 H    3.5714562612   -1.0364032402   -5.6501581346