17

 C   -0.2570523111    1.6152534105    0.7596987098
 C   -0.1199492323    0.2293091136    0.3483684708
 C   -0.0254785702   -0.9234803938    0.0020334486
 C    0.0961961057   -2.3083593882   -0.4023817396
 O   -0.8449796371   -2.9576271184   -0.8090238175
 C    1.4961299850   -2.8549975817   -0.3002406709
 O    1.6534598265   -4.2667845306   -0.3359377323
 C    2.1449135720   -3.5394035292   -1.4530847430
 C    1.4821222795   -3.7692027996   -2.7842885687
 H    0.7181091028    2.0811874867    0.9340848680
 H   -0.7839523332    2.1980138268   -0.0033582229
 H   -0.8358366451    1.6846517192    1.6873021343
 H    2.1376018356   -2.3300799540    0.4078750614
 H    3.2343453013   -3.4612903235   -1.4791195156
 H    0.3969381670   -3.7965022247   -2.6801522599
 H    1.7621671266   -2.9787765213   -3.4887354239
 H    1.8189117169   -4.7240446217   -3.2013789686