20

 C   -0.3918799000    1.4933360025   -0.0968849557
 C    0.0426153376    0.0401165931    0.0148225995
 C    1.3372494611   -0.6843903300   -0.3389455029
 N    2.6248037890   -0.1346222997    0.1223181071
 C    2.8462450380    1.3541544421    0.1474459157
 C    2.4352241856    1.4154717819    1.6500427510
 C    2.1253789886   -0.1033689643    1.5339911860
 C    0.7744948282   -0.7014943106    1.0954228502
 O    0.2075757286   -1.7584289035    1.7905998523
 H    0.3166832111    2.2085535440    0.3128977271
 H   -0.5627038945    1.7564340060   -1.1468897448
 H   -1.3421982580    1.6365625492    0.4310311317
 H   -0.7587293440   -0.6191122068   -0.3279944482
 H    1.3349589044   -1.4496169299   -1.1088486666
 H    3.8945742036    1.6005712255   -0.0439782853
 H    2.2291214185    1.9193529973   -0.5542525615
 H    3.2715203330    1.6267495710    2.3199511218
 H    1.6075309634    2.0720995931    1.9217492294
 H    2.6357596554   -0.7711899973    2.2353108565
 H   -0.5924437497   -1.4437252536    2.2239110767