17

 C   -0.4943869551    1.4230211882   -0.0004891275
 C   -0.0610802016   -0.0346396198    0.0077838672
 C    1.1758265862   -0.4548656223   -0.8799442938
 O    1.8528057250    0.5223054187   -1.6135349094
 C    1.8921787147   -0.9778804533    0.3866282801
 O    2.6703713635    0.1028562106    1.0003105148
 C    1.6364474523    0.4054116777    1.8806292351
 O    1.6523648877    1.2177664435    2.7447825455
 C    0.6773286037   -0.6067942042    1.2742410235
 H    0.3343804959    2.1020469275    0.2187024230
 H   -0.8879439204    1.6926989485   -0.9848293420
 H   -1.2766010198    1.6032578558    0.7433936196
 H   -0.9160969253   -0.6753747491   -0.2252816715
 H    0.9157115926   -1.2604894362   -1.5722924044
 H    2.3958793769    1.0221759856   -0.9903147138
 H    2.4441280237   -1.9159242114    0.3978351074
 H    0.1413966298   -1.2720369598    1.9467306862