17

 N   -0.0186455272    1.4712561483   -0.1375764640
 C   -0.0283541758    0.0147137114   -0.1313946587
 C    1.1983398526   -0.5781750717   -0.8966280249
 O    1.8523705280   -0.9062477982    0.4053917673
 C    0.6609325188   -0.6521244538    1.0124242201
 N    0.0249164609   -1.1395394490    1.9905810180
 C   -1.3894539957   -0.7934828195    1.6514152510
 C   -1.4128019099   -0.6437779037    0.0772095340
 O   -2.4453849052    0.1564654673   -0.4513228259
 H   -0.7471628950    1.7898716636   -0.7724150704
 H   -0.2845420480    1.8243206762    0.7775170963
 H    1.0333214573   -1.5021779471   -1.4556314288
 H    1.7865318809    0.1515458385   -1.4503033429
 H   -2.0424760546   -1.5983584891    2.0009198786
 H   -1.7219923471    0.1368140889    2.1295373445
 H   -1.4230366484   -1.6537340471   -0.3593844020
 H   -3.2810292317   -0.3085458952   -0.3482941021