22

 C    0.8593035726    1.8742234439   -0.1000134940
 C    0.2554053532    0.4625684359   -0.0341664075
 C    0.4388865373   -0.2768172811   -1.3655286239
 O   -0.4753471633   -1.3698609556   -1.3914848114
 C    0.7836422009   -0.3319456638    1.1604373449
 C    2.3002654348   -0.3573659497    1.3696523219
 O    2.6747941575   -1.3175422668    2.3283026393
 C   -0.0917405672   -0.4814233151    2.3529107768
 N    0.1703772324   -1.6348181349    1.4741463309
 H    1.9296876681    1.8498273444   -0.3298009972
 H    0.3684988029    2.4683656314   -0.8769405887
 H    0.7350126340    2.3964592688    0.8530312842
 H   -0.8305278083    0.5640624842    0.0934739711
 H    0.2348560018    0.4154684866   -2.1971242275
 H    1.4759093672   -0.6252792087   -1.4746071919
 H   -0.2309965537   -1.9590976623   -2.1105840034
 H    2.7964149322   -0.5492007318    0.4011499747
 H    2.6525907732    0.6187527220    1.7224059964
 H    2.0488149753   -2.0488638398    2.1965917590
 H    0.3541718252   -0.5614817544    3.3394921207
 H   -1.0757957841   -0.0203145439    2.3244007574
 H   -0.5953572022   -1.8227565194    0.8345827982