19

 C   -0.0511464172    1.4815238538   -0.2408879098
 C    0.0222542216   -0.0176835066    0.0732799084
 C    0.7973629596   -0.3219579174    1.3605331172
 O   -1.3114290907   -0.5925842160    0.1411849646
 C   -2.1984855864   -0.1588283202    1.0505444175
 O   -3.2918760438   -0.6335489768    1.1495875721
 C    0.6996772463   -0.7275780361   -1.0950076898
 C    0.2037080042   -1.9684639496   -1.6987939798
 O    0.0328396378   -0.7006741865   -2.3473429910
 H    0.9555618975    1.8729462086   -0.4165598182
 H   -0.6447279124    1.6377480784   -1.1443948806
 H   -0.4895503361    2.0535344758    0.5809354984
 H    0.3707158077    0.2012465012    2.2203519054
 H    0.7877916432   -1.3957362463    1.5668077457
 H    1.8376508344    0.0022006938    1.2607036915
 H   -1.8281161992    0.6626950024    1.6876309385
 H    1.7692942946   -0.5140252364   -1.1492561884
 H    0.9088313543   -2.6440840993   -2.1804918364
 H   -0.7097777254   -2.4151473428   -1.3192575552