20

 C    0.0292336023    1.3819620848    0.0715188827
 O    0.0002954084   -0.0363040349    0.1311523347
 C   -1.2592893570   -0.5892471346    0.0198900520
 C   -1.1480408048   -2.0983264319   -0.0837057304
 C   -2.5439778340   -2.7323115934   -0.0100516168
 C   -2.4770422883   -4.2549859999    0.1147322481
 N   -3.3302929461   -2.1945999773    1.1043468733
 C   -3.0035574887   -1.0719798327    1.5816751984
 O   -2.0240355815   -0.2188429170    1.1896659320
 H    1.0806022242    1.6751751448    0.0814219177
 H   -0.4376530103    1.7490375604   -0.8542466632
 H   -0.4825031121    1.8303936334    0.9297227204
 H   -1.7971779657   -0.1622133037   -0.8442200620
 H   -0.6338791041   -2.3584121567   -1.0133154657
 H   -0.5297408329   -2.4489005450    0.7503992837
 H   -3.0917651743   -2.4946048831   -0.9344727795
 H   -1.9499852025   -4.5410881642    1.0307158174
 H   -3.4857901848   -4.6726281027    0.1620466768
 H   -1.9516262976   -4.6956281323   -0.7388230908
 H   -3.5370892000   -0.6500530640    2.4318776413