17

 C    0.2256824568    1.5777574016   -0.2143269446
 C    0.1473307499    0.0578296150   -0.2168514520
 C    1.3030482291   -0.8654444403   -0.7816546482
 C    2.0859966565   -0.6388023279    0.5550920059
 C    2.9236614806    0.5944617338    0.7872439312
 O    3.5342341426    1.1762826564   -0.0724432512
 C    0.5918115999   -0.7881577955    1.0369216488
 C    0.5828485325   -1.9569968294    0.0305656788
 O    0.2089375044   -3.0830128261   -0.0640047894
 H    0.1603520770    1.9589812647   -1.2385157023
 H   -0.6259573018    1.9810149862    0.3436814372
 H    1.1338667583    1.9865233235    0.2262138472
 H   -0.8366503956   -0.2366491425   -0.5967537550
 H    1.7090503666   -0.8967728120   -1.7891088063
 H    2.7252099823   -1.4771057079    0.8707908789
 H    3.0168391233    0.8872879077    1.8586631577
 H    0.2074158175   -0.7444935975    2.0538715834