21

 C    0.0422248429    1.5156663932    0.0476164080
 C    1.3458804301    0.7529764633    0.0795226757
 C    0.0420086782    0.0073283493    0.0166234065
 C   -0.4912362592   -0.7960139957    1.2326641754
 C   -1.6535992442   -1.5918529171    0.6468633919
 C   -1.5436183246   -1.6244910803   -0.6769709059
 C   -2.3276116646   -1.5852926182   -1.9681039964
 C   -1.4723408621   -0.3028740840   -2.2963260231
 C   -0.4283922432   -0.7691607977   -1.2134280954
 H   -0.2856293732    2.0091492855    0.9573404983
 H   -0.2135597883    2.0474419825   -0.8632392006
 H    1.9708031650    0.7727249141   -0.8079142674
 H    1.9019881728    0.7323639853    1.0116588624
 H    0.2876146913   -1.4454859748    1.6593029170
 H   -0.8200301647   -0.1367029046    2.0454745096
 H   -2.4724510082   -1.9702412928    1.2481742377
 H   -2.0849181515   -2.4057143911   -2.6520206157
 H   -3.4138053929   -1.4851182655   -1.9073585058
 H   -1.1156077173   -0.1973971829   -3.3238873773
 H   -1.9914331799    0.6081379093   -1.9899888782
 H    0.3823591136   -1.3339127776   -1.6921365568