12

 N   -0.0821603205    1.2593060021   -0.4545552907
 C   -0.0074475450    0.1026421156    0.0260606748
 O    1.1347057315   -0.5920433352    0.3396279612
 C    0.7793611415   -1.8342940605    0.9079344934
 C    0.0246258000   -1.7767955346    2.2147078328
 C   -0.7124004750   -1.8594260549    0.8991346168
 O   -1.1110381350   -0.6353153215    0.3262432030
 H    0.8487723174    1.6388994201   -0.6067333674
 H    1.4430789969   -2.6418765518    0.6298321446
 H    0.0356648785   -2.6741941887    2.8238969432
 H    0.0051575444   -0.8390451616    2.7594787898
 H   -1.3442918747   -2.6903909790    0.6163672285