21

 O   -0.0289528045    1.6323275918   -0.1534257866
 C   -0.0200697620    0.2265275144    0.0322574505
 C    0.8702486903   -0.4728151258   -1.0017873456
 C    2.3428866430   -0.0139004042   -0.9574826638
 C    3.1947030480   -0.7538679145   -1.8793481202
 C    3.8745657798   -1.3814333604   -2.6465816212
 C    0.1807274262   -0.2822787076    1.4971383679
 C   -1.0654653504   -1.1902118748    1.3156580107
 C   -1.4569661385   -0.3533107058    0.0684674736
 H    0.8343580434    1.9798846096    0.0937890915
 H    0.8294666250   -1.5564893080   -0.8458162860
 H    0.4663877135   -0.2768614562   -2.0010020595
 H    2.3969830782    1.0549561276   -1.2013544869
 H    2.7363665493   -0.1221879357    0.0624451424
 H    4.4853769864   -1.9281397525   -3.3211439820
 H    1.1297814497   -0.7643348172    1.7480021017
 H   -0.0060756737    0.5302509820    2.2041071564
 H   -0.7969071150   -2.2187807283    1.0618220799
 H   -1.7812013921   -1.2167369306    2.1392175827
 H   -2.1689745170    0.4397230880    0.3077632835
 H   -1.8000830596   -0.8863670019   -0.8219520989