18

 C    0.6504194747    1.2892409572   -0.0011137560
 N    0.1247214953   -0.0778177860    0.0102531618
 C   -0.1032293906   -0.6943307322   -1.2133618629
 N    0.0920909216   -0.0413492370   -2.2930662254
 C   -0.6098679567   -2.1268993685   -1.1550697429
 O   -0.2360480886   -2.7996334952    0.0244601338
 C   -0.7090900487   -2.0997021570    1.1509176353
 C   -0.2069972836   -0.6652081775    1.2258729731
 N   -0.1099302861    0.0013866565    2.3101433725
 H    1.4255635487    1.3601383547   -0.7635209199
 H   -0.1402399497    2.0036054043   -0.2499899661
 H    1.0384650943    1.5095044018    0.9902831354
 H   -0.0840770177   -0.6338290729   -3.1034019812
 H   -1.7084615119   -2.1208236329   -1.2685526940
 H   -0.1862671972   -2.6849012760   -1.9930989889
 H   -1.8133982925   -2.0892814739    1.1677522342
 H   -0.3622525556   -2.6395468814    2.0348068341
 H   -0.3548000557   -0.5814698141    3.1091079672