17

 C   -0.2975098866    1.4652502796    0.1351532942
 N   -0.2594749987    0.0161393015    0.1817076965
 C    0.5633810423   -0.5621620771    0.9343859290
 N    0.6971968252   -1.9430992132    1.0749688353
 C    1.8917243235   -2.2592130819    1.7954052817
 C    3.2023741756   -1.6624467201    1.2846582853
 O    3.2612871781   -1.2358689880   -0.0345003052
 C    2.3564581865   -0.9168921472    2.2933249284
 O    1.4805892601    0.0557142658    1.7715906882
 H    0.5903138851    1.9506310277    0.5599674818
 H   -0.4080623832    1.7890643934   -0.9055918684
 H   -1.1757209014    1.8379444582    0.6779734415
 H    0.4652751002   -2.4682047539    0.2450266739
 H    1.8842030940   -3.1565837212    2.4028766929
 H    4.1134960541   -2.1151792640    1.6760887339
 H    3.3887793756   -0.2806797957   -0.0434051043
 H    2.6910147996   -0.6947218538    3.2987329553