13

 N   -0.0765890617   -1.1268117221   -0.0034601472
 C   -0.0259094087    0.0261646035    0.0022665618
 C   -0.0090954104    1.4897044104    0.0098490003
 O    1.3310554053    1.9318680522   -0.0003714782
 C    1.4170677413    3.3459859444    0.0064140419
 C    2.8151522810    3.7443460221   -0.0046970233
 C    3.9650141419    4.1084972018   -0.0136353760
 C    5.2674330642    4.5200377950   -0.0237661935
 N    6.3730698461    4.8747098849   -0.0323386456
 H   -0.5611463945    1.8552031483   -0.8709901383
 H   -0.5445049891    1.8458004906    0.9047005059
 H    0.9079467049    3.7749759282   -0.8732479841
 H    0.9247532597    3.7654400807    0.9001286861