19

 C   -0.3867877320    1.6073676713    0.1051849702
 C    0.1594545347    0.1806701702   -0.0588536495
 C    0.9262348475   -0.2927011313    1.1370464628
 C    2.2109772474   -0.7968258453    1.2234843625
 N    3.1904269207   -1.1117667205    0.2767104339
 N    2.3835022562   -1.0718421731    2.5413735076
 C    3.5393302095   -1.6354930579    3.1991310588
 N    1.2712828652   -0.7406014976    3.2457716397
 N    0.3992617340   -0.2879753758    2.3957111320
 H    0.4278378641    2.3287653416    0.2243989789
 H   -0.9809839102    1.9013642748   -0.7655588858
 H   -1.0184434533    1.6685200502    0.9946569525
 H   -0.6754925212   -0.5034461792   -0.2574389945
 H    0.8056566815    0.1321036990   -0.9453330745
 H    2.8629790605   -0.9372417880   -0.6647986562
 H    4.0625748003   -0.6126792349    0.4167390716
 H    4.3471527258   -0.9011374901    3.2948137081
 H    3.2272020516   -1.9502271852    4.1948977357
 H    3.9051804378   -2.4956179583    2.6319284562