20

 C   -0.0460414589    1.5228067244   -0.2221321241
 C   -0.1096703944    0.0095379212   -0.1806199403
 C   -0.2213585595   -0.7160370630    1.1345532433
 C   -1.4011055698   -0.6711409831    0.1950176259
 N    1.2990015565    2.0557956044   -0.0775535760
 C    1.9465763551    2.2887205998    1.1114638902
 C    3.2304378456    2.6980282890    0.8338456422
 C    3.3715750030    2.7090522066   -0.5811047478
 C    2.1677870463    2.3070915727   -1.1122039058
 H   -0.4482768052    1.8925116694   -1.1716522470
 H   -0.6710101435    1.9425957079    0.5742409815
 H    0.4884694470   -0.4746015294   -0.9474453192
 H    0.3129882919   -1.6517930174    1.2517681568
 H   -0.2748388636   -0.1219415579    2.0411173690
 H   -2.2438568578   -0.0450996501    0.4711751434
 H   -1.6790881659   -1.5752622756   -0.3346474676
 H    1.4341284216    2.1472177208    2.0497958948
 H    3.9778273249    2.9722063712    1.5626351209
 H    4.2473922327    2.9933702336   -1.1440754092
 H    1.8479592839    2.1836077455   -2.1352603910