16

 C    0.0763798511    1.4888288867   -0.0343111407
 C    1.3388083545    0.6911946147    0.0245178576
 N   -0.0041431926    0.0275321868   -0.0326327173
 C   -0.1785188923   -0.6130147712   -1.3763558267
 C    1.0991865206   -0.2923743009   -2.1032464350
 C    1.9410136990    0.4040244232   -1.2887266804
 N    3.0642866722    0.6493321225   -2.0357176042
 C    2.8292597114    0.0811553988   -3.2683535902
 N    1.6441557932   -0.4909714808   -3.3443115222
 H   -0.3150574898    1.9609688283    0.8640134623
 H   -0.1206319924    2.0249692760   -0.9609728059
 H    1.8968262801    0.5891107315    0.9513326429
 H   -0.3337069986   -1.6883839184   -1.2308261647
 H   -1.0782692437   -0.2151072400   -1.8585158281
 H    3.8949885448    1.1450117646   -1.7597748773
 H    3.5684752326    0.1112956383   -4.0551092701