22

 C   -0.0094836266    1.5756993971    0.1949988960
 C   -0.0219150232    0.0707419208   -0.0873678373
 C   -1.4275252440   -0.5558647213   -0.0829981472
 C   -2.1770341076   -0.2459531807   -1.3841501481
 O   -3.5786920298   -0.4644021083   -1.1907154244
 C   -1.3478388436   -2.0686376273    0.2348941800
 O   -0.3389914709   -2.5813555838    0.6938541471
 N   -2.4908434846   -2.7645980232   -0.0085196057
 C   -2.6141078625   -4.1797319759    0.2739901695
 H    1.0141684794    1.9626744067    0.1851613188
 H   -0.5798375718    2.1488267853   -0.5444464569
 H   -0.4365682559    1.7938282485    1.1802581309
 H    0.4614237834   -0.1339604946   -1.0521442045
 H    0.5736050169   -0.4590373649    0.6587766229
 H   -2.0131368922   -0.1016656026    0.7298273677
 H   -2.0018953708    0.8011516404   -1.6641915159
 H   -1.7908490017   -0.8797507816   -2.1962521696
 H   -4.0242757547   -0.3401446188   -2.0341843726
 H   -3.2776622180   -2.2497967731   -0.3796567717
 H   -3.3926309194   -4.3719485186    1.0216795407
 H   -2.8573516333   -4.7486105701   -0.6310952630
 H   -1.6555729292   -4.5239917740    0.6635722334