15

 C    0.0838106789    1.5068962672   -0.0106056504
 C   -0.0634910477    0.0285888582   -0.0583421730
 C   -1.1300601922   -0.8175400894    0.0209896894
 C   -2.5848001558   -0.5216664343    0.1916965163
 C   -0.5136021787   -2.1024121415   -0.1013099346
 N    0.7959758530   -2.0292190502   -0.2403594597
 O    1.0759797292   -0.6843111294   -0.2128254961
 C   -1.1722833800   -3.3655548215   -0.0842310596
 N   -1.7617285223   -4.3603156706   -0.0630937686
 H    0.7273034432    1.8083599058    0.8220964755
 H    0.5367104424    1.8840132583   -0.9331117778
 H   -0.8906926921    1.9814436595    0.1156680900
 H   -3.1707170628   -0.9086955945   -0.6483890266
 H   -2.9807454068   -0.9844239037    1.1015940946
 H   -2.7640846682    0.5539273161    0.2577056906