21

 O   -0.1068720116    1.2636715349   -0.5539465151
 C   -0.0761612037   -0.0056787892    0.0872979220
 C   -1.4614999973   -0.5973891976    0.0339263648
 C   -1.8398488328   -1.2994893297   -1.2403974575
 C   -1.5502872753   -2.0988391728    0.0403729444
 C   -3.0097937084   -2.6100799631    0.0623386540
 C   -4.1018546860   -1.7938911840    0.8194324605
 C   -4.3939776753   -0.9812143596   -0.4869061323
 C   -3.3011661895   -1.8032134577   -1.2363201550
 H    0.7530197419    1.6778481320   -0.4348157818
 H    0.6357792548   -0.6855923504   -0.4096358082
 H    0.2440657801    0.0913620332    1.1370463999
 H   -2.1953618327   -0.0003875134    0.5681630627
 H   -1.2301423301   -1.1798055782   -2.1287488185
 H   -0.6859398952   -2.7053923657    0.2895797460
 H   -3.0981018184   -3.6967529913    0.0787233772
 H   -4.9464845614   -2.4075200869    1.1424638899
 H   -3.7553783087   -1.2167565024    1.6808635807
 H   -5.4000877608   -1.1460498175   -0.8801839849
 H   -4.2238565650    0.0971071943   -0.4329871279
 H   -3.6000610944   -2.3102564850   -2.1541214708