23

 C   -0.1608650295    1.4961913659    0.0894287482
 C   -0.0121682467   -0.0274859754   -0.0178718318
 C    0.6853290663   -0.4273567205   -1.3254964624
 C    0.7291019957   -0.5856538149    1.1972071953
 C    0.0816208803   -0.4680688556    2.6093784395
 C    0.5991143342   -1.8987184506    2.9248473295
 O   -0.2413187275   -2.8082881664    3.5825897563
 C    0.8117075224   -2.1246385847    1.3943948272
 O   -0.3289570050   -2.7591975627    0.8233576145
 H    0.8196384088    1.9881593634    0.0867564564
 H   -0.7328781859    1.8949521022   -0.7549544145
 H   -0.6766491384    1.7879254613    1.0099290363
 H   -1.0146553143   -0.4725415586   -0.0228930610
 H    1.7102783186   -0.0375927582   -1.3614466560
 H    0.7291576726   -1.5149909179   -1.4302350388
 H    0.1508815608   -0.0273226815   -2.1937814172
 H    1.7485718872   -0.1801583682    1.2167030508
 H    0.4056739273    0.3440825239    3.2636028608
 H   -1.0117963229   -0.4553591683    2.5485787504
 H    1.5447698963   -1.8839467433    3.4737587813
 H   -1.0155718831   -2.9044077773    3.0132718866
 H    1.7326880184   -2.6257995756    1.0735548715
 H   -0.2309019757   -3.7061568670    0.9669370570