21

 C    0.0036826035    1.3688684415    0.0536849051
 O   -0.0059405789   -0.0343968621    0.1626698622
 C   -1.2389226463   -0.6087621469   -0.2126926182
 C   -1.1328437167   -2.1098760111   -0.0271557118
 C   -1.1265989870   -2.6057565707    1.4352501848
 O   -2.4066806989   -3.2620730142    1.2653489975
 C   -2.4394942045   -2.8972072945   -0.1146023482
 C   -3.7252021856   -2.5915985157   -0.8127465000
 C   -2.9278322727   -3.8434494850   -1.1602509930
 H    0.9915051757    1.7152668062    0.3670140039
 H   -0.1771446872    1.6997774643   -0.9814755396
 H   -0.7580680940    1.8345300551    0.6989398365
 H   -2.0601273334   -0.2075710442    0.4058241889
 H   -1.4759214440   -0.3642492850   -1.2632029320
 H   -0.3185643481   -2.5022689720   -0.6409241446
 H   -0.3355649895   -3.3196569454    1.6897326134
 H   -1.1659997358   -1.8201050600    2.1977665298
 H   -4.6346802320   -2.7243217122   -0.2364822552
 H   -3.7586017573   -1.7794654217   -1.5319494778
 H   -2.4099568338   -3.8815280832   -2.1135853269
 H   -3.3191209634   -4.7944626331   -0.8151910447