20

 C    0.0549801092    1.5452241424   -0.1155251843
 C    0.0568497467    0.0176239906   -0.0171173681
 C    0.6543011103   -0.5315780034    1.3008256530
 C   -0.1754073368   -0.1593765430    2.5373873580
 C    0.8625548753   -2.0151488267    1.1809288685
 N    1.6429066554   -2.6210587201    0.2976587232
 C    1.4797486021   -3.9397586239    0.5880862134
 N    0.6548948109   -4.2018827545    1.5876500895
 N    0.2695359570   -2.9534031874    1.9530189562
 H    1.0662855313    1.9497196045    0.0051449249
 H   -0.3141906188    1.8656038407   -1.0944181509
 H   -0.5835895396    2.0116393992    0.6412955254
 H   -0.9655116687   -0.3671272077   -0.1293302317
 H    0.6380617006   -0.4033497845   -0.8428394425
 H    1.6545025455   -0.0912372450    1.4104260669
 H    0.2717153056   -0.5535622284    3.4559579965
 H   -0.2404080026    0.9249479882    2.6484010232
 H   -1.2009985111   -0.5405679517    2.4593275606
 H    1.9836247250   -4.7288540040    0.0497929178
 H   -0.3751461970   -2.8358017453    2.7163076903