20

 C   -0.1588023829    1.7403343861    0.1087688824
 C   -0.0764910743    0.2221249487    0.0387359898
 C   -1.4257887095   -0.4327609158   -0.2651335302
 N   -1.3201853433   -1.8815570656   -0.1862821325
 C   -1.7102723433   -2.5059609917    1.0758954118
 C   -2.5690398043   -2.6287649321   -0.1345285115
 O    0.8526586601   -0.1044140702   -1.0086264976
 C    1.5916000189   -1.2243736306   -0.8782317636
 O    2.3172299990   -1.6169397211   -1.7422146198
 H    0.8316806881    2.1662062114    0.2856140865
 H   -0.5430153517    2.1486447507   -0.8307591894
 H   -0.8223313604    2.0514952262    0.9207743912
 H    0.3068719027   -0.1759552596    0.9890432635
 H   -2.1884140734   -0.0255932639    0.4229325786
 H   -1.7186639358   -0.1613585836   -1.2858576427
 H   -1.0958704535   -3.3394993013    1.4032251247
 H   -2.0684258852   -1.8594678792    1.8760768930
 H   -3.5003085672   -2.0644860141   -0.1406195990
 H   -2.5914843724   -3.5520914523   -0.7056895697
 H    1.4720883984   -1.7077472621    0.1077973447