18

 C   -0.0693666673    1.5544511212    0.0117180882
 C   -0.0289540160    0.0229813480    0.0317225335
 C   -1.4547861144   -0.5731720554   -0.0041972435
 O   -2.1292714945   -0.2171137468   -1.1894293122
 N    0.6928894599   -0.4957516364   -1.1569349393
 C    1.6749380676   -1.1758998282   -0.7110561400
 N    1.7933112610   -1.2339431060    0.6696722161
 C    0.7453284500   -0.5080046646    1.2405241053
 N    0.4462222815   -0.3040935676    2.4570846443
 H    0.9334168405    1.9694118306   -0.1206078248
 H   -0.7046458562    1.8910595309   -0.8095869463
 H   -0.4757842082    1.9168281734    0.9597734123
 H   -1.3860176975   -1.6665016511    0.1108412723
 H   -2.0306711457   -0.1825952452    0.8394442350
 H   -1.5283455454   -0.4389132759   -1.9125321724
 H    2.3976969911   -1.6974044538   -1.3312354901
 H    2.5072040826   -1.7275013443    1.1794453391
 H    1.0970605011   -0.7565775187    3.1008740225