11

 C    0.0229530032    1.3969851651   -0.1205759192
 O    1.3673954480    1.8769339012    0.1045364214
 C    2.0230383282    0.8076610210    0.6306025027
 C    3.1880047221    0.3706261426    1.1446451082
 O    3.0375230070   -0.9583461757    1.4434560827
 N    1.7324800047   -1.4001099928    1.1139349201
 C    1.1893178902   -0.3202818335    0.6421802778
 O   -0.0257065666   -0.0254796491    0.1337185066
 H   -0.6608349157    1.9036231068    0.5697468953
 H   -0.2524431256    1.5802715995   -1.1623629578
 H    4.1522962043    0.7969548350    1.3600650821