19

 C    0.3748572358    1.3921173134   -0.3646597074
 C    0.0981675505   -0.0407597783   -0.0364339781
 C    0.9275506059   -1.3137936606   -0.3556278178
 C   -0.4647812085   -1.7356016415    0.1706999727
 C   -1.1289910181   -3.0920664130    0.1722665694
 C   -0.4521139079   -4.0391057189    1.0490343314
 C    0.1224383961   -4.8022209167    1.7778214964
 C   -0.3469623018   -0.6877662799    1.3028230139
 O   -1.0748560915   -0.6954713537   -0.6907558166
 H    1.2566142967    1.7418991492    0.1814285456
 H    0.5609623302    1.5115628264   -1.4362458847
 H   -0.4765472305    2.0208822140   -0.0872328959
 H    1.0952727995   -1.5005913781   -1.4177953590
 H    1.8006834812   -1.5322495175    0.2637690435
 H   -2.1747378661   -2.9672994531    0.4804895674
 H   -1.1477841669   -3.4716317909   -0.8571643971
 H    0.6215887659   -5.4857251368    2.4188777510
 H    0.4072785426   -0.8478089751    2.0769358439
 H   -1.2980819930   -0.3250153088    1.6965336114