23

 C    0.1000635170    1.5262560386    0.0022012170
 C   -0.0205831220    0.0165992086    0.0219427183
 C   -0.9356433557   -0.6130534243    1.0460849513
 C    0.5659040850   -0.7464062234    1.1967823909
 C    1.3220880282   -2.0259394634    0.9515340835
 C    0.6857231127   -3.3940017174    0.9488783202
 C    1.1088354167   -2.7604098164   -0.3555275815
 C    0.0817555941   -2.1799080964   -1.3222920720
 C    0.1070679482   -0.6397367949   -1.3476848890
 H    1.0579207337    1.8419772351   -0.4291626973
 H   -0.6976610533    1.9824844630   -0.5971249616
 H    0.0360292468    1.9445146087    1.0120589330
 H   -1.4468327193    0.0445723437    1.7418294845
 H   -1.5193200720   -1.4850816094    0.7732545231
 H    0.9959868696   -0.1356777273    1.9858551186
 H    2.3459640899   -1.9892094025    1.3117382730
 H    1.2648821012   -4.2274170470    1.3321015477
 H   -0.3778609364   -3.4634051495    1.1546406257
 H    1.9979372183   -3.1724768980   -0.8227759508
 H    0.2739167916   -2.5543077398   -2.3327971009
 H   -0.9262908515   -2.5264480588   -1.0679879619
 H   -0.6910508749   -0.2724345299   -2.0063465783
 H    1.0533795724   -0.3066946690   -1.7978668234