23

 C   -0.1777108843    1.5405163377   -0.0618022320
 C    0.0914242938    0.0378402579   -0.0302758233
 C    0.9204939679   -0.5113516144   -1.2045308007
 C    1.3566214974   -1.8501363103   -0.6527231124
 C    0.7882985032   -3.1597840112   -1.1358376798
 C    2.2584025821   -2.8185817605   -1.3409905207
 O    1.5391315318   -1.6920853456    0.7392003692
 C    0.8839216859   -0.4955189180    1.1937662640
 C    1.9386077172    0.4465169247    1.7703021664
 H    0.7507357932    2.1183881610   -0.1032094092
 H   -0.7720411489    1.8055288304   -0.9422719919
 H   -0.7368242129    1.8665952176    0.8219020638
 H   -0.8725493224   -0.4860761505   -0.0381817423
 H    0.3489783629   -0.5955102346   -2.1320568180
 H    1.7882084794    0.1324440560   -1.3985736578
 H    0.5567847117   -3.9010363260   -0.3791774024
 H    0.1315188939   -3.1641531548   -2.0001029661
 H    2.6046431824   -2.5859664401   -2.3428626417
 H    2.9793299898   -3.3400915564   -0.7212528575
 H    0.1899959510   -0.7788483508    1.9964795553
 H    2.6264176976    0.8011902446    0.9961222752
 H    1.4768963761    1.3147736744    2.2511648607
 H    2.5269996112   -0.0876507412    2.5213432014