17

 C   -0.0369099126    1.4459192811   -0.0557832511
 N    0.0515262624    0.0000155807    0.0339111189
 C   -1.1466153020   -0.7112471024    0.0347658215
 C   -2.4153341587   -0.2411388968    0.2166844418
 O   -3.3081912575   -1.2865900437    0.2167100090
 C   -2.5990985362   -2.4256239644    0.0178129031
 C   -3.3684985032   -3.6972428470   -0.0288239078
 C   -1.2743656267   -2.1388603450   -0.0980209458
 H    0.9691705592    1.8691287144   -0.1032415148
 H   -0.6120967558    1.7987746401   -0.9280089706
 H   -0.5228837081    1.8383486753    0.8446956188
 H    0.7343754475   -0.3938768022   -0.5977427601
 H   -2.8360031966    0.7367265916    0.3685636219
 H   -4.1037786760   -3.6925099685   -0.8417162475
 H   -2.6900951578   -4.5386701389   -0.1860795656
 H   -3.9165796815   -3.8682623838    0.9047298222
 H   -0.4752594663   -2.8485307206   -0.2503595942