16

 C    0.0006622938    1.4714769966    0.0621409357
 C   -0.0158121648   -0.0219612727    0.0100879545
 N   -0.0598203101   -0.6842845617   -1.0809862110
 C   -0.0614636076   -2.0973918573   -0.7281636496
 C   -0.0096710922   -2.1760875549    0.7964645854
 O    0.0057922832   -3.1363415558    1.5103015940
 N    0.0174120068   -0.8035443574    1.1907590742
 C    0.0664222967   -0.2919414018    2.4899151499
 N    0.0948062795   -1.0255409907    3.5217371804
 H    0.9063736309    1.8478087285    0.5495703574
 H   -0.0310101889    1.8427463504   -0.9620233498
 H   -0.8615199420    1.8655198687    0.6106451566
 H   -0.9596902195   -2.5993443409   -1.1046658598
 H    0.7988958704   -2.6163416901   -1.1652187788
 H    0.0768003308    0.8020474675    2.4920435902
 H    0.1287517432   -0.4409487584    4.3558452906