14

 C   -0.0676272171    1.4519659476   -0.0665413249
 C   -0.0059053377   -0.0527977468    0.0257710588
 O    0.0230451772   -0.6911199676    1.0404884909
 N    0.0175574244   -0.7172252129   -1.2386634307
 N   -0.0130570128   -0.0522955090   -2.4044470008
 C    0.0230422733   -1.0002138727   -3.3212958740
 C    0.0760442286   -2.2522144009   -2.6541438310
 O    0.1236219574   -3.4581373903   -3.2323887260
 N    0.0719975388   -2.0625658132   -1.3514090618
 H    0.7926414936    1.8426324882   -0.6153518093
 H   -0.9611314520    1.7709392898   -0.6085986258
 H   -0.0799100278    1.8459343577    0.9489969056
 H    0.0110489554   -0.7803671581   -4.3764094551
 H    0.1526951289   -4.1216921917   -2.5304596459