16

 O    0.1164941301    1.4161428759    0.2694762906
 C    0.0240021324    0.0548166771    0.0642344594
 C   -0.4659923997   -0.8879441337    1.1137197070
 C   -1.3374311945   -0.6342696561   -0.1232686835
 C   -2.5294724001    0.1945084754    0.0148418939
 N   -2.6568629556    1.2953557236    0.7032347227
 C   -3.9618403334    1.7119804044    0.4699866861
 C   -4.5621392091    0.8286607038   -0.3561221398
 O   -3.6513372979   -0.1523117792   -0.6580254044
 H   -0.7381418366    1.7279841308    0.6201318140
 H    0.8147072749   -0.2918136710   -0.5941067032
 H   -0.0134946709   -1.8694516960    1.2055593453
 H   -0.8236989627   -0.4523007663    2.0405111674
 H   -1.4236050446   -1.4244939502   -0.8589478290
 H   -4.3617787516    2.6088638947    0.9146272168
 H   -5.5383376406    0.7313022268   -0.7971679633