16

 N    0.0162255335    1.3957431676    0.1944627425
 C    0.0697327151   -0.0273523308    0.0087298591
 C   -1.3478798800   -0.6715645668   -0.1585797897
 N   -1.1007559732   -0.7633945617   -1.6277370217
 C    0.3568450617   -0.6127335832   -1.4393583880
 C    1.0211283378    0.2778341450   -2.3847489019
 N    1.5643373600    1.0149451810   -3.0906847500
 C   -1.5270463397   -1.9435472556    0.5236978616
 C   -1.6673626045   -3.0131791564    1.0557686784
 H    0.9488908342    1.7962496108    0.2102362264
 H   -0.4866306883    1.8449225002   -0.5658822368
 H    0.6895297024   -0.4753144914    0.7848460561
 H   -2.1652652751    0.0138849115    0.0896232064
 H   -1.3924001377   -1.6321171400   -2.0624819259
 H    0.9136870935   -1.5569440437   -1.3822110711
 H   -1.8011817997   -3.9510074964    1.5365092148