19

 C   -0.0209296482    1.4674299294    0.0104547881
 C    1.2938234378    0.6974405508   -0.0069254544
 C   -0.0110161195   -0.0231082752    0.0020320035
 C   -0.5369501571   -0.9464736029    1.1248600634
 C   -2.0148090152   -1.0006270661    0.6829895618
 C   -2.0280584059   -0.9931791844   -0.6498413100
 C   -0.5592706985   -0.9339186452   -1.1203741255
 C    0.1166060422   -2.2491796850   -0.6781877735
 C    0.1298443449   -2.2566385205    0.6546436297
 H   -0.2987507507    1.9801802092    0.9262324300
 H   -0.3168699197    1.9903561871   -0.8938196294
 H    1.8767493292    0.7056472405   -0.9228270195
 H    1.8948654990    0.6954904371    0.8972258351
 H   -0.3499397574   -0.6504560655    2.1575280590
 H   -2.8532639826   -1.0766300712    1.3622960049
 H   -2.8798622658   -1.0616757866   -1.3131501714
 H   -0.3927967277   -0.6263475174   -2.1531804975
 H    0.4603910086   -3.0178532951   -1.3572997835
 H    0.4869660783   -3.0328249042    1.3181489892