17

 O   -0.1115434449    0.0126542622   -0.3101765990
 C   -0.0139795181    1.1652293619    0.0353218233
 C    1.2581366119    1.9368747932    0.0181864953
 C    1.6699975110    2.9290936484    1.1629787364
 C    2.5901834328    3.5838187430    0.0764804384
 C    3.5795522837    2.4355047486   -0.2292986792
 C    2.5886946980    1.2182913602   -0.2863366950
 C    1.4327093130    3.2261392672   -0.8633498563
 O    0.8213259680    3.7464251359   -1.7428109940
 H   -0.9032950955    1.7382408068    0.3811607167
 H    0.8539486572    3.5756580325    1.4914554230
 H    2.1784970270    2.4767354920    2.0177208104
 H    2.9756422721    4.5976425337    0.1622174113
 H    4.1141458510    2.5904357515   -1.1694380571
 H    4.3205423518    2.3297486730    0.5671436585
 H    2.8077182703    0.4595920991    0.4684094547
 H    2.5702752608    0.7237934209   -1.2590743773