17

 C    0.0072548942    1.5841507665   -0.0175372089
 C   -0.0340036109    0.0828189959    0.0005159459
 C    0.4471903733   -0.7784864109   -1.2045081405
 C   -0.5019101937   -1.8565153000   -0.6900565199
 N   -0.5049533051   -1.8657033982    0.8068596838
 C    0.4480879046   -0.7695057368    1.1903814745
 C   -1.3237293266   -0.8600552669    0.0542551178
 C   -2.7141622766   -0.6320640330    0.1916086475
 N   -3.8437113941   -0.3944807863    0.2855928067
 H    1.0447860392    1.9369368460   -0.0450043587
 H   -0.5059467088    1.9882335722   -0.8959240726
 H   -0.4672635069    2.0057370215    0.8744389595
 H    0.0961438210   -0.3775922545   -2.1585584906
 H    1.5168067394   -1.0043088265   -1.2629759171
 H   -0.8394566950   -2.7641563275   -1.1719800281
 H    1.5025266278   -1.0658845985    1.2179644163
 H    0.1414264679   -0.3749870829    2.1619645644