10

 O   -0.0022222455   -0.0766797927    0.0035725741
 C    0.0184732794    1.1199626518    0.0087872968
 O   -1.1735094016    1.8253226303    0.0289267437
 N   -1.2395501065    3.2588575010    0.0370947353
 N   -0.1966473689    3.9139670813    0.0260859836
 C    1.0679247023    3.3002229924    0.0057033525
 C    1.2101373491    1.9608374534   -0.0030248283
 C    2.1769469470    4.2036590454   -0.0047963164
 N    3.0867400456    4.9169041691   -0.0135375819
 H    2.1759067391    1.4720287580   -0.0186000796