21

 C    0.0283142523    1.3456975354    0.0086462576
 O   -0.0412347728   -0.0847664651    0.0018419773
 C   -1.2858405184   -0.6050484623    0.0113714990
 O   -2.2818421351    0.0773900300    0.0244316208
 C   -1.2552962522   -2.1314552824    0.0027035374
 C   -0.5377533680   -2.6236072867   -1.2724738993
 C   -0.5137056776   -2.6374413511    1.2585682756
 C   -2.7132853092   -2.6198950172    0.0138913458
 O   -2.6991859699   -4.0411808345    0.0058601048
 H    1.0903334175    1.5914553940   -0.0003634149
 H   -0.4683234603    1.7607851179   -0.8720997164
 H   -0.4511271014    1.7515028148    0.9031375924
 H    0.5040716664   -2.2968641753   -1.2842421802
 H   -0.5722229427   -3.7144929289   -1.3085923700
 H   -1.0277406109   -2.2394850522   -2.1737521653
 H   -0.9864484009   -2.2632458579    2.1731344484
 H   -0.5475949374   -3.7286597703    1.2834047264
 H    0.5281880687   -2.3107358408    1.2541140155
 H   -3.2218565049   -2.2289443847    0.9059045297
 H   -3.2387253270   -2.2191249264   -0.8638758232
 H   -3.6098414863   -4.3476378063    0.0128201684