20

 C   -0.3600063178    1.1492302566    0.5345272011
 C   -0.1942958466   -0.2745209959    0.2720308522
 C   -0.0628509480   -1.4511605044    0.0417154008
 C    0.0837053436   -2.8759766092   -0.2689017339
 C   -1.3022639473   -3.5007235095   -0.5634627594
 C    1.0092916898   -3.0595142736   -1.4967326955
 C    0.7111683618   -3.6939305194    0.8986373873
 N    1.0297849881   -2.9988457575    2.0172720163
 O    0.8925853432   -4.8914530964    0.7812679164
 H    0.6005137698    1.6327761877    0.7439704974
 H   -0.8040471156    1.6584560805   -0.3278802801
 H   -1.0158920101    1.3247298316    1.3943503803
 H   -1.7446470543   -3.0338901443   -1.4474998362
 H   -1.1821894093   -4.5719255918   -0.7379801878
 H   -1.9843092603   -3.3564209684    0.2789755902
 H    1.9857351962   -2.5986523277   -1.3238968720
 H    1.1525957282   -4.1262841641   -1.6806193537
 H    0.5608220712   -2.5938535899   -2.3783176548
 H    0.8645649793   -2.0085158790    2.0764165622
 H    1.4372440479   -3.4964674450    2.7912440192