15

 O   -0.0859320026    1.4513217393    0.0179188603
 C   -0.0017593331    0.0370962184    0.0161278517
 C    0.6692458966   -0.5129020613   -1.2749736840
 C   -0.0351779574   -0.1129430660   -2.4839866828
 C   -0.6303032146    0.2092741692   -3.4764797773
 C    0.6896460157   -0.4737674192    1.2017518101
 C    1.2977217395   -0.8732195886    2.1694670811
 C    1.9745104693   -1.3226116674    3.2608581527
 C    2.5768316106   -1.7212287727    4.2283414859
 H    0.8050708544    1.8024234780    0.1295561464
 H   -1.0424472184   -0.3065848725    0.0279488152
 H    1.7085361959   -0.1610325946   -1.3015424124
 H    0.7153892178   -1.6061736003   -1.2041746594
 H   -1.1513200803    0.4974709448   -4.3556609889
 H    3.1041581465   -2.0719011171    5.0807190613