19

 C   -0.1687908793    1.5546928047   -0.0027718754
 C    0.0314288275    0.0401321307   -0.0067789884
 C    0.8990073381   -0.5076796999   -1.1896838508
 C    1.9602014334   -1.3451560362   -0.4561619531
 C    1.1863113597   -1.9379700467    0.7300154824
 C    0.7839569142   -0.5399571134    1.2388780855
 C    2.1555596048    0.1272688505    1.2587981588
 O    2.6055877866    0.9695362198    1.9787202692
 O    2.8529675814   -0.4033294166    0.2035694369
 H    0.7861332581    2.0878362518    0.0408798687
 H   -0.6916561215    1.8753753771   -0.9095399257
 H   -0.7655565440    1.8732586016    0.8580711877
 H   -0.9518187732   -0.4424909017   -0.0301302686
 H    0.3150376865   -1.1202734119   -1.8821186710
 H    1.3750353104    0.2920687565   -1.7626301843
 H    2.5696347390   -2.0111109030   -1.0645809138
 H    0.3370746657   -2.5570062207    0.4295006983
 H    1.8266806369   -2.4951178586    1.4180040861
 H    0.2524040256   -0.4512044140    2.1838951775