19

 O    0.0272918506    0.0580035424    0.0869807981
 C    0.0357077998    1.2519411754   -0.0211470783
 C   -1.0995759825    2.3128998381   -0.0686195052
 C   -0.0083770948    3.3830458566    0.0884926734
 C    1.1091093200    2.2907575152    0.0720593157
 C    0.9483490042    3.3158361799   -1.0402746124
 C    0.6620393951    3.1547522330   -2.5439178126
 C    1.4401216340    4.4827936818   -2.7818451879
 C    1.9909319049    4.4093933387   -1.3275461727
 H   -1.7237032327    2.3581037484   -0.9654897293
 H   -1.7433518979    2.2027525883    0.8089470106
 H   -0.0622763400    4.2304623804    0.7608967835
 H    2.0410199588    2.2151064750    0.6205732512
 H    1.1652821995    2.2854957835   -2.9765769174
 H   -0.3867814088    3.1367344799   -2.8503861179
 H    2.1807998261    4.4782487129   -3.5834797077
 H    0.7724004674    5.3346672833   -2.9298990770
 H    1.9311832151    5.3179772064   -0.7222110292
 H    3.0169595613    4.0318990210   -1.2863875848