20

 C   -0.9042769840    1.1817304904    0.2488812394
 C    0.0262129778   -0.0319847017   -0.0141046203
 C    0.7277671885    0.1432337730   -1.3389762934
 C    2.0105798586    0.2877132378   -1.6716432835
 C    3.2622441339    0.3265316599   -0.8244438020
 N    3.2140839927   -0.0996222435    0.5635615361
 C    2.1785108901    0.5140442154    1.3955324483
 C    0.8714672235   -0.2548104303    1.2373087012
 O    0.5270987291   -1.0626269366    2.0731663295
 H   -0.3282718754    2.1040705210    0.3737581881
 H   -1.5830259073    1.3257286870   -0.5971798118
 H   -1.5040857477    1.0183167959    1.1484200175
 H   -0.6186125078   -0.9170605052   -0.0808880316
 H    0.0146341255    0.1818008095   -2.1626529028
 H    2.2213874847    0.4390753581   -2.7306662262
 H    4.0333519774   -0.2754402875   -1.3218245457
 H    3.6487670398    1.3585224871   -0.8492958900
 H    3.1641184544   -1.1100486124    0.6344904907
 H    2.4696484225    0.4665077108    2.4492788449
 H    2.0770038636    1.5647863614    1.1034681015