21

 C    0.2504496319    1.6105187367    0.2347085789
 C    0.0503709078    0.1074564837   -0.0072769506
 C    0.5155469547   -0.6921730366    1.2304741476
 O   -0.2709057137   -0.2945199438    2.3463647600
 C   -1.4563603900   -0.1697927137   -0.1491937000
 O   -1.9209368790   -1.1014474147   -0.7537129886
 C    0.7749554691   -0.4526144018   -1.2283378042
 C    1.2138594303    0.3892972522   -2.3988107601
 C    2.2445182293   -0.2257324095   -1.4847484648
 H    1.3126077841    1.8678187550    0.2878900622
 H   -0.2039732536    2.2096197807   -0.5600704649
 H   -0.2072178536    1.8974170710    1.1842508854
 H    0.3963834314   -1.7653079840    1.0228682181
 H    1.5845852223   -0.4945871981    1.4005844665
 H   -0.0272795256   -0.8389115440    3.1001758877
 H   -2.1149644505    0.5583504806    0.3716324819
 H    0.4018454112   -1.4367673908   -1.4918391050
 H    1.0862920482   -0.0237689486   -3.3930491656
 H    1.0840850733    1.4641532638   -2.3479435707
 H    2.7917364337    0.4442830059   -0.8295556186
 H    2.8339664088   -1.0606824340   -1.8476264652