18

 O    0.0000442558   -0.0374445984    0.0041213749
 C   -0.0024528458    1.1722050911   -0.0382928667
 N   -1.1125158593    1.9834942004    0.0039390652
 C   -0.8087634316    3.3840401551   -0.0265406680
 C    0.1005828708    3.9832400723    1.0422555834
 C    0.6335631313    3.0771636884    2.1556933092
 C    1.6926822559    2.1791313561    1.4638305034
 C    1.2241659544    2.1100195128   -0.0137636980
 C    0.6637146740    3.5132517873   -0.2871662058
 H   -2.0145316764    1.6070578337    0.2477271932
 H   -1.5336177238    4.0184727247   -0.5238036583
 H   -0.0199614456    5.0439014527    1.2338774991
 H    1.0681066829    3.6690019343    2.9650297188
 H   -0.1661444245    2.4714808319    2.5963253194
 H    2.6744178536    2.6628678211    1.5015406056
 H    1.7847208081    1.1874644978    1.9150016472
 H    1.9981857477    1.7634290132   -0.6981618787
 H    1.0772705725    4.1664372054   -1.0441929539