29

 C    0.0723874988    1.5748017846   -0.0044499358
 C    0.0653592810    0.0405068285    0.0403009930
 C    0.9251159914   -0.4637964089    1.2084143510
 C   -1.3817362612   -0.4894053694    0.0948095521
 C   -1.5050397730   -2.0112551929   -0.0608791765
 C   -2.9391597259   -2.5991001596   -0.1140314617
 C   -3.7150480436   -2.0615671454   -1.3313380324
 C   -2.8166478615   -4.1293556151   -0.2445482954
 C   -3.7150001696   -2.2725930762    1.1757718752
 H    1.0921466554    1.9661459241   -0.0845390843
 H   -0.5006403892    1.9530064380   -0.8577293584
 H   -0.3720628658    1.9947677111    0.9061704212
 H    0.5178296777   -0.3244668208   -0.8937242125
 H    1.0141892583   -1.5537822875    1.2171436424
 H    1.9382585626   -0.0516000092    1.1534774767
 H    0.4947800065   -0.1558682946    2.1694573478
 H   -1.8339431611   -0.1685801526    1.0429586620
 H   -1.9540162911    0.0064777905   -0.6987418173
 H   -0.9796686660   -2.3120470880   -0.9787951322
 H   -0.9745446070   -2.5032288517    0.7641456141
 H   -3.1776540986   -2.2642995495   -2.2647680363
 H   -4.6983570468   -2.5394678672   -1.4044508809
 H   -3.8818422023   -0.9819953695   -1.2682789793
 H   -2.2762575564   -4.5576144240    0.6071043787
 H   -3.8043987247   -4.6018844375   -0.2848413955
 H   -2.2762536667   -4.4074125087   -1.1563539874
 H   -3.8842212998   -1.1975462895    1.2898715802
 H   -4.6960352546   -2.7603644077    1.1714156006
 H   -3.1739074670   -2.6230252113    2.0621593508