17

 C    0.0479747045    1.3932912383    0.0609064630
 O   -0.1821029190    0.0147124753   -0.1073330696
 C    0.5826483847   -0.5732735582   -1.1431243476
 C    2.0508865580   -0.8240734379   -0.8040904217
 C    2.3986507742   -2.0972369060   -0.9902307507
 C    1.2148089244   -2.9109306124   -1.4098235703
 N    0.1724343569   -2.9330052373   -0.3444161039
 C    0.0678127506   -1.9728891510   -1.4651061998
 H    1.0722140284    1.6136721529    0.3974197161
 H   -0.1346786817    1.9550644057   -0.8698624976
 H   -0.6491315156    1.7442089881    0.8258934595
 H    0.5062152941    0.0616475826   -2.0450603699
 H    2.7018881091   -0.0406804173   -0.4345011054
 H    3.3810959782   -2.5208919622   -0.8169582022
 H    1.3113769106   -3.7598562705   -2.0774995988
 H   -0.4733777040   -3.6981455596   -0.5361073175
 H   -0.7425414234   -2.0859743506   -2.1759652135