20

 O   -0.2757836202    0.6570807065   -0.9041276385
 C    0.0052270953    1.2428269518    0.1206559876
 N    1.2504109010    1.3461007673    0.6539784276
 C    2.4440405062    0.7994306460    0.0202226759
 C    3.5175475021    1.8551806836   -0.1345140822
 C    4.4201726916    2.3411533221    0.9746833989
 C    4.8541053485    1.1987179803    1.9054676647
 C    5.4473920049    0.4395273278    0.6749265012
 C    4.9939976547    1.5892045930   -0.2365116275
 H   -0.7492432437    1.7658897076    0.7424530905
 H    1.3653993292    1.8872875423    1.4965089943
 H    2.8109084358   -0.0588526623    0.5935942610
 H    2.1239904027    0.4227027877   -0.9542558097
 H    3.2044791604    2.6699150793   -0.7849066202
 H    4.4963400896    3.3957434244    1.2129806744
 H    5.6295271046    1.5048693597    2.6104092113
 H    4.0618118499    0.6954036250    2.4700689311
 H    6.5351632351    0.3641072376    0.7329235699
 H    5.0487757311   -0.5552449232    0.4531153353
 H    5.5706451411    1.9808828534   -1.0661825257