18

 C    0.1970166190    1.3727613651   -0.2693313703
 C   -0.0620238771   -0.0820897182   -0.1157282573
 C   -1.1627454390   -0.8152676974    0.1974003203
 C   -0.7578582237   -2.1913765712    0.1969575603
 C    0.5636824010   -2.2032886271   -0.1241515350
 O    1.0021056017   -0.9209102005   -0.3160508892
 C    1.5492917917   -3.2784666303   -0.2813601967
 C    2.6714985813   -3.1554459917   -1.2546242998
 N    2.9417187735   -3.0987089445    0.1885749366
 H    0.5516533756    1.6165971970   -1.2774981244
 H   -0.7230377955    1.9323176618   -0.0869613689
 H    0.9569875983    1.7248340086    0.4379909455
 H   -2.1460308282   -0.4238495111    0.4077260041
 H   -1.3688805631   -3.0550549238    0.4079074117
 H    1.1415551598   -4.2649705738   -0.0799767703
 H    3.0444197921   -4.0431611997   -1.7581122409
 H    2.7290738642   -2.2375320503   -1.8321079553
 H    3.0632580383   -2.1268126427    0.4659353396