15

 O   -0.2956175137   -0.1757889585   -0.0260756102
 C   -0.2408305619    1.0314836517   -0.0711880686
 N    0.9171950201    1.7653637141   -0.0584299793
 C    0.9067090621    3.2236197485   -0.0621245137
 C    1.3652580100    3.8032896990    1.2010336106
 C    1.7615619067    4.2635555181    2.2372652843
 C    2.1871282149    1.0704078846    0.0633514176
 C    3.0556104354    1.2985295492   -1.0994410195
 N    3.7364176869    1.5057562734   -2.0093199945
 H   -1.1344358825    1.6801578958   -0.1324894437
 H    1.5313187075    3.5909349471   -0.8869006127
 H   -0.1178167939    3.5465527715   -0.2765642602
 H    2.1025842969    4.6801749521    3.1533705958
 H    2.7164423060    1.3932157090    0.9678657570
 H    1.9554553454    0.0052971043    0.1531718773