19

 O   -0.0075981478    1.4259451647   -0.0937438465
 C    0.0278277366    0.0197205174    0.0166241087
 C    0.6500239186   -0.5270322859    1.3470412160
 C   -0.5282968877   -1.3146494287    1.9699791718
 O   -0.2000613234   -2.2571431472    2.9572392846
 C   -1.6162614061   -0.2917833355    2.3654946543
 O   -2.1320185941    0.1740674565    1.1114486595
 C   -1.4129538466   -0.5334334009    0.0946479970
 C   -1.1894080310   -1.9177965761    0.7147217371
 H    0.8948862529    1.7382386902   -0.2089150651
 H    0.5347995017   -0.4258926347   -0.8522845205
 H    1.4936951663   -1.1997648866    1.1662722071
 H    0.9874609579    0.2980114549    1.9829937255
 H    0.2321057950   -1.7964576817    3.6843150186
 H   -2.4110947779   -0.7744355634    2.9494148821
 H   -1.2154398446    0.5531498122    2.9412184921
 H   -1.9785127287   -0.4604562108   -0.8339604359
 H   -0.5150818622   -2.5644405801    0.1475409865
 H   -2.1212827788   -2.4455158244    0.9276977770