17

 C   -0.0001015178    1.5897513629    0.0343124940
 C    0.0160469571    0.0947499876    0.0372309453
 C    0.0456825880   -0.7463193412   -1.0289406918
 O    0.0348558152   -0.4692039082   -2.3478749266
 O    0.0804434634   -2.0448528076   -0.6790154782
 C    0.0557997255   -2.0691852675    0.7329671517
 N    0.1017259301   -3.2790175855    1.4144659735
 C    0.0254893961   -0.7869073042    1.1843008333
 N    0.0891896919   -0.3689326518    2.5183545197
 H    0.8057451593    1.9990594618    0.6549614795
 H    0.1281344017    1.9740455713   -0.9808726127
 H   -0.9431888601    1.9992786389    0.4206704648
 H    0.1559740832   -1.2986003603   -2.8240404571
 H   -0.6626888981   -3.9062433145    1.1847568804
 H    0.9754519128   -3.7851149506    1.3027491782
 H   -0.0703753578   -1.1453118149    3.1497533876
 H   -0.5569009602    0.3824414337    2.7273140883