19

 N   -0.0338154273    1.3862264957   -0.2560109435
 C   -0.0385591203    0.1541286965    0.0350987147
 C   -1.3471592775   -0.6102814527    0.0694206042
 N   -1.7107914897   -1.0799430048    1.4087219307
 C   -2.2980595025   -2.4192951159    1.4882379010
 C   -0.9125262706   -2.1733366667    1.9678544409
 C    0.3161875687   -2.6634208827    1.2308697178
 C    1.3734724249   -1.5615208109    1.1318050483
 O    1.1366310934   -0.5433256961    0.1508846045
 H    0.9299308054    1.7286605687   -0.2814368698
 H   -2.1226217584    0.0788114461   -0.2686524475
 H   -1.2780737149   -1.4274450074   -0.6672547213
 H   -3.1175314624   -2.5365031709    2.1919097647
 H   -2.4138547543   -2.9764740422    0.5592340677
 H   -0.7591197002   -2.0682292047    3.0420174079
 H    0.7560219718   -3.5020372064    1.7840699709
 H    0.0797751480   -3.0399532029    0.2312199260
 H    1.5047846866   -1.0860105657    2.1141889039
 H    2.3360692091   -1.9862065070    0.8353442689