15

 N   -0.2878527569    1.1712195555   -0.0377741383
 C   -0.4679790904   -0.0445563059   -0.3145166903
 O   -0.9714927353   -0.8758877931    0.6325723796
 C   -0.9963377570   -2.2342030122    0.3090443669
 C   -2.1236013238   -3.0174477208    0.8806061214
 C   -2.0786796570   -2.7728828510   -0.6266407094
 C   -3.0130017461   -1.8828237165   -1.2451869608
 C   -3.7850335602   -1.1340792288   -1.7836123203
 H    0.0781057734    1.6607207636   -0.8518185755
 H   -0.2655535058   -0.5454751196   -1.2687331162
 H   -0.0138595666   -2.6959856763    0.2420551052
 H   -1.9358131458   -4.0220742713    1.2400883349
 H   -2.8616494487   -2.4503477774    1.4345290397
 H   -1.7756867043   -3.6197410702   -1.2361547516
 H   -4.4732135655   -0.4717400860   -2.2473924654