16

 O   -0.2233947459    0.0471269387    0.3744904671
 C   -0.0750904304    1.1758082322    0.0472598904
 O   -1.0617587686    2.0876644224   -0.3487899787
 C   -0.0152055853    2.9878323530   -0.8966407808
 C    0.3835357205    4.4498180019   -0.5662577179
 N    1.6504404667    4.2194218099    0.2268418079
 C    1.0867238145    3.2074572929    1.1894825107
 C    1.0055796770    2.2673186835   -0.0445809855
 C    2.3125274631    2.9982905151   -0.4516981041
 H    0.0393060475    2.7791491699   -1.9677209718
 H    0.5944981521    5.0107092866   -1.4792816610
 H   -0.3210925347    5.0169590553    0.0438605635
 H    1.8405075090    2.8863930270    1.9108418211
 H    0.1630208093    3.4974129004    1.6951224245
 H    2.5246879636    3.1052058297   -1.5177391164
 H    3.2122909514    2.7382585916    0.1050285810