18

 C    0.0306205160    1.2780684531    0.2849664033
 O   -0.1341295694   -0.0050960136   -0.3014303692
 C   -1.3905516865   -0.5252294235   -0.1551071193
 C   -1.7602864539   -1.9873057496   -0.0957368082
 C   -1.9545401185   -1.1363634513    1.1377722710
 N   -3.4345687765   -0.9843876293    0.9853784565
 C   -3.6089802636    0.3934368120    0.3856142700
 C   -2.7375978254   -0.0754521719   -0.7950440917
 C   -3.1955159265   -1.5325946774   -0.4401290703
 H    1.0772535077    1.5571965022    0.1475130302
 H   -0.6045710485    2.0296126733   -0.2034042576
 H   -0.2054199286    1.2607778232    1.3575853217
 H   -1.1970369820   -2.8947314390   -0.2608357502
 H   -1.4421007938   -1.1564086337    2.0909025962
 H   -4.6605223288    0.5374948782    0.1202586587
 H   -3.2639416054    1.2221560018    1.0123819883
 H   -2.7339653697    0.3572454677   -1.7950454040
 H   -3.9866433568   -2.0963681022   -0.9304405754