17

 C   -0.0426074596    1.5645391440    0.0547059875
 C    0.0020396873    0.0208693855    0.0443081745
 C    0.7275958426   -0.5014661098    1.3035827809
 C   -1.3625562415   -0.5131196220    0.0024312204
 C   -2.4794728059   -0.9552397296   -0.0396275342
 C    0.7303646346   -0.4863506795   -1.2439592821
 C    2.1146421300   -0.0283785079   -1.3401260298
 N    3.2081448065    0.3405612977   -1.4046440366
 H    0.9721725853    1.9729735569    0.0640430825
 H   -0.5652170715    1.9478900449   -0.8261919969
 H   -0.5692940495    1.9213010874    0.9432285733
 H    0.2088364429   -0.1659898943    2.2049677907
 H    0.7554491533   -1.5946940779    1.3152592225
 H    1.7545123137   -0.1255878331    1.3326130838
 H   -3.4685020426   -1.3417146337   -0.0674231700
 H    0.7196321429   -1.5807981787   -1.2620755700
 H    0.1845559014   -0.1457359499   -2.1295883765