19

 C   -0.4129360552   -1.1448036529   -0.5491195396
 C   -0.2378811914   -0.0007409215   -0.2201260450
 C   -0.0104197804    1.3723401355    0.1776310056
 C    0.3089224276    1.6988185577    1.6709180290
 C    1.3380861604    2.7528711136    1.1912175225
 C    1.3416522741    2.0854766090   -0.2139375128
 C    2.4919349721    1.1456287904   -0.4793863167
 C    3.8853961492    1.4992399547   -0.1864824333
 O    3.1732736794    0.5814104395    0.6467948905
 H   -0.5711644063   -2.1559496470   -0.8315431547
 H   -0.8448691045    1.9940543250   -0.1645398875
 H   -0.5272474877    2.0368768089    2.2860512469
 H    0.8015460918    0.8550775646    2.1562336719
 H    0.9237197075    3.7634747940    1.1571133640
 H    2.2889233944    2.7740788492    1.7248041484
 H    1.2493479879    2.7598768472   -1.0715992623
 H    2.3119024402    0.4284430272   -1.2810345556
 H    4.6889629850    1.0654080459   -0.7797124501
 H    4.1139952258    2.4619243389    0.2691870286