21

 C   -0.0716254143    1.5311832844   -0.2801942687
 C    0.0276950743    0.0333789914    0.0277391772
 C   -1.3399530465   -0.6283641208    0.0980243228
 N   -2.0864029467   -0.6851451023   -1.1866198572
 C   -2.6376101519   -2.0090707523   -0.8382512314
 C   -2.7352912752   -2.9612331788   -1.9458778468
 N   -2.8163637702   -3.7292662733   -2.8059357251
 C   -1.4826657241   -2.1816470163    0.2074971568
 C   -0.3009202082   -3.0209362514   -0.2591930930
 H    0.9191376946    1.9923221105   -0.3256633952
 H   -0.5593291372    1.6969071414   -1.2463400612
 H   -0.6504034519    2.0591007210    0.4864079012
 H    0.6304176383   -0.4594945562   -0.7414582152
 H    0.5405464681   -0.1174540747    0.9867334802
 H   -1.9271750021   -0.1508344924    0.8998906066
 H   -2.7775030639    0.0398453220   -1.3461106598
 H   -3.6155527564   -1.9758951929   -0.3367480216
 H   -1.8342660907   -2.5308886215    1.1802662994
 H    0.0392725571   -2.7230877419   -1.2544173360
 H    0.5399569110   -2.9248249542    0.4346158880
 H   -0.5778492040   -4.0785020217   -0.3067467110