18

 C   -0.1997502372    1.6087153172   -0.1636831473
 C   -0.0525398603    0.0982003388   -0.0650902885
 C    1.0933445094   -0.6056886081   -0.9144757970
 O    1.9809162202    0.2026416285   -1.6295345133
 C    1.6407637572   -1.2175818712    0.3839891396
 N    2.0075239876   -0.0820009066    1.2219408460
 C    0.5840929686   -0.4919791362    1.1981419536
 C   -0.0247772659   -1.0546454316    2.4109760167
 O    0.6140880820   -1.3846863741    3.3868606649
 H    0.7223729864    2.1138844763    0.1336909104
 H   -0.4339865622    1.9061833261   -1.1900223471
 H   -1.0047634826    1.9662623110    0.4868343431
 H   -1.0054855903   -0.4011799638   -0.2709116831
 H    0.6933268946   -1.3452920878   -1.6105270950
 H    2.4705452511    0.7112315421   -0.9691427523
 H    2.0502721538   -2.2052364267    0.5611353549
 H    2.3903197924   -0.4384769854    2.0991693727
 H   -1.1274433148   -1.1829224384    2.3689909817