16

 O   -0.1759527431    0.0021737453   -0.3457977420
 C   -0.0642883509    1.1653959172   -0.0648477561
 C    1.2804493368    1.8900326889    0.0630226551
 C    1.3557005770    2.7615742689    1.3268056125
 C    1.6382914387    1.9630261021    2.6096503462
 O    1.2658483098    2.3802519444    3.6912344265
 C    2.4248198501    0.7575295939    2.4135692711
 C    2.7573547045    0.3334825352    1.1702502977
 N    2.3932787763    0.9592804172    0.0061804020
 H   -0.9508312349    1.8235887013    0.0804525876
 H    1.3239904945    2.5530810792   -0.8146972126
 H    2.1691376632    3.4879101125    1.2120458658
 H    0.4325648262    3.3319041125    1.4604325805
 H    2.7659397451    0.2172544151    3.2869728789
 H    3.3767999377   -0.5470197408    1.0273583214
 H    2.3812816491    0.3572281971   -0.8044749543