16

 O    0.1020662510    0.2060282675   -0.6605562135
 C    0.1962929252    1.3895073691   -0.5433130969
 O    0.9984465736    1.9699150792    0.3708091282
 C    1.0489778500    3.4003863303    0.4300178560
 C    2.4676771604    3.8769614044    0.1801932293
 C    2.9357724536    3.8358710292   -1.2907104374
 O    2.8565322172    5.2729257985   -1.3986967620
 C    2.6026749292    5.4076147815    0.0131004128
 H   -0.3548933141    2.1275482507   -1.1592008024
 H    0.3611419856    3.8340551955   -0.3087720165
 H    0.7083318462    3.6973540471    1.4278987054
 H    3.1454447635    3.4164529316    0.9009660213
 H    3.9588214845    3.4686613008   -1.4378951373
 H    2.2729079800    3.3300447538   -2.0037877336
 H    1.7044315947    6.0046307065    0.2174903921
 H    3.4521114094    5.8538038344    0.5454089743