21

 O   -0.0155169312    1.3727696182    0.0012796574
 C    0.0412998124   -0.0325669347   -0.0459402137
 C    0.7356714789   -0.6290760203   -1.2824896190
 C   -0.0356861830   -1.9611418635   -1.5020730667
 C   -0.7790725645   -2.1418625603   -0.1642179959
 C    0.2945379233   -2.2172881245    0.9726262598
 C    0.3057724035   -0.7262570787    1.3506863290
 C   -1.2017500576   -0.4867701284    1.6499650699
 C   -1.3449649089   -0.7226493985    0.1296654474
 H    0.8697329797    1.7001813525    0.1916510965
 H    0.6327377086    0.0582725281   -2.1264225741
 H    1.8076376834   -0.7881336738   -1.1185741334
 H   -0.7476135047   -1.8612353372   -2.3288177817
 H    0.6188604903   -2.8069076864   -1.7335167994
 H   -1.5050392171   -2.9564475617   -0.1589441344
 H   -0.0136841842   -2.8418546969    1.8165098512
 H    1.2550135236   -2.5961626717    0.6095179369
 H    1.0941996211   -0.3704328845    2.0182016496
 H   -1.6969487115   -1.1777931771    2.3383721338
 H   -1.4179500201    0.5468265530    1.9195659055
 H   -2.2155730520   -0.4001505137   -0.4429096184