12

 N   -0.1130360243    1.3299344387    0.0087452387
 C    0.0284350219    0.0688963205    0.0011304025
 N   -1.1468957556   -0.7174775907    0.0036906246
 N   -1.2211415493   -2.0249164664   -0.0029412957
 C   -0.0775154760   -2.6696740672   -0.0131088698
 C    1.1704109356   -1.9353914663   -0.0164734449
 N    1.2305999478   -0.6480395455   -0.0098637573
 C   -0.0964580805   -4.0951376680   -0.0206849964
 N   -0.0453728128   -5.2516168551   -0.0272210241
 H    0.8025985527    1.7755742735    0.0057381587
 H   -2.0302527822   -0.2227797345    0.0115181257
 H    2.1055651528   -2.4936672092   -0.0249948919