18

 C   -0.1597739143    1.4264870495   -0.0098220331
 N    0.0363662910   -0.0172352485   -0.0000124580
 C    1.2251346986   -0.4937273413   -0.8111253171
 C    2.1389840007   -0.3206990211    0.4399090296
 C    0.8000785923   -0.5214475229    1.2030456662
 C    0.4768879504   -2.0186955498    1.3044980443
 O    0.1565495652   -2.5664789557    2.3359038809
 C    0.6296908727   -2.7131077038   -0.0021471467
 C    1.0173045463   -1.9722835181   -1.0492107484
 H    0.7425479202    2.0293653831    0.1935880480
 H   -0.5518575665    1.7246659705   -0.9877454480
 H   -0.9122018327    1.6830380710    0.7427667818
 H    1.4371346269    0.0727927503   -1.7200168002
 H    2.9460620624   -1.0413021316    0.5886078335
 H    2.5241208595    0.6945715339    0.5494266349
 H    0.6186242605   -0.0137835995    2.1518202705
 H    0.4427564426   -3.7804089486   -0.0420173538
 H    1.1912546041   -2.3947024675   -2.0336581943