23

 C   -0.0392094639    1.5991752941    0.0272325325
 C   -0.0039865050    0.0673929031    0.0642121947
 C   -1.3858299658   -0.5844991176   -0.0129687937
 C   -2.1437001367   -0.3664993789   -1.3333474402
 O   -3.1288780127   -1.3872985767   -1.3666450965
 C   -2.5468827398   -2.5512120250   -0.8125597343
 C   -3.4907690726   -3.6672601249   -0.5074865259
 C   -2.5154119658   -3.7882689360   -1.6695040160
 C   -1.3729727678   -2.1286565711    0.0739880777
 H    0.9669371072    2.0193840108    0.1203268589
 H   -0.4658337462    1.9714416104   -0.9101917573
 H   -0.6443773685    2.0002491398    0.8479586185
 H    0.6138700144   -0.3083339564   -0.7629833670
 H    0.4927010756   -0.2605519636    0.9860506949
 H   -2.0127881242   -0.1917688117    0.7976443296
 H   -2.6596031367    0.5943597771   -1.4019920863
 H   -1.4530276484   -0.4530515483   -2.1908087966
 H   -3.3171438666   -4.2637363568    0.3822322625
 H   -4.5350522015   -3.5050367076   -0.7509649800
 H   -2.9263170458   -3.7050947903   -2.6694908520
 H   -1.6752498031   -4.4690915138   -1.5721951922
 H   -0.4288946143   -2.5248650561   -0.3167755431
 H   -1.4773397918   -2.4836828906    1.1030000318