21

 C   -0.3430023518    1.4022765910    0.0388300020
 N    0.0230686567   -0.0042379066    0.0863447697
 C    1.4094388652   -0.3362241582   -0.2189862473
 C    0.8781898155   -0.5259649632    1.1606935761
 C    1.4161846761    0.2912523827    2.3289368868
 C    0.5776460094    0.1635643300    3.5802338460
 C   -0.8440171009    0.6521026772    3.5669987701
 N    1.1726967706   -0.3729953209    4.5773686268
 O    0.3579483955   -0.4735613885    5.7165654418
 H    0.4540876950    2.0999082820    0.3424193442
 H   -0.6210902341    1.6495065466   -0.9908228699
 H   -1.2160974131    1.5790670189    0.6745423448
 H    1.5732192081   -1.1845280559   -0.8788714630
 H    2.1051581518    0.4910451638   -0.3648497487
 H    0.5994227920   -1.5390073024    1.4494905946
 H    2.4240035347   -0.0600447889    2.5704457479
 H    1.5028908671    1.3477966698    2.0488422962
 H   -1.3273536996    0.4967229440    4.5296380825
 H   -0.8732798066    1.7200998097    3.3214898578
 H   -1.4160064543    0.1321250474    2.7907374042
 H    0.9543438725   -0.8860166884    6.3496093073