18

 C   -0.1921721952    1.4859910603   -0.2373528202
 C    0.0644308769    0.0107905302   -0.0029602549
 O    1.1837137793   -0.4466783876    0.0709629698
 C   -1.1656610718   -0.8794634805    0.0928219949
 C   -1.4668881519   -1.5587702493   -1.2902749670
 C   -0.7489579133   -2.8427347759   -0.7713135609
 C   -0.8757306995   -2.2848703689    0.6812029640
 C   -1.3586915597   -4.1250280487   -1.0742901672
 N   -1.8670085903   -5.1373115664   -1.3074149739
 H    0.7451281185    2.0037217904   -0.4431477233
 H   -0.8934676411    1.6321366293   -1.0664901973
 H   -0.6619071262    1.9216721676    0.6525575071
 H   -2.0051209416   -0.3275783880    0.5208940632
 H   -2.5364338707   -1.7197334593   -1.4338611141
 H   -1.0494336259   -1.0964168125   -2.1870609481
 H    0.2986793914   -2.8511277781   -1.0792928778
 H    0.0189033028   -2.3718354957    1.2968575105
 H   -1.7392292816   -2.6985723369    1.2041969150