15

 C   -0.0011981714    1.4036419178    0.0079279334
 O   -0.0191228423   -0.0221968090    0.0034965180
 C   -1.2262244577   -0.6213185232    0.0106884643
 N   -2.3244961667    0.1207046896    0.0214998352
 C   -3.5028844673   -0.5195018951    0.0282813696
 C   -3.6307653644   -1.8984659844    0.0246368571
 C   -2.4590563359   -2.6633294407    0.0131816674
 C   -1.2335476574   -2.0260864624    0.0060168860
 H    1.0539939352    1.6809923542    0.0004676433
 H   -0.5064641124    1.8085258637   -0.8736789031
 H   -0.4923927824    1.8028271375    0.9000320309
 H   -4.3842779766    0.1174590732    0.0371053820
 H   -4.6099023065   -2.3618788820    0.0305148956
 H   -2.5080421182   -3.7474297762    0.0099137951
 H   -0.2949729861   -2.5661981930   -0.0029314148