17

 N   -0.0966760244   -1.1732977379   -0.2074082047
 C   -0.0473757738   -0.0231987819   -0.1073257140
 C   -0.0059902572    1.4314252405    0.0456069011
 C   -0.6488352263    1.9513311296    1.3788795928
 C    0.2568079596    3.1369115009    1.6935346007
 C    1.7448866476    2.8757340989    1.9158184244
 C    2.1157524595    1.5499926047    1.2692146110
 N    1.3787586728    1.9608865650    0.0097458009
 C    1.2354989758    3.3384852759    0.5717551344
 H   -0.5369265863    1.8734239750   -0.8050321147
 H   -1.6877668308    2.2556364638    1.2287194825
 H   -0.6375646547    1.1842645890    2.1577911479
 H   -0.1481276145    4.0068010523    2.1972590438
 H    2.3182063857    3.4257100633    2.6517196628
 H    3.1826194480    1.4592471475    1.0529509493
 H    1.7651253220    0.6201874799    1.7298668522
 H    1.4004359971    4.2271889335   -0.0228019103