21

 C   -0.0533635455    1.5492656040   -0.1098227804
 C    0.0596233801    0.0413274547    0.0455716279
 O    0.6534812273   -0.4835284314   -1.1431439185
 C    1.3666736105   -1.6587472611   -0.7870560822
 C    2.0154928184   -1.2998961782    0.5487615138
 C    0.9100895379   -0.4873741003    1.2399917486
 C    1.3246945843    0.4225487777    2.4212009538
 C    0.5338337766   -0.5696716149    3.2913828719
 O    0.0948107871   -1.3027726987    2.1310370297
 H    0.9354623478    2.0171193757   -0.1476763007
 H   -0.5744678749    1.7818531138   -1.0423585341
 H   -0.6211775236    1.9894991633    0.7151971349
 H   -0.9411192593   -0.3976792538    0.1818610022
 H    0.6850170281   -2.5171054075   -0.6726442166
 H    2.0747767137   -1.8805834457   -1.5894153777
 H    2.3180236557   -2.1574053519    1.1536254195
 H    2.8878782166   -0.6601710260    0.3742054474
 H    2.3985426400    0.4783207724    2.6090769283
 H    0.9162398626    1.4333241831    2.3928199190
 H    1.1415672366   -1.1884088192    3.9638797095
 H   -0.3103964599   -0.1586926462    3.8569642235