20

 C    0.2032401336    1.4844940984    0.1525617299
 C   -0.1516047514   -0.0018111742   -0.0072488748
 C   -1.6701955875   -0.2053192049   -0.0995808428
 C    0.5555543749   -0.5728866551   -1.2272079246
 C    1.9491543551   -1.0961749409   -1.1698991624
 C    0.8037247745   -2.0700142703   -1.4379314080
 C    0.4620237544   -3.0648457446   -0.3991773942
 O    0.0155207961   -4.1633380361   -0.6276031576
 H    1.2842005746    1.6283256251    0.2457799594
 H   -0.1371920531    2.0625365200   -0.7147438623
 H   -0.2744830410    1.9080525953    1.0417088472
 H    0.2109818140   -0.5268400704    0.8855344362
 H   -2.0781317096    0.3029470770   -0.9812800681
 H   -1.9293297125   -1.2656728628   -0.1777284533
 H   -2.1751275976    0.2032042205    0.7816475523
 H    0.2838043692   -0.0659619075   -2.1516082525
 H    2.6367187124   -0.9037380410   -1.9853941966
 H    2.4209865651   -1.1640360561   -0.1934427837
 H    0.6846869656   -2.4462414950   -2.4482385768
 H    0.6627108331   -2.7391924773    0.6477367328