17

 C   -0.0844188754    1.4851459379    0.0084895880
 O    1.1143038345    0.6782116286    0.0005521809
 C   -0.1436112903    0.0269802298    0.0117927388
 C   -0.4446074445   -0.9940835118    1.0769645995
 C   -1.7071210314   -1.8171064535    0.7202452295
 C   -2.6676447573   -1.2562550879   -0.2827270686
 C   -1.9967790851   -0.8481180587   -1.3633603867
 C   -0.5103111492   -0.9965173042   -1.1023809879
 C   -0.4062580000   -2.0890148957    0.0222788969
 H   -0.2604736611    2.0412221541    0.9284500479
 H   -0.2736172010    2.0394538497   -0.9100746024
 H   -0.0472378655   -0.9859755270    2.0842065838
 H   -2.0425305448   -2.4860649063    1.5048944304
 H   -3.7342557290   -1.1796721628   -0.1137784201
 H   -2.4073493847   -0.3406471572   -2.2270401009
 H    0.1656727844   -1.0223291993   -1.9553452133
 H    0.1349577905   -3.0259534256    0.0006245143