16

 C   -0.0068214967    1.4092174554    0.0086167069
 C    1.4208125654    1.9569139995    0.0229146802
 O    2.1195293304    1.5671981823    1.2038891228
 C    1.9186697708    0.2392549685    1.4629991876
 C    2.6277807260   -0.5860167072    2.3037257026
 N    2.0301946833   -1.8244644545    2.2348220508
 C    0.9584778507   -1.8060361803    1.3707142723
 C    0.8729974949   -0.5248837235    0.8787053246
 O   -0.0204123258   -0.0168063947   -0.0238532730
 H   -0.5446030696    1.7685291666    0.8979484413
 H   -0.5350509616    1.7469253758   -0.8868416376
 H    1.9587281871    1.5971947561   -0.8661714349
 H    1.4092295020    3.0499355825    0.0133845789
 H    3.4807394971   -0.3938588994    2.9312319834
 H    2.3346068150   -2.6318289500    2.7459014476
 H    0.3631041110   -2.6809735872    1.1751570165