19

 C   -0.1113750705    1.6056874703   -0.0667897495
 C    0.0336376204    0.0970530304    0.0257978903
 C    1.1791782320   -0.6223104659   -0.7390366291
 O    2.3551724530    0.0536519980   -0.2727178692
 C    2.2593014859   -0.3629570496    1.1007855096
 C    2.4745659284   -1.8915331077    0.9910010779
 C    1.1015260532   -1.8080211055    0.3104618919
 O    0.2957353221   -2.8685929251   -0.0645227454
 C    0.6933413093   -0.5898638465    1.2353092263
 H    0.8573410063    2.0961826047    0.0552714413
 H   -0.5217907944    1.9035491894   -1.0382713363
 H   -0.7890728334    1.9824815133    0.7071011003
 H   -0.9103643891   -0.4176690396   -0.1816380388
 H    1.2007567182   -0.7725479797   -1.8173463563
 H    2.8411492537    0.2793464735    1.7573459840
 H    3.3497312331   -2.2341470517    0.4333994977
 H    2.4019701708   -2.3923516602    1.9620507344
 H    0.1356042205   -3.4216025934    0.7075356724
 H    0.2582466403   -0.6793278748    2.2301948486