15

 C    0.0302081780    1.4342442009   -0.0553325528
 N   -0.0071251657   -0.0083172808    0.0115555965
 N   -0.0832072200   -0.7565180334   -1.1289044449
 C   -0.0488084605   -2.0176686085   -0.7126337140
 C    0.0547478650   -2.1112868159    0.6948129620
 N    0.1187164137   -3.1821414676    1.6333549219
 C    0.0809884314   -0.7908520976    1.1048280064
 O    0.1708838780   -0.2833599610    2.3471289846
 H    1.0263072986    1.7933296439   -0.3355302472
 H   -0.6907502555    1.7720534044   -0.8018983952
 H   -0.2333706077    1.8402219462    0.9226178498
 H   -0.1047816459   -2.8190720867   -1.4366388093
 H    0.9287007799   -3.7748109995    1.4805273543
 H   -0.6994671510   -3.7811416001    1.5843957542
 H    0.1992625917   -1.0582619244    2.9298333135