21

 C   -0.2987864769    1.4360449500    0.0479482190
 C   -0.0669409356   -0.0542801052    0.0441634237
 C   -0.4247292474   -0.8966223462    1.2501451614
 C    1.0213270217   -0.7301352350    0.8532905601
 C    1.5877623224   -1.8163319180   -0.0398993200
 O    0.5855390012   -2.0465960189   -1.0312774843
 C   -0.0919060942   -0.8267386833   -1.2539067755
 C   -1.2322342579   -0.8946615270   -2.2134854625
 C    0.0530194688   -0.1817569203   -2.6095133249
 H    0.4303198628    1.9608681126   -0.5781487351
 H   -1.3006725072    1.6882489292   -0.3199170245
 H   -0.2156953365    1.8362096176    1.0626649138
 H   -0.7596423084   -0.3672815660    2.1359074165
 H   -0.8948368507   -1.8616024737    1.0897440841
 H    1.6964126292   -0.1602772722    1.4817776291
 H    2.5315284044   -1.4810573196   -0.4988102747
 H    1.7667324493   -2.7722901269    0.4634230684
 H   -1.4335908533   -1.8578421225   -2.6686626799
 H   -2.1129937128   -0.2941514412   -2.0113804818
 H    0.0367859285    0.8988396196   -2.6992710230
 H    0.7012613826   -0.6893241730   -3.3149872498