17

 C   -0.0624595469    1.6015651860   -0.0082455991
 C    0.0279799048    0.0950735154   -0.0551138524
 C   -1.0795171784   -0.6227799607    0.6604852524
 O   -2.0767192694   -0.0929779677    1.0806165179
 C    0.5790450183   -0.7074139231   -1.1891727662
 C    1.7267710308    0.0012446752   -1.9035706687
 C    2.4003040474    0.0888514811   -0.5111556922
 N    1.2862302898   -0.6916095744    0.1437485444
 H    0.5284867807    2.0938043229   -0.7813881717
 H   -1.1086640617    1.8903848094   -0.1329148691
 H    0.2630048819    1.9758769265    0.9680201137
 H   -0.8979826691   -1.7134226780    0.7749188271
 H    0.0733369905   -1.5969913300   -1.5555811491
 H    2.2606193664   -0.6620996666   -2.5861047808
 H    1.4893899361    0.9287520769   -2.4314876020
 H    3.3259702095   -0.4838509311   -0.4342688629
 H    2.5616198894    1.0815173983   -0.0831911312