23

 C   -0.4464500682    1.5498148314    0.3836106630
 C   -0.1040264229    0.0730610965    0.2204262978
 C    0.2763564288   -0.4615936089   -1.1759223039
 C   -0.7008483433   -1.0671864380   -2.1431636003
 C    1.5999576878    0.1127057276   -1.6015581357
 C    1.5856572528   -1.0252866166   -0.6176835778
 C    1.2420190625   -0.5382514741    0.7914726077
 C    2.2263762073    0.3761459694    1.5100602857
 O    0.9888770697   -1.6981762071    1.5784521115
 H    0.3219085952    2.2041919718   -0.0393938027
 H   -1.3902044634    1.7854189675   -0.1209236310
 H   -0.5652506080    1.8184350257    1.4395043690
 H   -0.9120474946   -0.5412764532    0.6313558061
 H   -1.3600745516   -0.3051716174   -2.5774259854
 H   -0.1824495313   -1.5612202846   -2.9719024067
 H   -1.3351828470   -1.8140715690   -1.6521884541
 H    1.9138579475   -0.1591992622   -2.6051119868
 H    1.9171292963    1.1102094304   -1.3078936804
 H    2.0632641849   -1.9782618725   -0.8140357847
 H    2.4919147554    1.2517794420    0.9122496781
 H    1.8007323275    0.7414698908    2.4536578955
 H    3.1426783008   -0.1751388864    1.7423082411
 H    0.6771955440   -1.4045001131    2.4416869341