23

 C   -0.0360516900    1.5748234513   -0.1951614108
 C    0.0491150233    0.0767744355    0.0323913583
 O    0.7708069218   -0.5278235351   -1.0362336042
 C    1.1911558635   -1.8067322865   -0.5839671507
 C    0.1715013938   -2.8874932152   -0.9550334303
 C    2.5723658442   -2.0917693327   -1.1626097404
 O    1.2659500338   -1.7187270322    0.8449222887
 C    0.8228524534   -0.4281359304    1.2683519793
 C    2.0082371497    0.4280942705    1.7079197126
 H    0.9575765421    2.0220356079   -0.2743823394
 H   -0.5781187244    1.7810671164   -1.1219774357
 H   -0.5743018833    2.0559973604    0.6275175236
 H   -0.9714280887   -0.3375088047    0.0721148929
 H    0.1009047191   -2.9890931726   -2.0416259880
 H    0.4724503491   -3.8484539192   -0.5289895098
 H   -0.8159230243   -2.6346210995   -0.5607111247
 H    3.2669297095   -1.3003455205   -0.8735256075
 H    2.9473518622   -3.0467736696   -0.7856479675
 H    2.5253216270   -2.1390771916   -2.2541019606
 H    0.1425476598   -0.5734381273    2.1163781374
 H    2.6645112639    0.6589428992    0.8638854133
 H    1.6734247631    1.3690919289    2.1568283881
 H    2.5913670814   -0.1179009728    2.4543609854