14

 N    0.0235481026    1.3414446767    0.0094542863
 N    1.2901574481    1.8336136556    0.0001456299
 C    2.0937347592    0.7885381119   -0.0135874444
 C    1.3517398484   -0.4312631451   -0.0135228115
 C   -0.0056359690   -0.0188105959    0.0018698241
 C   -1.0266388173   -0.9719814930    0.0061527225
 C   -0.6091719771   -2.2904640612   -0.0054644854
 C    0.7678444789   -2.6083915003   -0.0204994576
 N    1.7467647130   -1.7150913320   -0.0247232318
 H   -0.7451382101    1.9890086110    0.0205304758
 H    3.1647876257    0.9220879505   -0.0230811109
 H   -2.0772598794   -0.7027518506    0.0177791014
 H   -1.3356931453   -3.0952688116   -0.0031485586
 H    1.0689975222   -3.6531933760   -0.0294202297