17

 C   -0.0174076947    1.5500661523   -0.0010554039
 C   -0.0221947502    0.0155306506   -0.0183695515
 C   -1.4385034331   -0.5612024355    0.0107974560
 N    0.6950394836   -0.5234847711   -1.1746341938
 C    2.0722480301   -0.5614665565   -1.1807556455
 N    2.6205295787   -0.8902500803   -2.4193120132
 O    2.7585959106   -0.3186533994   -0.2046303512
 H    1.0096640247    1.9224627958   -0.0020174685
 H   -0.5386774716    1.9543186756   -0.8771790783
 H   -0.5209056452    1.9298508316    0.8941062227
 H    0.5333786316   -0.3380460198    0.8543919108
 H   -2.0123661532   -0.2447357501   -0.8694446654
 H   -1.4170040444   -1.6543797304    0.0281475487
 H   -1.9772705094   -0.2100671419    0.8955734377
 H    0.2384499794   -0.4140231960   -2.0685888898
 H    2.0910528145   -1.5213431113   -3.0030265409
 H    3.5966708485   -1.1354129136   -2.3445671239