21

 C    0.0128488622    1.5343794225    0.0937523602
 C    0.0106315607    0.0274089914    0.0153169629
 C   -0.8483723695   -0.8059288898    0.9400552558
 C    0.6540719452   -0.8652242900    1.0551477718
 C    1.3272574208   -1.9868872331    0.2880198631
 O    0.7154825178   -1.9794571788   -1.0003959279
 C    0.3435959196   -0.6331897787   -1.3189585936
 C   -0.7722903527   -0.7210485552   -2.3521607723
 O   -0.3568558898   -1.4329490123   -3.5019152481
 H    0.9560224295    1.9504331215   -0.2791813286
 H   -0.7990962457    1.9695557902   -0.5002873424
 H   -0.1182868718    1.8750880611    1.1252146594
 H   -1.3869174128   -0.2755789270    1.7179405438
 H   -1.3654705556   -1.6734727794    0.5430661710
 H    1.1501271836   -0.4515284918    1.9258708928
 H    2.4111752231   -1.8036236610    0.2123877840
 H    1.1749219798   -2.9845171563    0.7135339175
 H    1.2019265945   -0.1075514415   -1.7729877332
 H   -1.6584651474   -1.1815401749   -1.8885310238
 H   -1.0510233422    0.2849535061   -2.6839735136
 H    0.0275654707   -2.2556908728   -3.1773209089