22

 C   -0.2328985921    1.5039245399   -0.0472106477
 C    0.0722228388    0.0040622769    0.0016551651
 C    0.8384020889   -0.4695500490    1.2590239526
 C    2.2013558381    0.2186419618    1.3831912214
 O    0.1188871913   -0.0841642656    2.4414279743
 C    0.9728466519   -2.0061058662    1.2057281166
 C    1.6478894058   -2.6422919165    2.4159084542
 O    1.4787006573   -4.0505782187    2.2991510256
 H    0.6717735705    2.1017033084   -0.1919038638
 H   -0.9107671253    1.7322740572   -0.8752268312
 H   -0.7044832402    1.8300618588    0.8837615061
 H   -0.8726410743   -0.5565489552   -0.0396491588
 H    0.6360573535   -0.2966297774   -0.8901527090
 H    2.0820478945    1.3034535421    1.4217766604
 H    2.7080802151   -0.0885086669    2.3010411850
 H    2.8406685539   -0.0326685876    0.5315968331
 H   -0.7512708235   -0.4967806685    2.4003107859
 H   -0.0315409264   -2.4435703800    1.1242596176
 H    1.5085353221   -2.3005719816    0.2956588583
 H    2.7158244130   -2.3792173341    2.4448222862
 H    1.1860652845   -2.2541206821    3.3347485264
 H    1.8995889027   -4.4639802657    3.0584089415