20

 N   -0.0129916211   -1.1846141289    0.1167197698
 C   -0.0318704097   -0.0291535480    0.1383015243
 C   -0.0180748318    1.4348140293    0.1593277097
 C    1.3808356081    1.9997451322   -0.0680387485
 C    2.4170148592    1.8281227127    1.0781871782
 C    2.7028584184    3.3607900136    1.0562440169
 C    1.6788988130    3.5483530722   -0.0937667344
 C    2.2673057595    3.4017990536   -1.5215251339
 C    1.9821210655    1.8690690308   -1.4957410561
 H   -0.7088372259    1.7984083049   -0.6113271852
 H   -0.4154399755    1.7706966870    1.1250118619
 H    1.9734861750    1.4825766254    2.0160779956
 H    3.2601040430    1.1727601617    0.8454613537
 H    2.4190378661    3.8653432432    1.9828205192
 H    3.7281927898    3.6534520360    0.8132295522
 H    0.9058562127    4.3059659898    0.0489035812
 H    1.6975172274    3.9332677196   -2.2873933102
 H    3.3170839920    3.6921683638   -1.6198588644
 H    2.8514437272    1.2112457168   -1.5732321551
 H    1.2533431268    1.5503689542   -2.2461222748