18

 C    0.0038791151    1.5631687412   -0.1219431069
 C    0.0272599946    0.0613916293   -0.0120265140
 O    1.3221866202   -0.5757049419   -0.0678299830
 C    0.5964546367   -0.6385014263    1.1394080628
 C    1.0807301889   -0.1342190878    2.4937280704
 O    0.5347378264   -1.3100433395    3.1296907816
 C    0.1866800145   -1.9255691616    1.8589180637
 C   -1.2540750601   -2.3897672426    1.8065520104
 H    0.7802516656    2.0136264951    0.5021179636
 H    0.1727132568    1.8764459237   -1.1572016477
 H   -0.9694755231    1.9543912285    0.1934300776
 H   -0.7344157766   -0.4627951330   -0.5920598543
 H    2.1733676049   -0.0761351938    2.5830957763
 H    0.6334367543    0.7907526434    2.8773070465
 H    0.8729020500   -2.7536836164    1.6293737645
 H   -1.9396183174   -1.5584690719    1.9952701131
 H   -1.4813154501   -2.8208268405    0.8255531887
 H   -1.4299370806   -3.1604872158    2.5632749467