18

 C    0.2317738837    1.4430815210   -0.0125036250
 C    0.0186767139   -0.0567908403    0.0479042347
 C   -1.4233776739   -0.4733785555   -0.2082812363
 O    0.9063548559   -0.7692256790   -0.8906165304
 C    1.4480927439   -1.5895258828    0.1525939831
 C    2.6945817622   -0.9866717989    0.8175425223
 O    1.8705631700   -0.2307120732    1.7460646218
 C    0.6655441300   -0.8232957902    1.2333094369
 H    1.2511802142    1.6984207796    0.2817211592
 H    0.0534292355    1.8018432756   -1.0310831814
 H   -0.4617716237    1.9598643555    0.6590256648
 H   -1.7255237353   -0.1781860901   -1.2176737913
 H   -1.5391659157   -1.5587025790   -0.1252159235
 H   -2.0992063156    0.0028687538    0.5100866703
 H    1.4163985610   -2.6574859266   -0.0700772034
 H    3.3300871340   -1.7035951417    1.3527489304
 H    3.3047179676   -0.3475075118    0.1711236998
 H    0.0182859422   -1.2249149062    2.0158135678