20

 C   -0.8770257365    1.2166798536   -0.0491550866
 C   -0.0715267569   -0.0760211406   -0.0791726536
 C    1.2339865604   -0.0707747455   -0.9244470342
 C    2.0358759536   -0.5836265155    0.2999144818
 O    3.1504694774    0.2404697847    0.6559962970
 C    2.8763239683    1.3656530106    1.3616235020
 N    1.8807623295    1.6211898910    2.0968835674
 C    0.9125765073    0.5506976806    2.3222527207
 C    0.7656794741   -0.4726108648    1.1909506891
 H   -0.2573153002    2.0689867354    0.2488278733
 H   -1.2898206794    1.4320843716   -1.0409141554
 H   -1.7173680235    1.1520397844    0.6507672658
 H   -0.7277797491   -0.9022158712   -0.3688964536
 H    1.2520392524   -0.7164241051   -1.8053289688
 H    1.5529505573    0.9320218120   -1.2223930084
 H    2.4453622919   -1.5892625550    0.1959638578
 H    3.6799161680    2.0909826222    1.2414110815
 H    1.2276588263    0.0250326666    3.2341449019
 H   -0.0547868131    1.0060512615    2.5580967728
 H    0.4551577724   -1.4314631864    1.6147767194