19

 C   -0.8163821353    0.8409466636    0.3156813951
 C   -0.1579254301   -0.5118159024    0.4355051357
 N    1.1900109161   -0.6855478586   -0.1447197809
 C    1.0090766859   -0.8007819240    1.3110728296
 C    1.6990016434    0.2564670744    2.1287471158
 C    3.1936107522    0.3716686228    2.0341169493
 N    2.3463093888    1.4022333202    1.4531897120
 C    1.0755601631    0.5990866633    3.4383354873
 O    0.1625173385   -0.0129755266    3.9353554582
 H   -0.1074426980    1.6546409318    0.4810828365
 H   -1.2554041944    0.9681418777   -0.6793844799
 H   -1.6184079393    0.9328021099    1.0552825129
 H   -0.8407011516   -1.3501052476    0.3038234620
 H    1.2929890393   -1.5991433416   -0.5753997424
 H    1.0406360774   -1.7933292073    1.7546908378
 H    3.7745211960    0.6746065408    2.9013606336
 H    3.6810941870   -0.3416879875    1.3742883382
 H    2.2573340355    1.2199087123    0.4519184842
 H    1.5367651156    1.4820747587    3.9333721049