20

 C    0.0735233189    1.5333089603    0.0110951048
 C   -0.0013359228    0.0423065513    0.0059607771
 C    0.7594658185   -1.0036286664   -0.7668165013
 C    0.8740947548   -0.9891626899    0.7366474636
 C   -0.3321552023   -1.9663057716    0.7736685347
 C   -0.6417649692   -3.1552611314    1.6175830482
 N   -0.4046882883   -1.9875490750   -0.7388187042
 C   -1.1887934953   -0.9705671896    0.0640310325
 C   -2.6656044175   -0.8058058584   -0.0628596312
 H    1.1157226094    1.8649606139   -0.0555274960
 H   -0.4656505506    1.9689512756   -0.8382754022
 H   -0.3491768581    1.9574520833    0.9295885026
 H    1.4968692153   -0.9386111582   -1.5583253130
 H    1.7195510477   -0.8198467824    1.3898092621
 H   -0.7936818151   -2.8701552347    2.6649269245
 H   -1.5518154742   -3.6467844802    1.2597938556
 H    0.1727246921   -3.8874768972    1.5782949959
 H   -3.1539609630   -1.7852196875   -0.0733620561
 H   -3.0764995170   -0.2266402828    0.7719029539
 H   -2.9273876235   -0.2927943892   -0.9953211517