17

 C    0.2410653568    1.4083849958   -0.0517608582
 N   -0.0149557183   -0.0141082846   -0.0210857851
 C   -0.0949171015   -0.8588067082   -1.1393641380
 C   -0.5395075155   -2.0732220264   -0.7851844983
 C    0.0261013782   -3.4765998876   -0.8730200504
 N    0.4362374848   -3.2913800987    0.5662880746
 C   -0.5355957730   -2.1535687543    0.7185743219
 C   -0.1195440565   -0.7414684592    1.1727492286
 O   -0.0301392578   -0.2712614758    2.2825009512
 H    1.1668362496    1.6349508390   -0.5931729716
 H   -0.5848168340    1.9506627924   -0.5252191562
 H    0.3418496665    1.7401410261    0.9831811956
 H    0.3041405736   -0.5125316327   -2.0847506370
 H   -0.7261871460   -4.2643514035   -1.0136587041
 H    0.8596222942   -3.6463155037   -1.5605867037
 H    0.1906223523   -4.0813534140    1.1570036834
 H   -1.4620652234   -2.4297966446    1.2361427274