20

 C   -0.0641925533    1.5245413264   -0.1697001472
 C    0.0165663724    0.0141522840    0.0175290830
 O    0.8148517297   -0.3587059394    1.1425707032
 C   -1.3632660148   -0.6231567999    0.1605378702
 O   -2.2064904404   -0.4171462549   -0.9962084804
 C   -2.4406720545   -1.8398924890   -1.1585921855
 C   -1.4841899422   -2.1374551152   -0.0107021706
 C   -0.4534261222   -3.1795390540    0.1615709818
 N   -1.6737771276   -3.1596514285    1.0020856542
 H    0.9349826621    1.9508281394   -0.2940640188
 H   -0.6674553030    1.7638410135   -1.0495172140
 H   -0.5372951656    1.9991195558    0.6999830312
 H    0.5147026843   -0.4370644526   -0.8477081172
 H    0.5267209967    0.1713216325    1.8942087133
 H   -1.8473005945   -0.2418441866    1.0769145640
 H   -3.4851635893   -2.1110774714   -0.9630954798
 H   -2.1483805707   -2.1906920676   -2.1551133715
 H   -0.4001607260   -4.0105101276   -0.5371106171
 H    0.4900337328   -2.8819853823    0.6083920005
 H   -1.4503897137   -2.7830742227    1.9212482407