20

 C   -0.1326870019    0.8752525586   -1.9867540764
 C   -0.0167953612   -0.2834348864   -1.0197884610
 C    1.2983479342   -0.6588928501   -0.3461014304
 C    2.5893608631    0.0932522790   -0.5898319498
 C    0.1782223545   -0.0596974592    0.4644175362
 O    0.3748351133    1.2614731948    0.9161169129
 C   -0.5530105302   -0.9052043936    1.4848795323
 O   -1.7747933060   -0.3032010314    1.8934196420
 H    0.4363047813    1.7455321216   -1.6522093604
 H    0.2348142129    0.5987548833   -2.9808402229
 H   -1.1786222296    1.1832994421   -2.0997801291
 H   -0.6567234666   -1.1265165255   -1.2709109952
 H    1.4379912879   -1.7284711288   -0.1998317545
 H    2.4407628848    1.1732388671   -0.5461563556
 H    3.3313489613   -0.1638443485    0.1736423415
 H    3.0170896289   -0.1601683358   -1.5659587641
 H   -0.4242799042    1.7553745970    0.7025043101
 H   -0.8102826666   -1.8782962331    1.0544849002
 H    0.1021154103   -1.0835548426    2.3519682940
 H   -1.5315575461    0.4682938714    2.4156184500