19

 C   -0.0587596033    1.5755485079    0.1289853511
 C    0.3090539012    0.0901382920    0.2091222032
 C    0.6353965739   -0.5027522776   -1.1519918207
 C    0.7413997969   -2.0820969359   -1.2784237331
 C   -0.4436455593   -1.9688179449   -2.2288222558
 C   -1.4284284191   -2.3166538063   -3.1355332747
 C   -2.0122231320   -1.0572121465   -3.4486112107
 N   -1.4450476246   -0.0175690870   -2.8098203556
 N   -0.5087371082   -0.6391840688   -2.0813602367
 H    0.7741644188    2.1683769411   -0.2644728359
 H   -0.9180266676    1.7263847611   -0.5311406297
 H   -0.3119910659    1.9692097515    1.1175112432
 H    1.1817237206   -0.0528312939    0.8590569285
 H   -0.5160219655   -0.4800320295    0.6529782634
 H    1.4749522622    0.0242954848   -1.6191755768
 H    1.6745214952   -2.4411210970   -1.7186444421
 H    0.5540841418   -2.6144734878   -0.3425109464
 H   -1.7047443745   -3.2833139154   -3.5214119009
 H   -2.8362576706   -0.8701987375   -4.1225647903