17

 C    0.2049557297    1.5949104319   -0.1040931333
 C    0.0824110939    0.0898448169   -0.0198608797
 O   -1.2503199110   -0.3623956840    0.2067769819
 C    0.6544148556   -0.7945819205   -1.1645168745
 O    1.8567511127   -0.2537221123   -1.7399669329
 C    2.6959157194   -1.0949896405   -0.9156735530
 C    1.4737442721   -1.6627272515   -0.1557133271
 C    0.9957258716   -0.7208751031    0.9562251837
 O    1.1507993925   -0.6751655299    2.1426692803
 H    1.1973338520    1.8797902246   -0.4615786740
 H   -0.5454568525    1.9910018629   -0.7951662921
 H    0.0447964033    2.0462986862    0.8810383000
 H   -1.4806130559   -0.1438191153    1.1178209883
 H   -0.0610698547   -1.1714749058   -1.8964146775
 H    3.2192903648   -1.8452612840   -1.5192437573
 H    3.4274586707   -0.5247143447   -0.3328129756
 H    1.4013060959   -2.7380493011   -0.0049409772