17

 C    0.0504089300   -1.1835689427   -0.0405421292
 C    0.0043796888    0.0200943043   -0.0317935282
 C   -0.0564092036    1.4395203936   -0.0101947515
 C   -1.2531427353    2.2773476799    0.4443050046
 C   -0.6860071305    3.4845735940   -0.4039046633
 C    0.2195971259    4.2743389509    0.5149145677
 C    1.3048211422    3.5421955385    0.7896617820
 C    1.2704394067    2.2901190609   -0.0149098262
 C    0.2580241978    2.4534971401   -1.1050341025
 H    0.0890164439   -2.2442974466   -0.0488064134
 H   -2.1665496005    1.8810204839   -0.0044322607
 H   -1.4024638668    2.4426244087    1.5157374591
 H   -1.4092137843    4.0419592077   -0.9957639202
 H   -0.0730638395    5.2010112625    0.9929858255
 H    2.0801643853    3.7717502989    1.5093625862
 H    2.1583083081    1.6954894121   -0.1904736646
 H    0.4221665118    2.2941328832   -2.1636884753