19

 N    0.0016392455   -1.1793545630   -0.0328273763
 C   -0.0065674930   -0.0234892209   -0.0128388186
 C   -0.0073631992    1.4397472241    0.0276183614
 C   -0.7630220576    1.9623411819    1.2724006562
 C   -0.7565002902    3.4963164671    1.3104948356
 C    0.6701913446    4.0596079966    1.2496044121
 C    1.4261244393    3.5329746612    0.0217303642
 C    1.4341026108    1.9992427803   -0.0249873109
 H   -0.5422790677    1.7850814232   -0.8684224807
 H   -1.7873477715    1.5772708419    1.2709852102
 H   -0.2757159583    1.5634413177    2.1706413567
 H   -1.3367313266    3.8815646198    0.4606100733
 H   -1.2664007768    3.8420052104    2.2159894418
 H    0.6443501456    5.1544945941    1.2369809834
 H    1.2126880793    3.7704920474    2.1601485742
 H    0.9525535478    3.9200359531   -0.8911245371
 H    2.4563474966    3.9045181999    0.0178423924
 H    1.9952798383    1.6014944691    0.8295986621
 H    1.9367711032    1.6398646564   -0.9281459900