23

 C   -0.1309747496    1.5534717383   -0.1590608780
 C   -0.0053050815    0.0314392629   -0.0341770752
 C    0.9352331310   -0.5442910587   -1.1443868886
 C    2.2819617898   -0.6489419849   -0.4544643631
 C    2.1393314192   -0.5997786961    0.8672060798
 C    3.0420243011   -0.5066202296    2.0704613622
 C    2.0628249287   -0.1619835842    3.2337745111
 C    0.7963347491    0.4157188878    2.5535399144
 C    0.6893213443   -0.4366622597    1.2751630527
 H    0.8504231878    2.0379702120   -0.1106836852
 H   -0.5855230466    1.8209107469   -1.1187560241
 H   -0.7556554866    1.9760411508    0.6343876715
 H   -1.0067319404   -0.4035095217   -0.1174407578
 H    0.5869274519   -1.5282268713   -1.4914712093
 H    0.9614796864    0.0996982666   -2.0323040025
 H    3.2159292789   -0.7439297675   -0.9982547760
 H    3.5956788168   -1.4312308715    2.2675513560
 H    3.7930479239    0.2800212236    1.9333336199
 H    1.7984203122   -1.0788539249    3.7729507234
 H    2.5009858482    0.5219934911    3.9657561713
 H   -0.0851754789    0.3649130830    3.1994932064
 H    0.9598494426    1.4685207271    2.2982860187
 H    0.2804880619   -1.4190781599    1.5632902322