19

 C    0.0003956745    1.4567227914    0.0427435705
 C   -0.0331543232   -0.0524650549   -0.0394534299
 C    0.9011175133   -0.6347344705   -1.1032857475
 O    1.0928494894   -2.0226607618   -0.9369506526
 C   -0.0878034879   -2.7993025742   -0.8486804921
 C   -1.1839622265   -2.1902521304    0.0058253620
 C   -0.9812276908   -1.3406988544    1.2384050719
 O    0.2712252320   -0.6647096289    1.2605477687
 C   -1.4318821926   -0.7019314900   -0.0484670959
 H    0.9999017008    1.7998379416    0.3276216691
 H   -0.2570358515    1.9030691964   -0.9244625478
 H   -0.7133661481    1.8145875963    0.7897883676
 H    0.4948405250   -0.3915045889   -2.1012340492
 H    1.8994582000   -0.1923056386   -1.0238782675
 H   -0.5045718022   -2.9762355490   -1.8567874114
 H    0.2312807173   -3.7677188658   -0.4488685723
 H   -2.0922603862   -2.7885098099    0.0435401008
 H   -1.4821440682   -1.5055218082    2.1855826326
 H   -2.3562010150   -0.2198551002   -0.3391744670