19

 O   -0.3881907897    1.4027644817    0.7446224032
 C   -0.1699946860    0.0400047235    0.4267088288
 C   -1.4226765018   -0.6396231326   -0.0569435351
 O   -2.3832625614   -1.0518668873    0.9413144617
 C   -1.7823690502   -2.0519830038    0.1022951416
 C   -2.6778627079   -2.4910040017   -1.0429909952
 C   -3.2173707581   -1.1595780176   -1.6139329276
 C   -2.1343379045   -0.1017595125   -1.2944282882
 O   -2.6335096103    1.2218448491   -1.1119686284
 H   -0.9517891924    1.7713013943    0.0506910466
 H    0.6116897709   -0.0736530966   -0.3450786112
 H    0.1879040449   -0.4504665315    1.3373264332
 H   -1.1418723438   -2.7631542303    0.6187936946
 H   -2.0727628129   -3.0310518167   -1.7811702069
 H   -3.4751926368   -3.1660718716   -0.7178140197
 H   -3.4441025347   -1.2103984080   -2.6805268687
 H   -4.1376990017   -0.8779106959   -1.0951051739
 H   -1.4128106414   -0.0182621448   -2.1157999190
 H   -3.2297907623    1.1892566123   -0.3527237157