23

 C   -0.0781238500    1.5550097097   -0.3333723354
 C    0.0354362301    0.0428402281   -0.1184922237
 C   -1.2984486491   -0.5700773681    0.2747903299
 O   -2.3057455364   -0.4363365560   -0.7635327851
 C   -2.3571071121   -1.8591758755   -0.9765045772
 C   -1.4315867922   -2.1164265057    0.2422187948
 O   -0.1979018645   -2.7463708712   -0.0352661300
 C   -2.1206475034   -2.7101672759    1.4721101610
 C   -2.4558494051   -4.2003052322    1.3434153723
 H    0.8777268496    1.9806974012   -0.6528530200
 H   -0.8250730216    1.7760834929   -1.1011359563
 H   -0.3816541176    2.0672635414    0.5868179912
 H    0.4001523006   -0.4467895262   -1.0265496739
 H    0.7640448497   -0.1820409832    0.6701192851
 H   -1.6590757540   -0.1171976753    1.2100843760
 H   -3.3818947422   -2.2468951830   -0.9183835786
 H   -1.9074100769   -2.1544471331   -1.9332599522
 H   -0.3524403379   -3.6921251062   -0.1248835669
 H   -1.4674039200   -2.5507355683    2.3390080650
 H   -3.0396542179   -2.1421318740    1.6583164323
 H   -2.9843269418   -4.5585453420    2.2312415654
 H   -3.0963822752   -4.3974653600    0.4764713268
 H   -1.5531159222   -4.8145781774    1.2450323594