21

 C   -0.3351618643    1.5856790436    0.1402724105
 C   -0.0771858967    0.0835657641    0.0783936131
 C    0.3672318677   -0.5418841856   -1.2546797337
 C    1.7404134266   -0.0369582987   -1.6490836642
 C    1.6425921094   -1.0792808283   -0.5877379957
 O    2.3362464350   -2.2657387374   -0.7548160979
 C    1.2170099846   -0.5086994555    0.7670402789
 C    2.1822472041    0.3869233414    1.5208883042
 O    1.5531238117    0.7702347957    2.7398604670
 H    0.4714416506    2.1634254871   -0.3221249461
 H   -1.2601557085    1.8390531696   -0.3886844070
 H   -0.4277891681    1.9154332300    1.1790825627
 H   -0.9549954307   -0.4399683484    0.4686037733
 H   -0.2856954921   -1.0110318409   -1.9811605448
 H    2.0993491410   -0.4313165355   -2.5944635543
 H    2.0594678602    0.9820335058   -1.4449045792
 H    1.8594597388   -2.9592799841   -0.2847905074
 H    0.9224896574   -1.3196277188    1.4439112823
 H    3.1146020657   -0.1691276443    1.7106828947
 H    2.4460246030    1.2693610438    0.9198401101
 H    2.1387111146    1.3765273762    3.2028329434