23

 C   -0.6652775883    1.3553006154    0.2080386492
 C    0.0128812069   -0.0204086560    0.0295053003
 C    0.5828130852   -0.1549288300   -1.3723755706
 C    1.8176169318    0.0500724303   -1.8381893482
 C    3.0785153074    0.4948790952   -1.1387481877
 C    2.9043335512    1.1007685161    0.2598112045
 C    2.3906886560    0.0884323497    1.2589152758
 C    1.3726929112    0.4557261547    2.3083269485
 C    0.9802185687   -0.4325807113    1.1476583822
 H    0.0515955569    2.1798643880    0.1608758550
 H   -1.3971705048    1.5183767314   -0.5897978021
 H   -1.1906185515    1.4105425688    1.1664968415
 H   -0.8098988832   -0.7461001175    0.0813687268
 H   -0.1644505285   -0.4394394989   -2.1132724447
 H    1.9591287864   -0.1210224317   -2.9054683586
 H    3.7735206289   -0.3578113212   -1.0827544196
 H    3.5821024780    1.2236242921   -1.7889902483
 H    3.8659419791    1.5031008857    0.6029141955
 H    2.2236273997    1.9567066918    0.1971010385
 H    3.1343493233   -0.6502847324    1.5503603504
 H    1.4487519910    0.0124814285    3.2955697187
 H    1.0134707893    1.4792812971    2.3129577623
 H    0.8801617253   -1.4841660760    1.4023349908