20

 C    1.1497065427    0.4942838777    0.9398526987
 C    0.0096179695    0.1654162348   -0.0049938644
 C   -1.1211443177   -0.6699935133    0.5760154798
 C   -1.9078018522    0.0310313378    1.7147593878
 N   -2.6039062812    1.2740288744    1.3673563632
 C   -2.8829306868   -0.9150201139    2.2821276932
 N   -3.6394269841   -1.6808483034    2.7013307930
 C   -0.2667069068    1.0985478252   -1.1347864438
 N    0.3489730164   -0.2153948118   -1.3881811224
 H    1.9247669254    1.0754498511    0.4301371232
 H    0.8175515135    1.0828233812    1.8023875512
 H    1.6108607373   -0.4222578079    1.3259241103
 H   -1.8142189585   -0.9369529666   -0.2279128466
 H   -0.7090973058   -1.6115658494    0.9605922280
 H   -1.2102408142    0.2750478444    2.5261192247
 H   -1.9274744962    1.9461089973    1.0195392503
 H   -3.2611249044    1.1011845842    0.6115754374
 H   -1.2749381519    1.2093178520   -1.5247290749
 H    0.3480042680    1.9910400507   -1.2236445446
 H    1.3480501370   -0.1040314046   -1.5442706141