19

 C   -0.1917986813    1.5470773518    0.2233210118
 C    0.1674090599    0.0894315357   -0.0881371524
 C    0.8294715784   -0.5914920931    1.0924590392
 C    0.1010057800   -1.2811244109    2.2037698596
 N   -1.1027426747   -1.9534356454    1.6545894894
 C   -0.2121374663   -2.9030723247    0.9111820520
 C   -0.5373621560   -3.1129087316   -0.5042534672
 N   -0.7772435360   -3.3076501100   -1.6179632154
 C    1.0308415572   -2.0807531708    1.2944217342
 H    0.6962119112    2.1302010377    0.4930069016
 H   -0.6565060456    2.0294404134   -0.6416578548
 H   -0.8963680330    1.6067972828    1.0593651000
 H   -0.7376928595   -0.4541699148   -0.3690058676
 H    0.8417736005    0.0465793746   -0.9517113830
 H    1.7025931977   -0.0584251282    1.4695331412
 H    0.1778046985   -1.0281162532    3.2542653143
 H   -1.6241366200   -2.4476992239    2.3699551370
 H   -0.1675810446   -3.8857117950    1.3928241311
 H    2.0028631236   -2.5230104743    1.4680248590