17

 C   -0.2459691861    1.4905513420   -0.1022025145
 C    0.0253177763   -0.0141920131    0.0268156251
 C    0.8734391176   -0.3172262710    1.2677686517
 O   -1.1956386799   -0.7383008414    0.2035517121
 C    0.7128229358   -0.5373081622   -1.2116900503
 C    0.4389507290   -1.6287942530   -1.9725698047
 O    1.3255915087   -1.7034731678   -2.9641066988
 N    2.2011608134   -0.5889067888   -2.7995690675
 N    1.8185836641    0.0532954639   -1.7878913675
 H    0.6859351627    2.0433501704   -0.2438902490
 H   -0.8868109133    1.6967960040   -0.9672772533
 H   -0.7456009296    1.8538836918    0.7999072279
 H    0.3811572170    0.0795247535    2.1597167196
 H    0.9917632349   -1.3973605579    1.3854123449
 H    1.8636370786    0.1356228398    1.1735244606
 H   -1.8378987706   -0.3905301195   -0.4250824831
 H   -0.3146363985   -2.3950957108   -1.9150049934