15

 C    0.6727711590    1.3354752306   -0.0903849282
 O    0.7521626316   -0.0705455321   -0.1612578901
 C   -0.1813914787   -0.6335742335   -1.0428250037
 C    0.0734960951   -2.1451066991   -1.1030680510
 N   -0.9648684227   -2.7837782403   -1.9124997358
 C    1.4456705456   -2.4268482334   -1.5784763960
 N    2.4861614558   -2.6917246871   -2.0072040298
 H    0.8584141560    1.8013957486   -1.0701179245
 H   -0.3118364226    1.6696643938    0.2715102568
 H    1.4404989980    1.6674197814    0.6115258842
 H   -1.2165226524   -0.4789077989   -0.7026463538
 H   -0.0902674259   -0.1989501656   -2.0530685798
 H   -0.0060149599   -2.5277700374   -0.0798026367
 H   -0.8405076848   -2.5366610252   -2.8906254985
 H   -0.8711758738   -3.7932587418   -1.8612138331