17

 O    0.0224103290    0.0704017329   -0.6688576995
 C   -0.0355901317    1.1518221737   -0.1635249877
 C   -1.2955957111    1.9778051286    0.1374445525
 C   -0.7859861415    3.2370392684    0.8314226050
 C   -0.7380981943    3.3212049641    2.3694854102
 C   -0.0850254140    2.1111966668    2.9666663958
 C    0.7948902580    3.1632625407    2.3556587796
 C    0.7644176721    3.0849025244    0.8281018282
 O    1.0857526244    1.8295735654    0.2284316221
 H   -1.8000211056    2.1813561497   -0.8111725961
 H   -1.9756644639    1.3715467324    0.7411802003
 H   -1.1342545973    4.1607402194    0.3700181277
 H   -1.3378916334    4.0003390183    2.9620897866
 H   -0.0687378247    2.0902186280    4.0512974375
 H   -0.1785437223    1.1266950772    2.5179051843
 H    1.5467165324    3.6882352800    2.9307685556
 H    1.3340381639    3.8660060500    0.3231760676