16

 O   -0.1892732945    1.4881397505    0.1974243405
 C   -0.0193509795    0.1060519068    0.0542314818
 C    0.3982699359   -0.7563268978    1.2948945908
 C   -0.8140714541   -1.6981475075    1.0166658071
 O   -0.5673577683   -3.0361613792    0.7193249753
 C   -2.0820602390   -1.3014994899    1.7929538669
 O   -2.3583720204   -0.2455754517    0.8423676368
 C   -1.3294936472   -0.6950693173   -0.0589511325
 H    0.6801497549    1.8999130530    0.2200762145
 H    0.6221737042   -0.1443167636   -0.8046429297
 H    1.3729228642   -1.2423374205    1.2043238838
 H    0.3386008173   -0.2189775457    2.2445675676
 H   -0.0437287227   -3.4163407070    1.4330064941
 H   -2.8561939684   -2.0801311699    1.7688859937
 H   -1.9633832228   -0.9227762669    2.8155778748
 H   -1.7161056795   -0.9554562133   -1.0472701955