17

 O    0.6040838335    1.1106885077    0.6397868673
 C    0.0496456394   -0.0609962671    0.0979329837
 C   -0.8891498204   -0.8631773051    0.9862113180
 C   -1.4404939027    0.0129057772   -0.1104037187
 C    0.8796044237   -0.7580044300   -0.8510769702
 C    1.6115935088   -1.3306264020   -1.6171080869
 C    2.4909694937   -2.0205851684   -2.5620683266
 C    3.2448225831   -3.1288645037   -1.9710115308
 C    3.8680083239   -4.0390295071   -1.4971863964
 H    1.4152576068    0.8617509410    1.0974031522
 H   -0.9183993083   -1.9389575702    0.8598828347
 H   -0.9845004331   -0.5069808865    2.0056087631
 H   -1.8997054107    0.9510901017    0.1786363567
 H   -1.8527405122   -0.4551749461   -0.9957728779
 H    1.8964104440   -2.3967369393   -3.4063154120
 H    3.1932972121   -1.2973961488   -2.9994744378
 H    4.4169120884   -4.8435425432   -1.0742647384