22

 C    0.0514417483    1.5122940775   -0.1751539458
 C    0.0285431333   -0.0023713786    0.0549713042
 C   -1.3786771355   -0.5833841535    0.0684388714
 C   -2.2124329742   -0.5684237465   -1.2525239944
 C   -2.6775196378   -1.9825346406   -0.8949306108
 C   -4.0833790296   -2.4185753510   -0.7378308039
 N   -3.1993698243   -3.0373406066   -1.7459370885
 C   -1.5406766390   -2.1450439871    0.1159869773
 O   -0.4736147927   -2.8576722355   -0.4802575630
 H    1.0761083911    1.8966194966   -0.1871374773
 H   -0.4125935652    1.7737246300   -1.1321947863
 H   -0.4949181232    2.0425673846    0.6127228203
 H    0.6107223506   -0.5055541833   -0.7256470763
 H    0.5248345633   -0.2304640604    1.0092506785
 H   -1.9643160631   -0.1379587348    0.8809460816
 H   -2.9768714551    0.2043759319   -1.3668861699
 H   -1.5628742004   -0.5630213844   -2.1348632574
 H   -4.3695326377   -3.0769693775    0.0788018778
 H   -4.8646725088   -1.7364300891   -1.0658762659
 H   -3.4029221050   -2.6694662071   -2.6725006489
 H   -1.8073434742   -2.5760327012    1.0908186252
 H    0.2721458792   -2.8351621634    0.1281536720