17

 N    0.0703899060    1.3477381793    0.1913101673
 C    0.0265392369   -0.0253494928    0.0492156101
 C   -1.1702618944   -0.6547905685    0.0294092411
 C   -1.5670973610   -2.0558802749   -0.0332049884
 O   -2.7510724741   -2.3672776196   -0.0686034044
 N   -0.6320373046   -3.0853049032   -0.0524233050
 C    0.7501859235   -3.0927281422   -0.0009623654
 C    1.6264617744   -2.0868195253    0.0155358449
 C    1.4185748715   -0.6052393938   -0.0312514095
 H    0.8896418771    1.8221092110   -0.1549077202
 H   -0.7891278633    1.8527410469    0.0388649457
 H   -2.0560036571   -0.0264122552    0.0698963008
 H   -1.0942372354   -3.9815646224   -0.0821325645
 H    1.1421628911   -4.1046458461    0.0288125574
 H    2.6703044682   -2.3811681308    0.0603464939
 H    1.8775021221   -0.2039332945   -0.9523824804
 H    1.9976366391   -0.1389703177    0.7808896766