18

 N   -0.0545695892    1.4345990527    0.0804936795
 C    0.0023766002   -0.0301865603    0.0196525152
 C    0.6543576352   -0.6209318844    1.3022599730
 C   -0.1034891699   -1.9447439179    1.5359897101
 N   -1.4425222181   -1.8217748028    0.9281449626
 C   -2.1534677442   -0.5893543415    1.2963314974
 C   -1.3967859106   -0.6631917240    0.0229663230
 C    0.7289026460   -0.5010594370   -1.1837921115
 N    1.3054921125   -0.8229273273   -2.1335186808
 H    0.8875953803    1.8161976910    0.0464634726
 H   -0.5334561120    1.7963144311   -0.7403501560
 H    1.7307186946   -0.7667097133    1.1934452146
 H    0.4932375521    0.0976584336    2.1088657682
 H    0.4028788630   -2.7742050751    1.0322714345
 H   -0.1895261447   -2.2002111363    2.5960756252
 H   -3.2356442394   -0.6725566390    1.2750850957
 H   -1.7634297661    0.0413501564    2.0899270348
 H   -1.9064430799   -0.7569336959   -0.9313187581