21

 C    0.1043645913    1.5691788684    0.0277020017
 C   -0.0375031672    0.0572368863    0.0202903760
 O    0.5306921050   -0.3903654759   -1.2011051586
 C    0.9987527117   -1.7232581444   -1.2523406715
 C   -0.0848563779   -2.7964616687   -1.1599058409
 O   -0.8668467235   -2.7650936342    0.0237222937
 C   -0.1514421581   -2.8215424896    1.2459872002
 C   -0.0724027484   -1.4428995553    1.9010205616
 O    0.6367033232   -0.4748518529    1.1447898400
 H    1.1639350980    1.8340943795    0.0706554409
 H   -0.3296903186    1.9918454640   -0.8817288084
 H   -0.4050430109    1.9912249722    0.8979518391
 H   -1.0930039243   -0.2447176522    0.0650060886
 H    1.4889372621   -1.8250384043   -2.2269851689
 H    1.7622634693   -1.8842149738   -0.4819098422
 H   -0.8030231561   -2.6727114594   -1.9763859983
 H    0.4007833657   -3.7811780357   -1.2776590589
 H   -0.6978206721   -3.4942227686    1.9210424446
 H    0.8536746347   -3.2408848456    1.1039418141
 H   -1.0945621629   -1.0907677627    2.1035091697
 H    0.4507774291   -1.5254009071    2.8603879277