16

 C    0.0087539446    1.2350167198    0.7928395583
 N    0.0471638391   -0.1386742727    0.3335134213
 C    0.4296214808   -0.5923841384   -0.8977065356
 N    0.3771037777   -1.9004689643   -0.9928362817
 C   -0.0555547609   -2.3396729229    0.2362949972
 C   -0.2537531734   -1.2686637240    1.0605051897
 O   -0.7756798752   -1.2102939014    2.3287863915
 C    0.0552707514   -0.9415540926    3.3704833698
 N    1.2611720123   -0.6049452386    3.2335754934
 H    0.1644596032    1.8926670898   -0.0640587223
 H   -0.9653966175    1.4619585536    1.2353074698
 H    0.7891806374    1.4100416694    1.5374318597
 H    0.7327431259    0.0908783265   -1.6777856662
 H   -0.2029457449   -3.3842432879    0.4602502885
 H   -0.5127608214   -1.0585134866    4.2964680950
 H    1.6958926010   -0.4574286496    4.1418654916