25

 C   -0.2270046470    1.5878178564   -0.0500603569
 C    0.0070151270    0.0680403834    0.0064541682
 C    0.7428637837   -0.4479757382   -1.2494170210
 C    2.2276186467   -0.0533265076   -1.2811477518
 C    2.9522697210   -0.5156271434   -0.0095649619
 C    2.2453850041   -0.0081278771    1.2543627399
 C    0.7601254627   -0.4111562517    1.2725752674
 C    0.0742895478    0.0134871119    2.5694727625
 O    0.6600076862   -0.7238001348    3.6365727112
 H    0.7064690836    2.1581336932   -0.0296322063
 H   -0.7530504865    1.8557070456   -0.9727807881
 H   -0.8417418967    1.9338487087    0.7865284018
 H   -0.9853706113   -0.4038427589    0.0215041209
 H    0.6709992929   -1.5439484015   -1.2706584830
 H    0.2333311040   -0.0865338814   -2.1509181001
 H    2.7054417543   -0.4824048486   -2.1694252373
 H    2.3228482476    1.0359086634   -1.3798574703
 H    2.9786649307   -1.6142658397    0.0105993075
 H    3.9960257670   -0.1812830790   -0.0220231118
 H    2.7294502450   -0.3997048441    2.1535855725
 H    2.3315727364    1.0863922068    1.3078964927
 H    0.7221939164   -1.5106928681    1.2646390884
 H    0.1980987784    1.0956349869    2.7308322501
 H   -1.0080576149   -0.1875981135    2.5009954918
 H    0.3128433610   -0.3810930685    4.4648513736