15

 O    0.0782477676    1.4231354218   -0.0650152363
 C    0.0380625471    0.0152575600   -0.0071778414
 C    0.8055734124   -0.5469528823    1.1880417917
 O    0.1225829169   -0.3887174395    2.4484970252
 C   -1.1372920455   -0.8627475737    2.5739567552
 O   -1.5889778656   -1.1432500231    3.6484960274
 C   -1.9646349080   -0.9304796421    1.3126842790
 O   -2.2752929758    0.3655116705    0.7674540277
 C   -1.4076236208   -0.4869713433    0.0216916113
 H   -0.6283457036    1.7417653692    0.5123338477
 H    0.5324595265   -0.3519140879   -0.9137997895
 H    1.0180695607   -1.6130078169    1.0343245918
 H    1.7489169755   -0.0121159580    1.3073684023
 H   -2.8049437659   -1.6166859689    1.3672581038
 H   -1.8399648316   -0.8701031358   -0.9001899459