17

 C    0.0700846349    1.4216332244   -0.0519188233
 N   -0.0828513951   -0.0115190813   -0.1429969211
 C   -1.2907335850   -0.6152591322   -0.0678419247
 N   -2.3907737130    0.0332726182    0.0657272373
 C   -1.1789516215   -2.1316356735   -0.1604093352
 O   -0.0971490868   -2.6766616546   -0.2681627634
 C   -2.4181382167   -2.8697589311   -0.1102476778
 C   -3.4262518602   -3.5337878057   -0.0753957640
 C   -4.6376138443   -4.3327666672   -0.0337564811
 H    1.1233043423    1.6767634902   -0.1834803305
 H   -0.5209973783    1.9251653031   -0.8247003473
 H   -0.2720188615    1.7998845359    0.9190189254
 H    0.7146240959   -0.6213089050   -0.2158782370
 H   -3.1729192950   -0.6197616205    0.0909249997
 H   -4.4104666494   -5.4017604368   -0.0946527059
 H   -5.1890422080   -4.1523963380    0.8952985966
 H   -5.2995070681   -4.0757525661   -0.8678177578