16

 C    0.1289228994    1.6383373410    0.0254814028
 C    0.0952781476    0.1164610856   -0.0163784024
 C    0.7726226900   -0.6758860603   -1.1842679931
 N    1.8962689581    0.0124045348   -1.8330019115
 C    2.9548625518   -0.5178914934   -1.3762226794
 O    2.8780784022   -1.5257730034   -0.4640489143
 C    1.4777018611   -1.6322898071   -0.1665880644
 C    0.9992317637   -0.6641620431    0.9607978736
 O    1.2983706800   -0.5225845491    2.1074559036
 H    1.1327796338    2.0111561045   -0.1906644163
 H   -0.5556863443    2.0664706575   -0.7119653123
 H   -0.1675196842    1.9898891052    1.0178318368
 H   -0.9339535887   -0.2472593132    0.1132932516
 H    0.0914321013   -1.0844115218   -1.9323688719
 H    3.9672559353   -0.2530005912   -1.6591782873
 H    1.1997747727   -2.6827484462   -0.0758847155