19

 C    0.0824363143    1.4448554918   -0.0083386547
 O   -0.0453620482    0.0341567873   -0.0536672232
 C    0.6563469029   -0.5667700609   -1.0864270083
 O    2.0806670100   -0.4649133203   -0.8596804524
 C    2.4662857070   -1.7140770123   -0.4560458905
 N    3.7784525433   -1.7862890801   -0.0735157643
 N    1.6316897535   -2.6721363779   -0.5264099318
 C    0.4115549901   -2.1023023251   -1.1143420515
 C   -0.8498735005   -2.5646634877   -0.3913879902
 H    1.1152772448    1.7481129242    0.1992595968
 H   -0.2360007889    1.9029771195   -0.9565837733
 H   -0.5673776405    1.7981457732    0.7947395652
 H    0.4610415416   -0.0524792680   -2.0366784281
 H    4.1522763814   -0.9445035602    0.3373522718
 H    4.0092422411   -2.6346837241    0.4202321642
 H    0.3487389344   -2.4164294746   -2.1661847835
 H   -0.8257289387   -2.2659752598    0.6580283670
 H   -1.7472163496   -2.1397148686   -0.8511953634
 H   -0.9131112081   -3.6544621363   -0.4443087397