14

 O    0.0540190350    1.3217786353    0.1853670979
 C    0.0506499592   -0.0142181110    0.0255313492
 C    0.0690898290   -0.8338865219   -1.1075270926
 C    0.0982756292   -0.4985050711   -2.4911741148
 O    0.1118425608   -1.3347710934   -3.3924517052
 C    0.0524949106   -2.1960313485   -0.6101830742
 O    0.0630532751   -3.2784997379   -1.4070941927
 C    0.0256207282   -2.1555456131    0.7520388370
 N    0.0251744304   -0.7928085185    1.1170996523
 H    0.0731119240    1.7462312891   -0.6787307887
 H    0.1087421568    0.5844113744   -2.7527942342
 H    0.0829611446   -2.9333495006   -2.3214876620
 H    0.0071248469   -2.9304451949    1.4968077430
 H    0.0078946701   -0.4387523277    2.0581499449