16

 C   -0.0146312822   -1.2867993008   -0.0496043888
 C   -0.0176219101   -0.0841290349   -0.0265761469
 C   -0.0029991357    1.3631158865    0.0224882955
 C   -0.2280520050    2.1054476788    1.3783855384
 C    0.9627621911    1.7479620990    2.2864304205
 C    2.0884291702    1.7695432792    1.3135977892
 C    1.3545688948    2.1357983151    0.0106450959
 C    0.7256105337    3.2491699761    0.9074168513
 N    1.7203536744    3.0270803651    2.0535060477
 H   -0.0157269458   -2.3483470821   -0.0745903877
 H   -0.6685398656    1.7887054478   -0.7381647849
 H   -1.2167089906    2.2440876167    1.8088842205
 H    0.9756209167    1.2372901142    3.2405905347
 H    3.0416679124    1.2768985863    1.4550538361
 H    1.9204028676    2.3042435301   -0.9022900335
 H    0.4411328640    4.2526304129    0.6005133820