15

 O    0.1789326901    0.2220417884    0.6496686982
 C    0.1306537160    1.3413763167    0.2139802037
 N    1.1399496164    1.9256244498   -0.5552343272
 C    2.5480063519    1.8118533958   -0.2422371609
 C    1.8396723714    3.1305518686   -0.2191836203
 C    1.9973000932    4.4089840780   -1.0667336530
 N    1.7977467365    5.1429587672    0.1919138633
 C    1.6141501169    4.0416808040    0.9970181689
 O    1.3695074383    3.8875141712    2.1616215446
 H   -0.7483818015    2.0043625008    0.3084661117
 H    2.8067087897    1.3666173153    0.7153413094
 H    3.2045109630    1.5720328284   -1.0738396602
 H    2.9808726478    4.5535347427   -1.5235708296
 H    1.2082502160    4.5615466406   -1.8087590382
 H    1.8150825442    6.1281571625    0.4041464096