21

 O    0.0681478979    1.3933771557    0.1108362814
 C    0.0426475349   -0.0262585542    0.0623026979
 C   -1.4151829213   -0.4777731766   -0.0239487869
 C   -1.4971981503   -2.0014395048   -0.2513731693
 C   -2.9140298075   -2.5557071462   -0.1028550476
 C   -3.3101172963   -3.2851485989    1.1597182807
 C   -3.8252566380   -1.8834734784    0.8954971182
 C   -3.2766934165   -0.7148587144    1.6271062782
 C   -2.1916297343   -0.0638459795    1.2063842723
 H    0.9750945349    1.6740573151    0.2619673042
 H    0.5965556330   -0.4026637769   -0.8130251160
 H    0.5082344414   -0.4632610905    0.9610623815
 H   -1.8451584816    0.0372583608   -0.8964583067
 H   -1.1052783492   -2.2477247907   -1.2445634569
 H   -0.8315313315   -2.4917145368    0.4704599965
 H   -3.3762993558   -2.9026998547   -1.0213206016
 H   -4.0114979712   -4.1097647820    1.0862273684
 H   -2.5508988107   -3.4040309532    1.9264434327
 H   -4.8800415783   -1.8160105931    0.6398105853
 H   -3.8046795514   -0.3837197887    2.5187598132
 H   -1.8263140081    0.8101846281    1.7369650947