15

 N   -0.1066358844    1.2354046166   -0.5055842664
 C   -0.0375699953    0.0590826944   -0.0824146215
 O    1.0262778082   -0.6570596173    0.4310167591
 C    0.1933311464   -1.8474017494    0.6170395317
 C   -0.1492626735   -2.0978711366    2.0780373693
 O   -1.1241584858   -1.1204175593    2.4133213295
 C   -1.9646930532   -0.9614987072    1.2758368910
 C   -1.0325481424   -1.0755414488    0.0628205049
 H    0.7926312847    1.7142733018   -0.4336028582
 H    0.6011187306   -2.6996937056    0.0731688002
 H   -0.5521981710   -3.1193587506    2.1857464187
 H    0.7043151350   -1.9777668909    2.7491655533
 H   -2.7301610108   -1.7531474423    1.2372067063
 H   -2.4587819089    0.0090340153    1.3536518223
 H   -1.5129223794   -1.4134469100   -0.8539717702