19

 C   -0.0579356097    1.5019819086    0.0307381956
 C    0.0222583227   -0.0073581110    0.0243020009
 C   -1.2659796307   -0.7850574777   -0.3057442645
 C   -1.3109996922   -1.9886476015    0.6258058061
 O   -0.2774904757   -2.9696841095    0.4097209889
 C   -0.1039965855   -1.9877483543    1.4681329798
 C    0.7576485347   -0.8022717257    1.1251668468
 C    1.3351348236   -0.6834613890   -0.2800778129
 O    1.5068963044   -1.7401760635   -1.1601620264
 H    0.9030928632    1.9462906564    0.3089942626
 H   -0.3236851735    1.8888042673   -0.9603068634
 H   -0.8100687909    1.8636227365    0.7426698389
 H   -2.1398613634   -0.1529081188   -0.1142268881
 H   -1.3080961740   -1.0916019323   -1.3574698706
 H   -2.2633501959   -2.4138613969    0.9318396333
 H   -0.0701320148   -2.4160707930    2.4650390444
 H    1.2659795455   -0.3095940565    1.9473087045
 H    2.1769934510    0.0014472323   -0.3586594354
 H    0.9290646414   -2.4564995215   -0.8535119905