11

 C    0.1038420932    1.5454524610    0.0681063432
 C   -0.0346791627    0.0689901345    0.0714580867
 C   -1.0746990375   -0.7815227312   -0.1558811105
 O   -2.3501664639   -0.4862647775   -0.4676116991
 N   -0.6154292153   -2.0595448603   -0.0146874725
 N    0.6191900848   -2.0458127197    0.2795918784
 O    1.0318020849   -0.7048699782    0.3451994266
 H    0.8402860866    1.8730858917   -0.6729908600
 H   -0.8590710731    1.9996587625   -0.1738647042
 H    0.4281551152    1.9158365690    1.0461800105
 H   -2.8279063422   -1.3192013319   -0.5613832493