19

 C    0.0412443997    1.5801114029   -0.0404251945
 C    0.0715627935    0.0503601898    0.0094446599
 C    0.7048003643   -0.6076691856   -1.2019563724
 O    2.1413250335   -0.5733018871   -1.1847809392
 C    1.4723869209   -1.7846147420   -0.7909039754
 C    1.3727767562   -1.9490332258    0.7114661147
 C    0.8584650503   -0.5764097434    1.2210684826
 C    2.0018590080    0.3117721608    1.6882193358
 O    1.9013194027    1.1037816203    2.5913373990
 H    1.0371661273    1.9885318855   -0.2350092155
 H   -0.6257726846    1.9246279750   -0.8368911549
 H   -0.3107814962    1.9988117862    0.9063318451
 H   -0.9613581480   -0.3191832412    0.0703604308
 H    0.2495363741   -0.5085929701   -2.1846775655
 H    1.6412005352   -2.6400700898   -1.4396044725
 H    0.6562453016   -2.7448742704    0.9435011210
 H    2.3287470389   -2.2326418411    1.1660358593
 H    0.1876203810   -0.6762526411    2.0776116081
 H    2.9552679014    0.1853321970    1.1334566936