15

 O   -0.7359096894    1.3101415065    0.0487561317
 C   -0.3147171327   -0.0055094509    0.0412315453
 C   -0.3096956176   -0.7396880831    1.3696105843
 C   -1.3256482589   -1.1065076691    0.3372872631
 O   -2.6653818481   -0.7769249220    0.6347743974
 C   -3.4269085605   -0.2034963822   -0.3117595962
 N   -2.9770641592    0.3155824286   -1.3750265815
 C    0.7194252167   -0.3349335328   -0.9218800400
 N    1.5369552146   -0.6050249462   -1.6940047028
 H   -1.3946867021    1.3689525202   -0.6668112336
 H    0.4927000153   -1.4336281383    1.5869139152
 H   -0.6675524743   -0.1436956991    2.2009880443
 H   -1.2356575436   -2.0410698444   -0.2074202188
 H   -4.4726844708   -0.2489461021    0.0025848506
 H   -3.7312356493    0.6918612150   -1.9437657389