15

 O    0.0919979587    1.4202494802    0.2274936783
 C    0.0710406678    0.0104240859    0.0611089620
 C   -1.4013976876   -0.5642451501   -0.1102265931
 N   -1.4024268220   -1.4425612474   -1.3155241897
 C   -0.1795230264   -1.2398786992   -1.8961905036
 C    0.7221188908   -0.5090569846   -1.1836243339
 C    1.8780008114   -0.5833312749   -1.9941044315
 N    1.6799324495   -1.2739400379   -3.0975600919
 O    0.3081633927   -1.7179496078   -3.0256892257
 H   -0.0506038400    1.8134227281   -0.6412551697
 H    0.5140945281   -0.3745596443    0.9846143686
 H   -1.7181577845   -1.1377076378    0.7640575581
 H   -2.0857676082    0.2818533059   -0.2335968347
 H   -2.2228757754   -1.4328102304   -1.9058258464
 H    2.8595931452   -0.1536149454   -1.8451503369