17

 N   -0.3635211667    1.1467041602    0.1053689841
 C   -0.5653973656   -0.0616281317    0.4031609413
 O   -0.5275134888   -0.9954777961   -0.5804596465
 C   -0.7471477880   -2.3471237382   -0.2078917781
 C   -2.2329728006   -2.6942999527   -0.0985036905
 C   -2.6103323552   -4.1837516824    0.0656903575
 O   -3.2702648790   -3.8840892264    1.3347809646
 C   -2.9064269548   -2.5573927496    1.2580749097
 N   -3.0663495109   -1.6193477687    2.0744472061
 H   -0.4241697233    1.7196448224    0.9447673999
 H   -0.7878516376   -0.4704290274    1.3940531626
 H   -0.2972569757   -2.9418363467   -1.0085494128
 H   -0.2229434590   -2.5883855495    0.7262124887
 H   -2.7779285443   -2.1883117603   -0.8988097159
 H   -3.3148630735   -4.5944558720   -0.6600321055
 H   -1.7748346664   -4.8733306143    0.2179431722
 H   -3.5590215305   -1.9289401866    2.9137787227