15

 O    0.2229771531    1.4237924650   -0.2043432119
 C    0.0362550528    0.0281617398   -0.0398777564
 C    0.6039883909   -0.5452572948    1.2714410116
 C   -0.3045213619   -1.3059804537    1.9126569178
 C   -1.5184098691   -1.2580396873    1.1103767341
 C   -1.3881038045   -0.4812048463    0.0001135193
 C   -2.6449059870   -0.5428520786   -0.6704832811
 C   -3.4290385228   -1.3512177098    0.1054055033
 O   -2.7449861799   -1.8058244601    1.2090599461
 H   -0.2685537932    1.8603932135    0.5003105427
 H    0.5785523366   -0.4298106678   -0.8786543293
 H    1.6171683589   -0.3377724019    1.5888889237
 H   -0.1732643409   -1.8456594445    2.8406235500
 H   -2.9503580104   -0.0613571542   -1.5865564933
 H   -4.4494361626   -1.6873647192    0.0277799934