16

 C    0.0277273195    1.3891587345    0.0319802119
 N    0.2609344524   -0.0396007465    0.0240368162
 C   -0.1841647510   -0.7615397767    1.2068447061
 C    0.1104574184   -0.6632207975   -1.1990725041
 C   -0.0784875879   -0.1274616352   -2.4412927626
 O   -0.0835167777   -1.1715896961   -3.3453370199
 C    0.0790413652   -2.2661676483   -2.5894887552
 N    0.1990759939   -2.0470094403   -1.3203169355
 H    0.6438629440    1.8701310945   -0.7348271121
 H   -1.0268706484    1.6567598685   -0.1556245697
 H    0.3172167387    1.7970092098    1.0039174162
 H   -1.2764442991   -0.7096557037    1.3506629248
 H    0.1023069242   -1.8088303815    1.1169081862
 H    0.2989474534   -0.3335164275    2.0904176268
 H   -0.2068928305    0.8584374932   -2.8460787774
 H    0.0949548547   -3.2169835775   -3.0992156515