17

 C   -0.0037765123    1.4769284695    0.3777860510
 C    0.0055540401    0.0121847716   -0.0129825899
 O   -1.3592298573   -0.4581661765    0.0252201495
 C   -1.5460034310   -1.7435875339   -0.3086057372
 O   -0.6590321916   -2.5061871917   -0.6199631444
 C   -2.9867788380   -2.1229386919   -0.2437579359
 C   -3.5039045516   -2.9493848339   -1.3784362475
 N   -3.2870170587   -3.5520880860   -0.0689545561
 H    1.0168355287    1.8704331133    0.3619449886
 H   -0.6102611425    2.0631423546   -0.3181722422
 H   -0.4090964080    1.6101980063    1.3846503524
 H    0.4036467162   -0.1434760047   -1.0203890362
 H    0.6046852777   -0.5938378870    0.6735902042
 H   -3.6430851843   -1.4280788331    0.2673919092
 H   -4.5424268442   -2.8343983230   -1.6743176431
 H   -2.8059751193   -3.1767485483   -2.1789181133
 H   -2.3955367339   -4.0478435253   -0.0839048591