16

 C    0.0010302432    1.5811272976   -0.0042659586
 C    0.0208097289    0.0733381269   -0.0237677173
 C    0.7129566234   -0.7830875646   -1.1395868577
 C   -0.1590495401   -1.9559380435   -0.5952262333
 C    0.2964866170   -2.0131438529    0.8523517192
 C    0.4126344326   -0.7222895351    1.2150962634
 C   -1.2449022768   -0.8185590165   -0.3907395275
 O   -2.4137742198   -0.6701171521   -0.5203318692
 H    1.0086870463    1.9888145209    0.1301533132
 H   -0.4045421978    1.9823574692   -0.9379168748
 H   -0.6227568111    1.9532082843    0.8148749465
 H    0.4455715298   -0.4698286646   -2.1546217400
 H    1.7929286539   -0.9111694749   -1.0272820448
 H   -0.3441214929   -2.8731761134   -1.1482301850
 H    0.3674052089   -2.9043343779    1.4593589223
 H    0.6020469245   -0.2985485834    2.1918885637