21

 O    0.6600190251    0.6374780801    0.9037956311
 C    0.1724319652   -0.3216903872   -0.0485205774
 C   -1.3389492172   -0.3894861877    0.1941889926
 C   -2.0551808386   -1.6378549081   -0.3405052830
 C   -2.3005148617   -1.8176933137   -1.8163811885
 C   -2.0699251146   -1.0077751481   -2.8485450326
 C   -1.4288915616    0.3676440473   -2.8286104573
 C    0.0636700934    0.3373521668   -2.5564655288
 C    0.6900140356    0.0331431321   -1.4212913694
 H    1.5499631149    0.8932133270    0.6414070412
 H    0.5893487178   -1.3136672292    0.2070233871
 H   -1.4447621206   -0.3971290459    1.2844488262
 H   -1.8195069960    0.5326035301   -0.1387591957
 H   -1.5174149606   -2.5283983603    0.0194790554
 H   -3.0346544095   -1.6976786329    0.1569966817
 H   -2.7599844624   -2.7787049771   -2.0476934952
 H   -2.3436531861   -1.3738320903   -3.8354855518
 H   -1.5892277209    0.8378783164   -3.8027239466
 H   -1.9313404347    1.0148468470   -2.1053571564
 H    0.6924661400    0.5629057236   -3.4155357376
 H    1.7820495227    0.0406078201   -1.4535815251