17

 C   -0.0257966308    1.5601002644   -0.0419548237
 C    0.0732621187    0.0743186140   -0.0044370647
 C    0.1010171607   -0.8705763893   -1.0127319251
 N    0.2135006568   -2.1735033066   -0.5360653060
 C    0.1502001454   -2.0054794864    0.7584737933
 C    0.7178080538   -2.4357989387    2.0933902998
 C    1.9804392947   -1.6069741600    2.3109337310
 C    0.6304773939   -0.9586146424    2.4674884967
 N    0.0143905558   -0.6952036822    1.1480313947
 H    0.8116637733    2.0417086754    0.4776028963
 H   -0.0173786664    1.9088189983   -1.0776140392
 H   -0.9491569703    1.9194720141    0.4273518619
 H    0.0130781393   -0.6784973440   -2.0732735980
 H    0.4648993635   -3.2980906629    2.6931614678
 H    2.5224923314   -1.7983008976    3.2340449325
 H    2.6045301458   -1.3494277779    1.4613096288
 H    0.2557057044   -0.4911556582    3.3676718838