21

 C    0.1362914677    1.2923069512    0.0740971149
 O   -0.2294307285   -0.0160196412   -0.3032951914
 C    0.5946700764   -0.5871476605   -1.2977395287
 C    1.9029582916   -1.2205111456   -0.7336703576
 C    1.1576679465   -2.5585676173   -0.6401638270
 C    1.6739151058   -3.9566809107   -0.5129938590
 C    0.8775389586   -3.3330750858    0.6120156569
 C    0.0493559408   -2.0238357827   -1.5684390929
 O   -1.2925529702   -2.2651756167   -1.2649567489
 H    1.1453459298    1.3290476101    0.5088516047
 H    0.1033389005    1.9801942535   -0.7842796284
 H   -0.5829823080    1.6263687615    0.8255930969
 H    0.6911673509    0.0963580470   -2.1523540407
 H    2.7141351311   -1.2212030147   -1.4689678849
 H    2.2732223261   -0.7911159424    0.2011675270
 H    1.1978194070   -4.7310612177   -1.1070357564
 H    2.7402056514   -4.0992243642   -0.3658414262
 H    1.4024945890   -3.0537363060    1.5200576099
 H   -0.1427350221   -3.6721558679    0.7598038330
 H    0.2125407285   -2.3259341783   -2.6087867905
 H   -1.5080653533   -1.6641276218   -0.5391669908