14

 C    0.0990082600    1.3517679966    0.1252752992
 O   -0.2049089230   -0.0228452222   -0.1225379934
 C    0.5537524111   -0.6388870681   -1.0231097224
 N    0.4131083477   -1.8855283273   -1.2213063142
 C    1.1354360377   -2.4517428482   -2.2480341316
 N    1.3507227809   -1.8645384021   -3.4082302917
 O    2.0780650896   -2.8257943750   -4.1252637513
 C    2.2023511317   -3.8754691230   -3.3112583245
 N    1.6503835373   -3.7314069957   -2.1524006248
 H    1.0511183293    1.4509789840    0.6571668929
 H    0.1354916931    1.9231469505   -0.8083287611
 H   -0.7075430610    1.7321097968    0.7516251779
 H    1.2761284846   -0.0073326575   -1.5553124679
 H    2.7394030910   -4.7314953688   -3.6936551872