18

 C    0.0769871220    1.5454872498    0.0117802178
 C    0.0628910709    0.0939893183    0.0190404127
 C    0.0526073030   -1.1168573204    0.0250602061
 C    0.0412648629   -2.4752898710    0.0298420366
 C    0.0294530923   -3.6881049999    0.0470125537
 C    0.0435873869   -5.1199159345    0.0023041444
 C   -0.4005353734   -5.9199275509    1.1963077532
 N   -1.2004573034   -5.9186415908   -0.0120780137
 C   -2.4719309447   -5.2068789965    0.0363324963
 H    1.1032440749    1.9300771847    0.0062599465
 H   -0.4323876612    1.9444709086   -0.8728244036
 H   -0.4249329146    1.9517398055    0.8973061894
 H    0.8234476300   -5.5433692622   -0.6274360101
 H    0.1109262938   -6.8485075809    1.4361000881
 H   -0.7581062283   -5.3507824123    2.0528527267
 H   -2.4570602746   -4.3102792664    0.6732505126
 H   -2.7525341260   -4.9037313789   -0.9765244283
 H   -3.2346612904   -5.8941667221    0.4147283915