18

 C    0.0579751262    1.6123258807   -0.1042287325
 C    0.0017142487    0.0861620828   -0.0647156756
 C   -1.4240135548   -0.4451615014    0.1488841445
 C   -2.0278841289   -0.0023916982    1.4718651586
 O   -3.1247977014    0.4844631415    1.5778764182
 C    0.8063873254   -0.6367309427   -1.1993014527
 N    1.7002109590   -1.1428205870   -0.1558764074
 C    1.0495450952   -0.5551065031    0.8961260794
 O    1.2321408622   -0.5576498727    2.0859407190
 H    1.0769986499    1.9667797710   -0.2864221846
 H   -0.5896420318    2.0057373004   -0.8951928021
 H   -0.2773290571    2.0376824831    0.8466240258
 H   -2.0921504257   -0.1278360113   -0.6586317115
 H   -1.4029041099   -1.5447091965    0.1593614679
 H   -1.3774254277   -0.1717608723    2.3554527500
 H    0.2559097565   -1.4161758025   -1.7357827524
 H    1.2883302813    0.0343787625   -1.9172603155
 H    2.5150711529   -1.7371959143   -0.1914602891