18

 C    0.0567410676    1.5563367522   -0.1161242835
 C    0.0228075432    0.1023172340   -0.0637465223
 C   -0.0132415859   -1.1005528569   -0.0256758361
 C   -0.0407385188   -2.5609054308    0.0257868232
 C    0.7351171433   -3.1309190307    1.2227641255
 C   -0.0141198261   -2.7835762596    2.5107128773
 N   -1.4398682493   -3.0902242818    2.4349563014
 C   -1.9623925138   -3.1939184390    1.2900414902
 O   -1.4075062495   -3.0381063720    0.0587345423
 H    0.9672843058    1.9484294458    0.3497005816
 H    0.0269388171    1.9186507872   -1.1493121538
 H   -0.7992590082    1.9876752846    0.4139114481
 H    0.3587028202   -2.9641553066   -0.9103067490
 H    0.7927049903   -4.2184348067    1.1039941380
 H    1.7547635358   -2.7359905012    1.2251747041
 H    0.4073402579   -3.3326630402    3.3592812885
 H    0.1021695865   -1.7169186553    2.7411036971
 H   -3.0134161961   -3.4552940531    1.1778612975