20

 C   -0.0194675481    1.5462828998    0.0085021305
 C   -0.0433919831    0.0415900622   -0.0040311123
 C    0.7912361645   -0.9624354991   -0.8768582832
 C    1.9460695321   -1.0508518202    0.1241144975
 C    0.6656452478   -0.9757096990    0.9597415074
 N   -0.0820561754   -1.9246995815   -0.0208902155
 C   -1.2037169298   -0.9268045744   -0.0903799076
 C   -2.5229164073   -1.0531966789    0.5848779250
 C   -2.4185907349   -1.0421625407   -0.9406785329
 H    1.0052132566    1.9267032977    0.0809393968
 H   -0.4636585410    1.9540792240   -0.9062850803
 H   -0.5838075998    1.9412752255    0.8605231660
 H    0.7941526705   -1.0488773829   -1.9649047252
 H    2.4843850367   -2.0016596287    0.1540507106
 H    2.6277933015   -0.1985118348    0.1768930906
 H    0.5205110727   -1.0777972457    2.0367004262
 H   -2.7582112237   -1.9996528514    1.0608615285
 H   -2.9500612345   -0.1830746075    1.0737733063
 H   -2.7760658465   -0.1646732859   -1.4705920325
 H   -2.5859668982   -1.9814361687   -1.4578380162