15

 C    0.0925201035    1.4355704059    0.0892046833
 N   -0.2027696782    0.0338188436   -0.1561670379
 C    0.5113980029   -0.6571624509   -1.1098327843
 C    0.6934428433   -2.0184962079   -1.2168720874
 O    1.4169835273   -2.2888181629   -2.3446264575
 N    1.7214137130   -1.1112501320   -2.9764013001
 C    1.1922288604   -0.1513638297   -2.2542818399
 C    0.2742531997   -3.0681009589   -0.3904181894
 C   -0.1040799987   -3.9369373006    0.3556895384
 H    1.1369375800    1.6211078597    0.3829224713
 H   -0.1209595980    2.0272270670   -0.8069192655
 H   -0.5622847080    1.7985025565    0.8840675072
 H   -0.3884711183   -0.5090788342    0.6746741504
 H    1.3124738683    0.8741582849   -2.5711381443
 H   -0.4363891973   -4.7132613904    0.9996763457