21

 C   -0.2216454843    1.5563029905   -0.1436386207
 C    0.1687659164    0.0833952852    0.0319820538
 C    0.7618139914   -0.5374863401   -1.2160475284
 C    1.9017476898   -1.4909558664   -1.1697003134
 N    2.1248106757   -0.1065431369   -1.6232976773
 C    2.1317807592    0.1080719030   -3.0894349604
 C    0.7307864287   -0.1764354846   -3.6198715598
 N    0.3146427197   -1.5859501471   -3.4747815437
 C   -0.1034010948   -0.5897621576   -2.4624418266
 H    0.6509067559    2.1450151895   -0.4420637012
 H   -0.9931193145    1.6867372944   -0.9100520846
 H   -0.6119190135    1.9725556974    0.7900345995
 H    0.9032406067   -0.0009960836    0.8396929051
 H   -0.7047270893   -0.5055997254    0.3426152099
 H    2.3669148223   -1.7237513713   -0.2142423938
 H    1.9144769882   -2.2888313107   -1.9047375154
 H    2.3866548718    1.1578688563   -3.2735808836
 H    2.8959119493   -0.5131638319   -3.5678899019
 H    0.3371735318    0.4084388494   -4.4463819896
 H   -0.4654531954   -1.7748602633   -4.1002769383
 H   -1.1541538052   -0.3331668569   -2.3825762395