13

 O   -0.0097233483    0.0182706100    0.0908902075
 C   -0.0478425232    1.2097498613    0.0265073541
 C   -1.2241234822    2.1367116387   -0.0076899485
 C   -0.8035155273    3.4279910267    0.6673946028
 C   -0.8242073712    3.3460816821   -0.8307891527
 C    0.7414040771    3.2714366896   -0.8352292238
 C    0.7617135316    3.3514939377    0.6371369803
 N    1.1197091967    2.0771548359   -0.0369998693
 H   -2.2403616995    1.7727290191    0.0262899960
 H   -1.4253926132    3.9887558772    1.3487154014
 H   -1.4654556232    3.8301546097   -1.5518032260
 H    1.4228192869    3.6227572612   -1.5978885615
 H    1.4633129956    3.7823861408    1.3382052498