19

 C   -0.0034367505    1.5328877545    0.0094913528
 C    0.0415393402    0.0184880383    0.0153104501
 C    0.6503442911   -0.6672987805   -1.2566965815
 C    0.1250485084   -2.1380833944   -1.1975641457
 C   -0.7378457868   -2.1693532126    0.1062450679
 C    0.1805383842   -1.9359388614    1.2841005607
 C    0.6365381636   -0.6738088740    1.2261388178
 C   -1.3187835259   -0.7356900811    0.0340022484
 O   -2.4389558075   -0.3235167538    0.0022448737
 H    1.0038170133    1.9599632493   -0.0396394604
 H   -0.5685789358    1.9002592605   -0.8524136577
 H   -0.4908362841    1.9150371612    0.9115694610
 H    0.2962042461   -0.1564115913   -2.1580737072
 H    1.7412412532   -0.6107272388   -1.2473385161
 H   -0.4942008885   -2.3741912334   -2.0679667060
 H    0.9341052308   -2.8699107949   -1.1519102326
 H   -1.4504735755   -2.9883856535    0.1798005684
 H    0.4245360643   -2.6862960919    2.0253954811
 H    1.3219247494   -0.1924445521    1.9135283952