17

 C   -0.0135802318    1.4834326060   -0.0773205013
 C    0.0015026040   -0.0244987183    0.0035743777
 O    1.0261393168   -0.6846542447    0.0467323488
 C   -1.3005955212   -0.7066940094    0.0302362270
 N   -2.5129723799   -0.1751287721   -0.0074863017
 C   -3.3866124589   -1.2269042188    0.0422547482
 C   -4.8683006489   -1.0313064441    0.0205249241
 C   -2.6800155470   -2.4152921772    0.1113399634
 N   -1.3618111896   -2.0671709942    0.1027089536
 H    1.0110235459    1.8559084528   -0.0897222726
 H   -0.5476026218    1.8075352777   -0.9758896257
 H   -0.5604454449    1.9012237787    0.7735904025
 H   -5.1828420542   -0.5138651500   -0.8917871667
 H   -5.3926287330   -1.9894217812    0.0677403164
 H   -5.1962187492   -0.4198487760    0.8676247665
 H   -3.0050952221   -3.4416560920    0.1638925822
 H   -0.5460287043   -2.6579624774    0.1405965175