23

 C   -0.0075112738    1.6042644856   -0.1313880964
 C   -0.0140936941    0.0874106467    0.0711268712
 C   -1.4189847285   -0.5249063972    0.0202761581
 O   -2.0716609617   -0.2329451437   -1.2186049139
 C   -1.4056863536   -2.0333920749    0.2938640649
 C   -2.8058950789   -2.6442827904    0.3039772709
 C   -2.8213636511   -4.1659934367    0.2911501878
 C   -4.1710067492   -4.8211817936    0.5312150540
 O   -1.8218886068   -4.8201028592    0.0947653994
 H    1.0129771858    1.9981552732   -0.1500086895
 H   -0.4984420161    1.8697154491   -1.0713090236
 H   -0.5466500133    2.1106485438    0.6769607171
 H    0.6046601554   -0.3981732532   -0.6981686345
 H    0.4464541887   -0.1683567745    1.0334933798
 H   -2.0470173936   -0.0273515916    0.7724202502
 H   -1.5348056531   -0.6165203932   -1.9221688414
 H   -0.8012237225   -2.5393962144   -0.4692808867
 H   -0.9039555443   -2.2285703470    1.2487388979
 H   -3.3919826400   -2.2910370873    1.1633835346
 H   -3.3610256346   -2.2979737685   -0.5788663280
 H   -4.9407517098   -4.3810806177   -0.1117182264
 H   -4.1015989809   -5.8948757120    0.3526204274
 H   -4.4863153940   -4.6474342134    1.5669504171