15

 C   -0.0947735959    1.5448556018    0.1074442506
 C   -0.0296001519    0.0134742313    0.0160348124
 C    0.8422318297   -0.5547424999   -1.1459383760
 O    1.8223925397   -1.0472060383   -0.1844958502
 C    1.0791417525   -0.5993025504    0.8835393421
 N    1.2810034848   -0.6577497327    2.1157658485
 C   -1.3375027342   -0.6014329724    0.1618469270
 C   -2.4257746115   -1.1003407461    0.2636126949
 H    0.9003647663    1.9791045508   -0.0254685218
 H   -0.7630174736    1.9452921683   -0.6597815359
 H   -0.4723665283    1.8406557889    1.0886394160
 H    0.3977999850   -1.3748116499   -1.7117850673
 H    1.2834811433    0.1906410442   -1.8120189162
 H    2.1573276548   -1.1341210237    2.3348585100
 H   -3.3838681406   -1.5464110118    0.3691400160