13

 C   -0.0338968832    1.4835412093    0.0073532091
 N   -0.0130834169    0.0291312923    0.0943421320
 N   -0.0337558815   -0.6970916099   -1.0296879957
 N   -0.0092226086   -1.9703425675   -0.7089746406
 C    0.0281740012   -2.0824976145    0.6352385915
 C    0.0261231704   -0.8102415334    1.1627883492
 N    0.0574033148   -0.3933467157    2.5321491690
 O    0.0911670783   -1.2832238898    3.3704952402
 O    0.0484162205    0.8131937697    2.7648648520
 H    0.8600276371    1.9010011299    0.4712738827
 H   -0.0653429837    1.7216959512   -1.0551007365
 H   -0.9120403711    1.8784904681    0.5186942015
 H    0.0539164225   -3.0270360898    1.1513150456