17

 O    0.3526764991    1.8675258641   -1.5558284223
 C    0.1087700757    1.7580753918   -0.3744040329
 N    0.9844779954    1.2955588883    0.5645394025
 C    2.3331995820    0.9405019073    0.2707674941
 C    3.2862713177    0.5981268503    1.4401238260
 C    4.4101638519    1.0116818826    0.4917246912
 C    3.5044949609    1.8278234558   -0.3484978253
 N    4.0715445526    0.5788197642   -0.9116736802
 C    2.7348527819   -0.0921803900   -0.7997604355
 H   -0.8692017125    2.0268302818    0.0722507393
 H    0.6960310960    1.3291430357    1.5301936527
 H    3.1962767552    1.3151336884    2.2621035664
 H    3.2568310185   -0.4261812519    1.8281196162
 H    5.4601708962    1.1463249041    0.7125196074
 H    3.5630396243    2.8035835190   -0.8102882586
 H    2.7570375518   -1.1501461959   -0.5113876998
 H    2.1984382833    0.0462175145   -1.7376938515