15

 N    0.8233331276   -1.1417303404    0.4817301877
 C    0.4712044645   -0.0478263946    0.3688533597
 C    0.0151355548    1.3326097331    0.2048223286
 N    0.9301454831    2.0818648814   -0.6361859239
 C    0.8682164159    3.4431985447   -0.6807360778
 N    0.0964661160    4.1012513852    0.0914092412
 C    0.1087999124    5.5505285738    0.0655867148
 C    0.9942684905    6.1807011026   -0.9305126329
 N    1.7049065391    6.6173598134   -1.7309458663
 H   -1.0101709639    1.3265719842   -0.1930106034
 H   -0.0371693194    1.8261191016    1.1804316759
 H    1.3770801929    1.5989326996   -1.3974286333
 H    1.5496737561    3.8876520924   -1.4138243925
 H   -0.9112922817    5.9143736103   -0.1115035419
 H    0.3922967320    5.9286592927    1.0564237340