20

 C   -0.0728285913    1.6279370646   -0.0799754939
 C    0.0756555260    0.1178890145    0.0115028732
 N    1.1580964402   -0.4693648486   -0.8026279638
 C    1.3355846166   -0.5750443568   -2.2286574915
 C    1.7634004849   -1.1348675271    0.2259359779
 O    2.6781842137   -1.9213761464    0.2747283089
 C    0.7674588265   -0.5399335560    1.2577740230
 C    1.3625082675    0.3612053773    2.3269908433
 O   -0.0754783932   -1.5319685296    1.8180111360
 H    0.8803754490    2.1386918287    0.0825417810
 H   -0.4484462731    1.9204601933   -1.0662343063
 H   -0.7911474359    1.9861124907    0.6641054805
 H   -0.8862852918   -0.3759710534   -0.1724815725
 H    1.4871795617    0.4072122500   -2.6901074439
 H    2.2212699449   -1.1890290072   -2.4086707135
 H    0.4712301418   -1.0542406521   -2.7063384149
 H    1.9830840449    1.1526576352    1.8976893358
 H    0.5687525466    0.8166413528    2.9268283077
 H    1.9977764513   -0.2330051915    2.9920984192
 H    0.4966836596   -2.2132790285    2.1907783839