17

 O   -0.1312653840   -0.1050295175    0.2486156618
 C   -0.0187282508    1.0894125044    0.0760080726
 C    1.3180450316    1.8081811585    0.0640133318
 C    2.5097704052    0.8691105983    0.2633849786
 C    3.8172322099    1.6214103420    0.2522337233
 C    5.0219159831    1.0949826523   -0.3991596735
 O    4.2477989865    2.1252981152   -1.0172926019
 C   -1.1806435641    1.9396506883   -0.1343627657
 C   -2.1286923171    2.6600712774   -0.3106777616
 H    1.4086090304    2.3508154742   -0.8859054543
 H    1.2836354399    2.5879698327    0.8379601472
 H    2.4029324878    0.3301005183    1.2113684744
 H    2.5139715426    0.1133252771   -0.5276934886
 H    3.9574742372    2.3311187852    1.0709000742
 H    6.0075088280    1.3969294972   -0.0475337395
 H    4.9820782011    0.1232011626   -0.8897070381
 H   -2.9773688272    3.2812998039   -0.4657450407