22

 O   -0.0191057825    1.4417206568    0.0481064497
 C    0.0341442533    0.0224850623    0.0205537416
 C   -1.3931791565   -0.5113257177   -0.0340538845
 C   -2.1355737539   -0.0794374127   -1.3035299968
 C   -3.6079666462   -0.5054510501   -1.2184846556
 N   -3.8613726893   -1.8975546575   -0.8374229016
 C   -3.2107620078   -2.9636954305   -1.5854057056
 C   -2.7860972758   -2.6588659180   -0.1869321149
 C   -1.4088694990   -2.0452974417    0.0812828252
 H    0.8811286751    1.7784713629    0.0343669476
 H    0.5945581417   -0.3377094631   -0.8587973568
 H    0.5418465552   -0.3719938366    0.9161282649
 H   -1.9272143372   -0.0869901936    0.8282403073
 H   -2.0782598841    1.0061076209   -1.4221142583
 H   -1.6463601819   -0.5204381185   -2.1835694616
 H   -4.1038363145    0.1186748776   -0.4635085847
 H   -4.1235034860   -0.3218923799   -2.1678540392
 H   -3.8342938211   -3.8266193290   -1.8082894731
 H   -2.5078762010   -2.7032843680   -2.3759544039
 H   -3.1525721267   -3.3106147528    0.6035906733
 H   -0.6759477618   -2.4613159751   -0.6231628616
 H   -1.0750364902   -2.3450280757    1.0802599687