19

 O    0.0109374746    0.0232755137   -0.1050757972
 C   -0.0230171380    1.2101090863    0.0963796884
 C   -1.2655093242    2.0909041773    0.2354885791
 C   -0.6757376480    3.4978672616    0.1222419703
 O    0.6623444087    3.3864911591    0.6190979801
 C    1.1870167362    2.1291234513    0.2549370226
 C    2.3162160803    1.5760774423    1.1570708626
 C    3.0600669041    1.0979341884   -0.1188370691
 C    2.1700503457    2.0477580919   -0.9630632881
 H   -2.0220734943    1.8366872135   -0.5089796365
 H   -1.6937910285    1.9162606938    1.2294360511
 H   -0.6718945914    3.8402051666   -0.9235948249
 H   -1.1888836087    4.2485126443    0.7267315008
 H    2.8246743023    2.4069787368    1.6523441412
 H    2.0324475844    0.8258862232    1.8981378273
 H    4.1380914342    1.2627448331   -0.1574463338
 H    2.8463057379    0.0504784753   -0.3364219812
 H    1.7768118563    1.6726168322   -1.9105866282
 H    2.6292258182    3.0275804895   -1.1174844745