21

 C   -0.0513775974    1.5600773302   -0.0257738014
 C   -0.0387134900    0.0293089684   -0.0004167952
 C    1.1023710846   -0.5761989036   -0.9086645777
 C    1.9632268493   -0.7911377201    0.3634512973
 C    0.6991402987   -0.5674090668    1.2342885263
 C   -1.3886246968   -0.5858843851   -0.3083214217
 O   -1.7916870965   -1.5927953815    0.2412612621
 C   -2.2594891878    0.0264695712   -1.4038929486
 O   -3.3692425127   -0.7761559087   -1.6725746091
 H    0.9497910504    1.9469435046    0.1882807291
 H   -0.3504582712    1.9533446605   -1.0024329779
 H   -0.7311610767    1.9667289792    0.7308971105
 H    0.8032801671   -1.5195153444   -1.3725975344
 H    1.4940987739    0.0884433666   -1.6829740967
 H    2.4614274731   -1.7580038845    0.4569565533
 H    2.7126137742   -0.0066283277    0.4949475592
 H    0.7957407677    0.0950347585    2.0980552908
 H    0.2313060811   -1.5008130960    1.5502642860
 H   -2.5639983173    1.0347341073   -1.0765102336
 H   -1.6447802986    0.1705840323   -2.3074378253
 H   -3.3181971248   -1.4925636103   -1.0182777729