17

 N   -0.2736366224    1.0973598887   -0.5796547500
 C   -0.1273607723   -0.1151821921   -0.2672246720
 C   -1.1415054430   -0.9742809257    0.4615118245
 C   -0.6796697385   -2.4068936553    0.1485236253
 C   -1.3303022545   -2.9287063777   -1.1537103739
 C   -0.8719094452   -4.2698082798   -1.5089491139
 N   -0.4889361862   -5.3295951092   -1.7651503096
 C    0.8361814975   -2.1916380728   -0.0035161416
 O    0.9814107032   -0.8696178089   -0.5460148470
 H    0.5615248023    1.4529264004   -1.0483236477
 H   -1.0751014477   -0.7725029314    1.5360274132
 H   -2.1586323576   -0.7398261714    0.1444302286
 H   -0.8971766033   -3.1057161217    0.9587785857
 H   -2.4198743061   -2.9480285429   -1.0434158538
 H   -1.1076999609   -2.2495567345   -1.9853287006
 H    1.3438030644   -2.2423136608    0.9672350067
 H    1.3174243603   -2.8944322450   -0.6874596238