20

 O    0.6980394476   -0.2427903305    1.3122862939
 C    0.0272621839    0.1664756189    0.1306013069
 C   -1.3495994091   -0.4907739383   -0.0211112332
 C   -2.1046748226   -0.1208033998   -1.3293434455
 C   -2.1184222813   -1.4254873664   -2.1237334559
 C   -0.6998962953   -1.9047788234   -2.5223075320
 C   -0.7397598948   -2.7416532086   -1.2513489161
 C   -1.3125335695   -2.0155183030   -0.0811190631
 N   -2.2377547220   -2.5600733384   -1.0975753894
 H    0.9277309990   -1.1716777935    1.2081317941
 H   -0.0905122915    1.2521047576    0.2165404648
 H    0.6438879890   -0.0234869009   -0.7607533985
 H   -1.9393274667   -0.1991756579    0.8545917307
 H   -3.1260322549    0.2013430586   -1.1059086529
 H   -1.6185119964    0.6878551551   -1.8864084308
 H   -2.8856512321   -1.4811508789   -2.8954801797
 H   -0.7260078644   -2.5447278847   -3.4074237047
 H    0.0899498667   -1.1581300232   -2.6500235773
 H   -0.2814748563   -3.7200132236   -1.1346064964
 H   -1.3319303793   -2.5674603991    0.8541927151