25

 C    1.0028160134    1.5427034035    0.2420469125
 C    0.1745132824    0.2701997268    0.0156669067
 C    0.5060157074   -0.4583927158   -1.2834809747
 C    0.2651821863    0.3312564913   -2.5676158610
 C   -1.2015191148    0.7076724808   -2.8113895166
 C    1.6909048670   -1.3993326466   -1.2814022710
 C    0.2919212721   -1.9571593255   -1.3975454235
 C   -0.2957852986   -2.8237746377   -0.3146830006
 O    0.1374862484   -4.1596326354   -0.5518738778
 H    2.0752568000    1.3225281397    0.2120660755
 H    0.7992312534    2.3050748495   -0.5160934821
 H    0.7767417511    1.9834272930    1.2180710316
 H    0.3407167740   -0.4032391871    0.8622779171
 H   -0.8932848072    0.5234699555    0.0401214193
 H    0.8800419171    1.2400362833   -2.5629456214
 H    0.6252240809   -0.2663891189   -3.4136003471
 H   -1.5838476641    1.3806457054   -2.0373753490
 H   -1.3190035132    1.2162006696   -3.7734284614
 H   -1.8399998093   -0.1823295566   -2.8223618280
 H    2.3386352040   -1.4322245916   -2.1513647503
 H    2.2083399847   -1.5578852318   -0.3396548569
 H    0.0056788213   -2.3019531626   -2.3886952791
 H    0.0270228195   -2.4813956830    0.6794860980
 H   -1.3963111257   -2.7608944953   -0.3394686696
 H   -0.2864270900   -4.7281444405    0.0980360395