19

 O   -0.1640207166    0.2388511547   -0.7651600583
 C    0.1980962270    0.9336156652    0.1501489699
 C    1.3075636624    1.9347892240    0.0887025511
 O    2.2455297279    1.8335333382   -0.9760200996
 C    1.3785730574    2.9576432914   -0.9985694901
 C    0.3902053410    3.0674716402   -2.1192872214
 C   -0.7368587481    4.1343110757   -1.9963934109
 C   -0.5425716773    4.4560718284   -3.5025147922
 C    0.8512256190    3.7764050641   -3.4287767144
 H   -0.2982635639    0.8881782373    1.1461329585
 H    1.7303312864    2.1997029045    1.0595220040
 H    1.8650563157    3.8957117946   -0.7155789428
 H   -0.0190262598    2.0798283866   -2.3372735304
 H   -1.7188805966    3.7917555319   -1.6621363546
 H   -0.4272334656    4.9732140374   -1.3633819927
 H   -1.2362524692    3.8884346287   -4.1287427613
 H   -0.5806140368    5.5046481801   -3.8054085348
 H    1.6453851684    4.5041051522   -3.2308356026
 H    1.1623358789    3.1397222148   -4.2592236874