12

 O   -0.1165690105   -0.0290304960    0.0048298549
 C    0.0146048767    1.1585267316    0.0092149436
 O   -1.1716458151    1.9491245499    0.0298248537
 C   -1.1169194282    3.2931801602    0.0359348033
 N   -0.0400938864    4.0063644994    0.0245340317
 C    1.1422924617    3.3056231225    0.0043994993
 C    1.2205154469    1.9534887326   -0.0036303170
 C   -2.4050834107    3.9005969406    0.0570614223
 C   -3.4961167558    4.4042192958    0.0749025296
 H    2.0390670233    3.9178274445   -0.0050300326
 H    2.1624809954    1.4217490907   -0.0195713202
 H   -4.4586274672    4.8550969983    0.0906733914