22

 C    0.5834068277   -0.4695887526   -1.8700534139
 C    0.0806003897    0.0848351136   -0.5313358777
 C   -1.3250933535   -0.3453059913   -0.2155577337
 N   -2.5019099585   -0.0332176801   -1.1013047906
 C   -2.8891278717    1.3718414108   -1.1793797324
 C   -3.0827687534   -0.8017711779    0.0373216959
 C   -1.8775542162   -1.7851769287    0.0667444951
 C   -1.6974407741   -1.6415618410    1.5896345937
 C   -2.1260606266   -0.2291831714    1.1464499879
 H    1.5846883359   -0.0937788914   -2.1005514735
 H    0.6294757583   -1.5630558005   -1.8489180633
 H   -0.0888545938   -0.1849925333   -2.6843587262
 H    0.7376389390   -0.2378327824    0.2863648131
 H    0.1227302653    1.1820573782   -0.5404192836
 H   -2.2142717521    1.8988902201   -1.8621636523
 H   -3.8996374018    1.4425927136   -1.5960557870
 H   -2.8817817363    1.9046783026   -0.2130455544
 H   -4.1453725416   -1.0390962487    0.1183685557
 H   -1.7531654368   -2.6532959344   -0.5804705007
 H   -2.4041764314   -2.1908540307    2.2189949451
 H   -0.6809050536   -1.7495660440    1.9801107781
 H   -2.2689863046    0.6565182895    1.7658246546