14

 C    0.0484634707    1.5623605812    0.1019180333
 O    1.4845364799    1.8781830441    0.0647496559
 C    1.8838912021    0.7301618804    0.6760026448
 N    2.0685582868    0.5992012341    1.9228317303
 C    1.4393417079   -0.7000267020    2.2451010845
 C    0.6326163079   -1.0234385619    0.9795366786
 C   -0.0113742455    0.0052246329    0.0398602741
 N    1.3981324256   -0.4034561580   -0.1106369658
 H   -0.3841565382    1.9996724368    1.0055190525
 H   -0.4066894896    1.9950472368   -0.7909486807
 H    2.1623477522   -1.5056642366    2.4314378609
 H    0.8435260687   -0.5704864600    3.1540386136
 H    0.3148323523   -2.0515515614    0.8213804899
 H   -0.7135824906   -0.4047689265   -0.6826525221