20

 C   -0.0835443236    1.5580730951   -0.0245963268
 C    0.0054094689    0.0386230188    0.1061148189
 C    0.4782540830   -0.6198617128   -1.1931311553
 N    0.6301974391   -2.0648445852   -1.0505650383
 C    0.7652545449   -2.8287725095   -2.2756599796
 C    1.2129364717   -2.5048527807    0.0975456096
 C    1.4033319492   -1.7456875731    1.2083987606
 C    0.8880172358   -0.3914260245    1.2967611465
 O    1.0546151867    0.3431022377    2.2570065721
 H    0.8748004192    1.9792444607   -0.3481938110
 H   -0.8483140529    1.8515838468   -0.7506566033
 H   -0.3227992289    1.9968064343    0.9450989286
 H   -0.9948266855   -0.3611748559    0.3356610444
 H   -0.2331779459   -0.4235445423   -2.0021060015
 H    1.4461970097   -0.1798730952   -1.4950245342
 H    1.6540087589   -2.5337285999   -2.8549857408
 H    0.8441855272   -3.8926527659   -2.0410112714
 H   -0.1159553402   -2.6817484003   -2.9082194066
 H    1.5270537754   -3.5452047929    0.0767657846
 H    1.8868982371   -2.1689843452    2.0793168834