20

 C    0.2469354976    1.5721250611   -0.0523279299
 C   -0.0325868816    0.0632227293    0.0336107973
 N    0.2499101552   -0.4987815847   -1.2842674253
 C    0.5436722483   -1.6799920311   -1.6013562794
 O    0.7012521789   -2.8366696018   -0.9056232105
 C    0.1995080506   -2.9679466212    0.4298945169
 C    0.7916952713   -2.0177755953    1.4433942392
 C    2.0351028762   -1.2158291385    1.1419293573
 C    0.6904519416   -0.5326839055    1.2370452924
 H    1.3144788763    1.7507195162   -0.2156410280
 H   -0.3024812873    2.0080711214   -0.8898279562
 H   -0.0514506946    2.0805711131    0.8702773138
 H   -1.1139128511   -0.0559873527    0.2059732517
 H    0.7561803331   -1.9025761712   -2.6484718125
 H   -0.8952620103   -2.8754134520    0.4055402184
 H    0.4382065224   -4.0011906559    0.6974422475
 H    0.6716019554   -2.3773330404    2.4622967989
 H    2.7486609911   -1.0576881925    1.9426281436
 H    2.4833406696   -1.3324801060    0.1624533057
 H    0.5286351571    0.0535821175    2.1385060891