16

 O   -0.1068840229    0.0099100009   -0.0509678805
 C   -0.0483466732    1.1974267984    0.0456639603
 C   -1.1178917911    2.3251391877    0.2028978145
 C    0.0241795212    3.3036894514   -0.0903317685
 O    0.9785470436    3.1167214971    0.9514946514
 C    1.0613130382    2.2321536439   -0.1922156820
 C    2.3552768937    2.1085699301   -0.8985255894
 C    3.3308134843    3.2276036342   -0.8593263145
 N    3.6034229095    1.9862667555   -0.1207521451
 H   -1.8784915403    2.2450175651   -0.5793004233
 H   -1.5915161169    2.4369715965    1.1796994783
 H    0.0058403451    4.2580703953   -0.6013509745
 H    2.3190118175    1.4613168807   -1.7708610445
 H    3.9726698586    3.4041828391   -1.7172705422
 H    3.0520954550    4.1121977733   -0.2948123020
 H    3.3935149577    2.1346015708    0.8645697621