19

 C   -0.0469969317    1.4863134252   -0.1076208281
 C   -0.0024827483    0.0323285173   -0.0528655323
 C    0.0317591342   -1.1708409740   -0.0021994384
 C    0.0591976052   -2.6179572835    0.0599458877
 C    0.3396396048   -3.3324449030    1.4439929900
 C   -1.0037607877   -4.0497872076    1.2871959384
 O   -2.0097817311   -3.0292356508    1.2038643689
 C   -1.3010688495   -3.3746728097    0.0114412030
 C   -2.0834193760   -3.7485082218   -1.2034608790
 H    0.6661734111    1.9328499955    0.5944581479
 H    0.1995622321    1.8575086305   -1.1087536900
 H   -1.0430179532    1.8634622327    0.1498389796
 H    0.7343284633   -3.0241055554   -0.7017113518
 H    1.2098521837   -3.9909032747    1.4011679497
 H    0.4091113748   -2.6741064482    2.3114357811
 H   -1.3127777230   -5.0182516018    1.6643079987
 H   -2.4968912393   -2.8535333086   -1.6816445837
 H   -1.4492444254   -4.2594159137   -1.9350905738
 H   -2.9134805439   -4.4070320781   -0.9343310379