19

 C   -0.0912396969    1.5011920147   -0.0193702474
 N    0.0640543758    0.0592697298    0.0404224655
 C    0.7003936240   -0.5520863614   -1.1601582503
 C    1.3694985548   -1.8795735616   -0.6837128753
 C    1.5646726575   -1.5850109850    0.7801592742
 C    0.8055472063   -0.4915346533    1.0928206015
 N    0.8446453096   -0.2683366151    2.4354567316
 C    1.6615658646   -1.2462674359    3.0032188663
 C    2.1060078076   -2.0802585620    2.0005141000
 H    0.8686348173    2.0367001450   -0.1348402821
 H   -0.7343289543    1.7637127090   -0.8645973811
 H   -0.5828284158    1.8641076052    0.8892221738
 H   -0.0438416506   -0.6989164076   -1.9479422505
 H    1.4763936867    0.1299848627   -1.5450735626
 H    0.6983451473   -2.7341947948   -0.8466274924
 H    2.2848089115   -2.0798474656   -1.2499619402
 H    0.4004776085    0.4790782966    2.9376765986
 H    1.8722688278   -1.2326274648    4.0599061778
 H    2.7545429083   -2.9316338761    2.1427691925