17

 C   -0.0208512943    1.4933275827   -0.0480018584
 C    0.0189551819   -0.0065903819    0.0663372884
 N   -1.2069151871   -0.7190926863   -0.2414889933
 C   -1.2433952251   -1.7254842908    0.5566436715
 N   -2.1702055773   -2.7263058486    0.5699715371
 O   -0.2437955332   -1.8731543108    1.4638407277
 C    0.6699690083   -0.8229426361    1.1846804232
 C    1.2709380038   -0.8189500148   -0.2083503413
 O    1.2339208489   -1.9553960977   -1.0060326576
 H    0.9420680434    1.9338498785    0.2273259385
 H   -0.2506823065    1.7914872775   -1.0760913097
 H   -0.7923316982    1.9130249508    0.6058034333
 H   -3.0368529159   -2.4975876067    0.1093552667
 H   -2.2620561575   -3.2231275642    1.4423370145
 H    1.1815267098   -0.4619997531    2.0680233007
 H    2.1964847006   -0.2539260454   -0.3010479783
 H    0.3948470183   -1.9355999031   -1.4851076931