14

 C    0.0133026358    1.4796473704    0.0092064287
 N   -0.0390512730    0.0327424122    0.0014741752
 C   -1.1620421243   -0.7750078288    0.0045340886
 C   -0.7385556564   -2.0563012812   -0.0062493802
 O    0.6528827171   -2.0635010572   -0.0162730391
 C    1.0972128200   -0.7613998166   -0.0108689184
 O    2.2504732439   -0.4264644095   -0.0177989596
 C   -1.4279362609   -3.2747250780   -0.0090445508
 C   -2.0186080866   -4.3246013561   -0.0114716915
 H    1.0670892322    1.7611607696    0.0025114257
 H   -0.4777039542    1.8948170834   -0.8766187272
 H   -0.4636305299    1.8848214000    0.9072749501
 H   -2.1637744748   -0.3814021424    0.0138550636
 H   -2.5392328887   -5.2501270257   -0.0135950852