12

 C   -0.0402706120    1.5896743878   -0.0268677777
 C   -0.0180133711    0.0463480951   -0.0346990751
 C    0.7380550634   -0.5117749423    1.2288678406
 O    1.2119555954    0.2080847507    2.0527806355
 C   -1.3776917912   -0.5129131094    0.0128922633
 N   -2.4422668608   -0.9502213690    0.1105949449
 C    0.6929274879   -0.4769841879   -1.2112006254
 N    1.3023325978   -0.8851457523   -2.1034569771
 H    0.9841075010    1.9641532342   -0.0261871935
 H   -0.5667278335    1.9628589971   -0.9061383646
 H   -0.5425519214    1.9375112902    0.8766178329
 H    0.7835226345   -1.6161828243    1.2726441462