23

 C   -0.1219378935    1.5034006456    0.0538359742
 C   -0.0014022086   -0.0247757350   -0.0222651761
 C    1.2430455488   -0.5042748267    0.7278591749
 O   -1.1092616725   -0.6286947839    0.6653530189
 C    0.0037169306   -0.4754761764   -1.5008616298
 C    0.0944308508   -1.9757204427   -1.6865379509
 C    0.3273846379   -2.5605958013   -3.0672220536
 C    1.4028163288   -2.6383316658   -2.0129261526
 O    2.5262094391   -1.8080026107   -2.1158062262
 H    0.7475699718    1.9938642882   -0.3953284678
 H   -1.0133885536    1.8535874560   -0.4812268981
 H   -0.2012772091    1.8233195501    1.0967297679
 H    1.2456217524   -0.1061524542    1.7466506652
 H    1.2543905988   -1.5945822968    0.7893662591
 H    2.1531851253   -0.1844445160    0.2147603289
 H   -1.9185070237   -0.2824331972    0.2733865489
 H   -0.9226301910   -0.1086844156   -1.9671469808
 H    0.8329913533    0.0092404099   -2.0252229173
 H   -0.5640490126   -2.5366358745   -1.0306520874
 H   -0.1963562690   -3.4652623989   -3.3575767328
 H    0.4959981668   -1.8535804411   -3.8740752532
 H    1.6019162865   -3.6094782616   -1.5598457044
 H    3.0671458326   -2.1285640412   -2.8445674470