14

 N   -0.0713067460    1.2768335667   -0.4503023932
 C   -0.0150653240    0.0834281540   -0.0118311368
 C   -1.3064587358   -0.6297879498    0.3470515941
 C   -1.1559005875   -2.0276254245    0.8586306897
 C    0.0246696500   -2.6311828790    0.9970614106
 C    1.2878414445   -1.9535012977    0.6503704071
 O    2.3849255541   -2.4620704502    0.7589238467
 N    1.1542186321   -0.6505122385    0.1743871178
 H    0.8565727176    1.6515467074   -0.6574455559
 H   -1.8383079368   -0.0145968997    1.0834783144
 H   -1.9540185858   -0.6212712142   -0.5386113879
 H   -2.0721664833   -2.5495033824    1.1211692094
 H    0.1339197972   -3.6431237994    1.3671188847
 H    2.0337740736   -0.2059150628   -0.0558550608