13

 C    0.1183263080    1.3861805128   -0.2178535008
 C    0.0728180674   -0.0573209792   -0.1000764253
 C    0.0347747591   -1.2643978385   -0.0023130917
 C   -0.0096097268   -2.6121099655    0.1071858287
 C   -0.0464443286   -3.8226770331    0.2049040530
 C   -0.0967193390   -5.2490637010    0.3213665305
 O   -1.1016195841   -5.8909121363    0.5570174266
 C    1.2266126136   -6.0068755390    0.1314269107
 O    2.2793869154   -5.4824470919   -0.1046288127
 H    1.1437437048    1.7403640007   -0.3686358262
 H   -0.4861311753    1.7257225683   -1.0663507132
 H   -0.2770763380    1.8634407340    0.6856661351
 H    1.0874753236   -7.1031114413    0.2400545852