13

 N   -0.1145883194    1.3600372331    0.0517754254
 C    0.0360376288    0.0014539358   -0.1665601697
 O    1.1029275720   -0.5058887492   -0.4458148342
 C   -1.2151279172   -0.7822922969   -0.0826544817
 C   -1.3951954977   -2.1398702602    0.1055959778
 C   -2.7906187965   -2.3191033782    0.1082275969
 N   -3.4407454963   -1.1693544712   -0.0784450026
 N   -2.4687811813   -0.2498767621   -0.1727376117
 H    0.7582873620    1.8655485826    0.1085190846
 H   -0.8246148944    1.6652242966    0.7002831164
 H   -0.6146695370   -2.8708944394    0.2335618942
 H   -3.3515052673   -3.2331531321    0.2344906341
 H   -2.7127346457    0.6906893613   -0.4366510096