23

 C    0.9222377710    2.0916401730    3.1414549899
 C    0.4608060687    0.7152417872    2.6714766616
 C   -0.1576273453    0.5095013578    1.2455586008
 C    0.7857478035   -0.6829372880    1.0252461764
 C    2.2303894573   -0.2771593694    1.0779275382
 C    2.8362626177    0.9699800811    0.4648447116
 C    4.1316292926    1.3873331930    1.1519033692
 O    4.6291520383    2.5382834562    0.4841374638
 C    1.4680237258   -0.4111784423    2.3772930089
 H    1.6142123464    2.5678214581    2.4423649785
 H    0.0656624580    2.7639214725    3.2673553129
 H    1.4280842900    2.0196540781    4.1112524764
 H   -0.2582974297    0.3304069854    3.4029944542
 H   -1.2122465424    0.2283153678    1.2805990149
 H   -0.0512014662    1.3407043375    0.5410549234
 H    0.4799429354   -1.6338185291    0.6045963586
 H    2.8768236412   -1.1456924033    0.9443886913
 H    3.0536875264    0.7817572543   -0.5941559909
 H    2.1441903678    1.8153862264    0.4865891487
 H    3.9358259764    1.5942782350    2.2156727703
 H    4.8574673752    0.5580890263    1.1116828855
 H    5.4421988168    2.8102063338    0.9193852241
 H    1.7890382151   -1.1326358312    3.1215793817