19

 C   -0.1003836903    1.5081517920   -0.0279965403
 C    0.0570855193    0.0027736167    0.0277904933
 O    0.2574465190   -0.5856211557    1.0643030979
 C    0.0100997752   -0.7553162726   -1.3137892066
 C    1.4947475918   -0.8782493694   -1.8604203061
 C    1.5670511375   -2.3068367549   -1.2672987979
 C    0.0252861700   -2.3071531129   -1.1122714154
 C   -0.9705528841   -0.2118164233   -2.2316554806
 C   -1.7862374706    0.2150130617   -3.0068248893
 H    0.4998581092    1.9398857134   -0.8349324054
 H   -1.1436618786    1.7544003279   -0.2503489962
 H    0.1818643110    1.9406647199    0.9323534699
 H    1.4959110696   -0.8647201350   -2.9518198105
 H    2.2081157042   -0.1342743398   -1.4964697644
 H    2.0010632478   -3.0759801052   -1.9085221810
 H    2.0703962199   -2.3258083761   -0.2992675939
 H   -0.3758423127   -2.6444124295   -0.1567917277
 H   -0.4857879111   -2.8106142559   -1.9343995899
 H   -2.5073231770    0.5918860387   -3.6892548857