17

 C    0.1334154884    1.4772544672   -0.0524575553
 N   -0.0146054020    0.0323621839    0.0504833663
 C   -0.1134632179   -0.5470958322    1.2845490408
 O   -0.0879774011    0.0447733677    2.3440417681
 C   -0.0569480408   -0.7594233159   -1.1622596013
 C    0.8632703916   -2.0052036838   -1.2724047606
 O   -0.2707346208   -2.8908992179   -1.3463022940
 C   -1.2028026400   -1.7922193713   -1.3395840649
 H    1.0699442794    1.7418595224   -0.5566704508
 H   -0.7006509373    1.9198217819   -0.6091245765
 H    0.1438079170    1.8802164141    0.9599014281
 H   -0.2225947095   -1.6457183498    1.2208043496
 H    0.0415647666   -0.0687170819   -1.9993464912
 H    1.4795864818   -2.0485204552   -2.1791852858
 H    1.4937871929   -2.2020459729   -0.3980622242
 H   -1.9149382681   -1.8505903715   -0.5087708197
 H   -1.7555251102   -1.7151412650   -2.2843223788