19

 C    0.0663608745    1.5527234437    0.0097380406
 C   -0.0005732002    0.0535847778    0.0195216735
 C   -0.9541731404   -0.7527782155    0.8621750001
 C    0.5383686594   -0.9311451095    1.0405066028
 C    1.2465266350   -1.7472782711   -0.0703749252
 C    0.3859525876   -2.2283404556   -1.2204227466
 O   -0.8906343762   -2.8082990170   -1.1763098099
 C    0.6914890534   -0.7724541260   -1.1195350700
 O    1.4175939905   -0.1132015060   -2.1002788441
 H    1.0620355447    1.9039348952   -0.2786203322
 H   -0.6542114749    1.9854710286   -0.6960271496
 H   -0.1663864158    1.9526611410    1.0019508881
 H   -1.4159019753   -0.1725821558    1.6582135462
 H   -1.5777279556   -1.5281609290    0.4424699660
 H    1.0348641076   -0.7066428471    1.9764664393
 H    2.2604048612   -2.1117625704    0.0432824517
 H    1.0264319967   -2.6673771596   -1.9909371874
 H   -0.8034421910   -3.6704930743   -0.7545041837
 H    0.8304427989    0.0540265406   -2.8468216298