9

 O    0.0031463143   -0.0823389794    0.0033874266
 C   -0.0028338346    1.1303342842    0.0067804205
 C    1.1908733792    1.9410129622    0.0005205013
 C    2.1843291264    2.6202302764   -0.0046708445
 C   -1.2441513976    1.8866115381    0.0172552964
 C   -2.2927114053    2.4896601007    0.0260228002
 C   -3.4720789526    3.1756021991    0.0359147164
 N   -4.4735509542    3.7638547482    0.0443078303
 H    3.0674274344    3.2132388004   -0.0092724571