16

 C    0.1194173589    1.4678304793   -0.0387075509
 O    1.1597158893    0.5022278082   -0.2049666703
 C   -0.1761762492    0.0294250559    0.0258187750
 C   -0.4283922996   -0.6708255863    1.2928076782
 C   -0.3460578333   -2.1784199401    1.6166811950
 C   -0.0200163077   -1.8138321398    3.0850966092
 C   -0.1033737723   -0.3635405999    2.7782519789
 N   -1.3356728538   -1.0958765636    3.2481995579
 C   -1.6398650191   -1.4300694065    1.7881828631
 H    0.1623044554    2.0478803153    0.8820701885
 H   -0.1460193564    2.0340772460   -0.9305933826
 H   -0.6406821079   -0.4330071825   -0.8475146028
 H   -0.0707308669   -2.9945305471    0.9644079610
 H    0.4527495432   -2.3511743646    3.8977084636
 H    0.2853453979    0.5075090609    3.2915982606
 H   -2.6322517785   -1.5651043452    1.3763802555