18

 C    0.4455874547    1.3363769908   -0.0373179945
 O    0.5607118268   -0.0820095379   -0.0094793518
 C    0.4513583187   -0.6400934138    1.2531841302
 C    0.4666594626   -2.1655855440    1.1040691508
 C    1.4128094629   -2.7472566560    2.1410318197
 O    2.7015267682   -2.1376530843    1.9838070735
 C    2.7233104866   -0.7789481640    2.0269096402
 N    3.7746475459   -0.0850057256    2.0378632851
 O    1.5082652145   -0.1841628910    2.1237742980
 H    1.2654174043    1.8109881408    0.5101609734
 H    0.4846012192    1.6304826045   -1.0874203802
 H   -0.5123184577    1.6613557762    0.3937589970
 H   -0.4459464623   -0.2729405666    1.7696500582
 H   -0.5415428441   -2.5744495530    1.2114933193
 H    0.8295089634   -2.4063166950    0.1013563180
 H    1.0462196249   -2.5800066407    3.1614074762
 H    1.5743831534   -3.8169409080    1.9985925638
 H    4.5881218379   -0.6980616322    2.0625286030