16

 N   -0.0730182579    1.2683547350    0.1228816102
 C   -0.0347758854    0.0138480587   -0.0208628222
 O    1.1248802670   -0.7281673173   -0.2048212521
 C    0.7680148014   -2.0840166661   -0.4222858888
 C    1.2251207333   -3.1702278769    0.5610532371
 O    0.2262327343   -4.1847755703    0.3911575450
 C   -1.0513879228   -3.5770820736    0.1115778297
 C   -0.7116081512   -2.1520649556   -0.1741758262
 C   -1.1739193771   -0.9231663149    0.0438155336
 H    0.8665213895    1.6661243290    0.0894724262
 H    1.0477295884   -2.3671251192   -1.4461273569
 H    2.1904643638   -3.6247958822    0.3304099046
 H    1.2426151199   -2.7706349301    1.5858333445
 H   -1.5009079822   -4.1077630248   -0.7363387314
 H   -1.7255895545   -3.6746801981    0.9724429846
 H   -2.1647832864   -0.5970865935    0.3233132621