18

 O   -0.0404428344    1.4638802979   -0.0273172132
 C    0.0550121817    0.0464711667    0.0023205750
 C    0.7610903404   -0.5253658394    1.2777861470
 C   -0.3364172918   -1.3190444586    1.9963523632
 C   -1.5310693126   -0.4984910935    2.4807179219
 C   -2.1925046079    0.0178831443    1.2464615860
 C   -1.3670338042   -0.5214756297    0.0800867564
 C   -1.3490396980   -1.8138712928    0.9309744705
 N   -2.5586431772   -1.3412189424    1.7767376864
 H    0.8495719386    1.8233048629   -0.0911046235
 H    0.5642260624   -0.3143169668   -0.9041266464
 H    1.6000254463   -1.1745504821    1.0038078984
 H    1.1573471263    0.2887554205    1.8935338534
 H    0.0014001500   -2.0680812626    2.7133032740
 H   -1.7141425099   -0.0831297955    3.4649922662
 H   -2.8949414415    0.8413900981    1.2530695695
 H   -1.9089449865   -0.5669992578   -0.8642016594
 H   -1.3387170917   -2.8159127192    0.5071702046