21

 C   -0.0912195126    1.5457559126   -0.0528991270
 C   -0.0487691745    0.0118604597    0.0203483444
 C    0.8269451876   -0.4813993813    1.1798449039
 C   -1.4451532811   -0.5446121030    0.0872622805
 O   -2.3544373248   -0.2059902656   -1.0187508949
 C   -3.1493329554   -1.0392951409   -0.1348401160
 C   -1.9887437279   -2.0124738645    0.2287577205
 C   -2.2574802795   -1.8553405793    1.7415718342
 C   -2.5703091841   -0.4488361099    1.1850650410
 H    0.9101429812    1.9517899524   -0.2270447144
 H   -0.7477454626    1.8769139007   -0.8609137114
 H   -0.4675373615    1.9700612272    0.8849112208
 H    0.3789065097   -0.3628337073   -0.9202684317
 H    0.4384017800   -0.1353208627    2.1438954671
 H    0.8863006038   -1.5737027535    1.2089916416
 H    1.8447331309   -0.0930671128    1.0757816071
 H   -4.1821392857   -1.2579913601   -0.4049206009
 H   -1.6666168941   -2.8831379579   -0.3431609279
 H   -3.1110308489   -2.4143381515    2.1359992221
 H   -1.4021331335   -1.9479503919    2.4136813008
 H   -2.9101196769    0.4513263096    1.6975209403