17

 C   -0.8016490576    1.1189383819    0.2800481705
 C   -0.1483259373   -0.2412087172    0.2028609672
 N    1.2012862226   -0.3104550716   -0.3777074508
 C    1.0135013831   -0.6834145170    1.0267632731
 C    1.6845573122    0.2030601712    2.0744554886
 N    1.0533169563    0.1920273819    3.3986658762
 C    3.0954829391   -0.1953573815    2.2144144131
 N    4.1906472501   -0.5496926128    2.3116622870
 H   -0.0791262841    1.9026561939    0.5185548789
 H   -1.2530591745    1.3746902346   -0.6840548462
 H   -1.5973195573    1.1316982818    1.0333002110
 H   -0.8358482923   -1.0438366850   -0.0639459986
 H    1.3220602991   -1.1306959587   -0.9640648200
 H    1.0487681121   -1.7422893647    1.2829738759
 H    1.6814291411    1.2338941228    1.7055583671
 H    0.0788085805    0.4606965501    3.2972647991
 H    1.0590318770   -0.7513381197    3.7769794480