17

 C    0.0003386768    1.4944217897   -0.0201976905
 O    1.4156072555    1.7719131221   -0.0360281747
 C    1.9805069726    0.4695053619    0.0090863254
 C    1.1656467212   -0.4026246635   -0.9968204808
 C    1.5104462712   -1.8438245050   -0.6365931897
 O    2.7413432201   -2.0032902700    0.0960020150
 C    1.5163779020   -1.7906305466    0.8250032140
 C    1.1740687209   -0.3269542594    1.0822897216
 C    0.0236923885   -0.0263695296    0.0350629356
 H   -0.4658770632    1.9589725859    0.8570320051
 H   -0.4730936304    1.8941030913   -0.9250810151
 H    3.0644219218    0.5235317647    0.0027290805
 H    1.0936520186   -0.1130238214   -2.0451022545
 H    1.1959505780   -2.6921127403   -1.2348412038
 H    1.2069755393   -2.5930852985    1.4858662314
 H    1.1104698792    0.0381081126    2.1072927722
 H   -0.9265062921   -0.5615037237    0.0583877783