13

 C    0.0154395796    1.5257501282   -0.0498263126
 N    1.3839508680    2.0220409692    0.1112958191
 C    2.3578488147    1.2405369992    0.2507092645
 O    2.3820422098   -0.1455053780    0.2839905474
 C    1.1635310295   -0.7146462206    0.1433456523
 N    0.9995323639   -2.0101774715    0.1510336872
 O   -0.3775097905   -2.1658436779   -0.0185584668
 C   -0.9603433699   -0.9562746308   -0.1181761013
 C   -0.0332089151    0.0283583166   -0.0232234959
 H   -0.5940851129    1.9711648914    0.7461823978
 H   -0.3758833779    1.9332246888   -0.9902395013
 H    3.3729025713    1.6064716851    0.3702506200
 H   -2.0310168906   -0.9659996097   -0.2524570204