23

 C   -0.4041657707    1.3475673581   -0.5599022348
 O   -0.4320412147   -0.0594452506   -0.5964858590
 C   -0.8108025138   -0.6144484053    0.6499552073
 C   -0.8262471447   -2.0685171404    0.5727093794
 C   -0.8355667762   -3.2721586985    0.5363609568
 C   -0.8602950941   -4.7284280368    0.4649394065
 C   -2.1843526080   -5.3148510067   -0.0845689549
 C   -2.0519522030   -6.8313333107   -0.2660439813
 C   -3.3720981934   -4.9605053092    0.8164274204
 H   -0.1054156073    1.6914253831   -1.5526776353
 H   -1.3921083120    1.7722289833   -0.3182733160
 H    0.3195236096    1.7253235103    0.1805520633
 H   -0.1115864192   -0.2882770255    1.4404815012
 H   -1.8081064661   -0.2422632244    0.9448844354
 H   -0.0276154033   -5.0688197844   -0.1645138194
 H   -0.6721027161   -5.1462589636    1.4644125995
 H   -2.3535016001   -4.8613808162   -1.0696844809
 H   -1.8626844681   -7.3267587552    0.6940670189
 H   -2.9698443221   -7.2582018182   -0.6824187376
 H   -1.2275308727   -7.0855304045   -0.9408311643
 H   -4.3101042912   -5.3338406574    0.3931208775
 H   -3.2546968898   -5.4084691680    1.8109660422
 H   -3.4617435330   -3.8781315290    0.9437320651