16

 C    0.0099593807    1.4930902130    0.0477533155
 C    0.0262261162    0.0024387315   -0.0352670461
 C    0.0082051340   -0.8353097138   -1.1358388449
 C    0.0372180418   -2.1725281947   -0.6527036734
 O    0.0332091121   -3.3416052716   -1.3673189111
 C    0.0721846665   -2.1336582149    0.7236745740
 N    0.1101968276   -3.1281747085    1.7261364772
 N    0.0646749106   -0.7932242183    1.0752248516
 H    0.9016670743    1.8916998271    0.5483026875
 H   -0.0211638740    1.9209295975   -0.9571224039
 H   -0.8644079430    1.8698976699    0.5937203325
 H   -0.0223444971   -0.5168691809   -2.1683138040
 H    0.0069057893   -3.1219594616   -2.3023759069
 H    0.9292848504   -3.7208506345    1.6286258074
 H   -0.6973584338   -3.7416292673    1.6696191173
 H    0.0854479643   -0.4844214529    2.0320334572