18

 O   -0.1761551779    0.1145228202   -0.6122408815
 C   -0.0516097433    1.2075722765   -0.1051552949
 N    1.1271144261    1.7929714659    0.2528382978
 C    2.4172812258    1.1865275089    0.1447225361
 C    3.1337232565    0.5534019208    1.3765517587
 C    4.4332645412    0.9018477886    0.6539741623
 C    4.1930407318    0.6886556383   -0.8490745756
 C    2.7495126519    0.2200791013   -1.0222175794
 C    3.7647315874    1.9701925517   -0.1761522938
 H   -0.9116625529    1.8725585163    0.1157386963
 H    1.0681285283    2.6658583756    0.7555250441
 H    3.0017275106    1.1681662109    2.2723860598
 H    2.9046335717   -0.4933884417    1.6048976058
 H    5.4348853936    0.9205669251    1.0621810472
 H    5.0230928980    0.5518131021   -1.5296634259
 H    2.4972848069   -0.8333647065   -0.8802808420
 H    2.3253854211    0.5771468986   -1.9626099484
 H    3.9944126435    3.0090158772   -0.3651835966