17

 O    0.2980138250    0.1695372585   -0.5620839515
 C    0.2323926830    1.3435975141   -0.2884679182
 N    1.2349195371    2.0405433898    0.3653921837
 C    2.6552047078    1.9974039713    0.1499968262
 C    3.1756344021    1.6677850940   -1.2523212699
 C    2.6869801045    2.7969912343   -2.1591249902
 N    1.2231888563    2.8982918411   -2.2981982267
 C    1.9186505081    3.7875618564   -1.3521529440
 C    1.8748227812    3.3021097249    0.0854620868
 H   -0.6752722082    1.9576198716   -0.4206945070
 H    3.2584367446    1.7186488727    1.0103608323
 H    4.2701939328    1.6601064001   -1.2358269160
 H    2.8306116143    0.6863668908   -1.5882321511
 H    3.3031246266    3.1010029709   -2.9997966031
 H    0.9870405725    3.4032983583   -3.1485858685
 H    1.9518579586    4.8546289972   -1.5404833312
 H    1.8822704137    4.0385625640    0.8835679285