20

 C   -0.1945228731    1.5079289363   -0.0750393549
 C   -0.0058068602   -0.0034179438   -0.0060408172
 C    1.2095651918   -0.5372708057   -0.8087659715
 C    1.3161160899   -2.0284953195   -0.4420661481
 C    2.3935247425   -1.8307090517    0.5547311092
 C    2.1569600310   -0.3056908648    0.4392595742
 C    0.8085307233   -0.4959771676    1.2168950171
 C    0.5277726252   -0.1099832564    2.6399451960
 N    0.9847111822   -2.0063483834    1.0249424112
 H    0.7482866758    2.0411281772    0.0920940905
 H   -0.5737237016    1.8091625825   -1.0571127384
 H   -0.9104918745    1.8543884909    0.6777967291
 H   -0.9558027251   -0.5242323616   -0.1736242664
 H    1.4477424671   -0.2130113485   -1.8206541877
 H    1.0270882572   -2.9040455442   -1.0099595928
 H    3.2136007843   -2.4571463943    0.8840143668
 H    2.8652803016    0.5117365035    0.5430286179
 H    0.4859468731    0.9777380052    2.7561535054
 H   -0.4301055677   -0.5301636402    2.9668452759
 H    1.3050546271   -0.4961098740    3.3074793539