15

 N    0.1128919128    1.3172314430    0.0058041735
 C    0.0250465321    0.0564326410    0.0017726855
 N   -1.2083118009   -0.6248054721    0.0091072398
 C   -2.5135977287   -0.0621900585    0.0199067652
 O   -2.7772537886    1.1045407689    0.0252491542
 C   -3.5073545994   -1.2235306951    0.0248914419
 C   -2.6662235694   -2.5026452436    0.0153882994
 C   -1.2192603935   -2.0348968833    0.0051904300
 O   -0.2303203300   -2.7218277656   -0.0039460419
 H    1.0970079801    1.5860325142   -0.0012709560
 H    0.8452834036   -0.6655798491   -0.0075855553
 H   -4.1436231925   -1.1257594684    0.9079550934
 H   -4.1571296079   -1.1216025034   -0.8478030734
 H   -2.8188232608   -3.1364015209    0.8928943697
 H   -2.8325123267   -3.1324702771   -0.8624503761