23

 C    0.0067781941    1.5656243530   -0.0533669680
 C    0.0460479321    0.0285408934    0.0232273536
 C    0.6543105809   -0.5456415419   -1.2677537122
 C    0.9630849910   -2.0309226053   -1.1464074795
 O    1.4232035998   -2.4800844039   -2.4152047554
 C    1.9983415765   -2.2498795271   -0.0395522707
 C    1.6308758445   -1.4989725498    1.2131723329
 C    0.7592003504   -0.4866547296    1.2664616951
 C    0.4057639412    0.1618365131    2.5810407013
 H    1.0194461402    1.9841708212   -0.0475567243
 H   -0.4807864246    1.8844122011   -0.9803738785
 H   -0.5463999707    2.0069964274    0.7798599478
 H   -1.0000626868   -0.3132926087    0.0905228525
 H   -0.0235228381   -0.3791389055   -2.1116261372
 H    1.5889510335   -0.0193256776   -1.5028987597
 H    0.0361382291   -2.5621695790   -0.8697934834
 H    1.6585900018   -3.4098162348   -2.3325001846
 H    2.0949909092   -3.3216858724    0.1846076332
 H    2.9809314141   -1.9305019480   -0.4170159054
 H    2.1052664816   -1.8309089041    2.1348084808
 H    0.8791688399   -0.3583441052    3.4178039553
 H    0.7166634404    1.2123302974    2.6193408722
 H   -0.6796057701    0.1529332162    2.7478992943