20

 C    0.1792063108    1.5670715794   -0.2212009765
 C   -0.0224168921    0.0600079205    0.0310264308
 C    0.6378121184   -0.4599835166    1.2650865741
 C    0.1032982619   -0.8120917628    2.4876544034
 N   -1.2780130918   -0.7767457935    2.8135267940
 C    1.1677498316   -1.2842644359    3.3162380226
 C    2.3297477676   -1.1952618099    2.5797865340
 N    3.6843495373   -1.4623515213    2.8792668397
 N    2.0039467001   -0.6884006698    1.3514482510
 H    1.2410755238    1.8136916306   -0.3292666527
 H   -0.3327177359    1.8869189719   -1.1352119959
 H   -0.2093297383    2.1592029007    0.6134717671
 H   -1.0933155163   -0.1558351099    0.1161269805
 H    0.3309862329   -0.4975545945   -0.8481268490
 H   -1.6527879150    0.1649472953    2.7903365973
 H   -1.4390884775   -1.1435141699    3.7433372461
 H    1.0822205523   -1.6649547558    4.3238662271
 H    3.8315910894   -1.4633738309    3.8813613158
 H    3.9829909849   -2.3692942760    2.5296305282
 H    2.6872025657   -0.4346412315    0.6590942525