23

 C    0.6807616297    0.1572116575   -1.3754900442
 C    0.0516144314    0.0679914776    0.0056978180
 C    0.9313905061   -0.4882139761    1.1059331787
 C    0.5932161034    0.9792387273    1.0864179185
 C   -1.3932805462   -0.3789610455   -0.0038706038
 C   -2.5864443717    0.2052988062    0.7142515879
 C   -2.6261827852    1.7418612221    0.7224026217
 C   -2.4862662002    1.7475413381   -0.8302757762
 C   -2.5090835103    0.2114125300   -0.8230891732
 H    1.7426310657    0.4163682828   -1.3116851068
 H    0.6038114168   -0.8018260910   -1.9014776038
 H    0.1871652860    0.9119756009   -1.9965839311
 H    0.4602445584   -1.0991383992    1.8692553564
 H    1.9398392420   -0.7947000585    0.8479793014
 H    1.3697866842    1.6857045188    0.8108440593
 H   -0.0801584664    1.3382324900    1.8539410732
 H   -1.4674493984   -1.4675372253   -0.0175407074
 H   -3.1992528685   -0.4186166645    1.3555304153
 H   -3.6080736078    2.1071010155    1.0332906970
 H   -1.8672128435    2.2730663340    1.2999105088
 H   -3.3559999916    2.1845532670   -1.3254668083
 H   -1.5863679412    2.2150775018   -1.2402458302
 H   -3.0620671129   -0.3959327294   -1.5305571111