17

 O   -0.1528878328    0.1799472928    0.4836492068
 C   -0.0300342329    1.2563128963   -0.0351838234
 C    1.3173549266    1.9966848895   -0.0900722604
 C    1.3851084868    2.8924988948   -1.2353210096
 C    1.4131063959    3.6217765789   -2.1904680116
 C    1.5142411439    2.7203165943    1.2650257212
 C    2.6656233670    3.7390225085    1.3930787238
 C    1.5385038210    4.7519533641    1.6823624039
 O    0.5237401192    3.7404978128    1.4846270427
 H   -0.8834407540    1.8008240836   -0.4867464092
 H    2.0943397785    1.2242938512   -0.1541382751
 H    1.4426564386    4.2618301526   -3.0376542537
 H    1.4817771942    1.9540143652    2.0499302894
 H    3.3655557425    3.5516983592    2.2079774757
 H    3.2145149084    3.9204011357    0.4684787655
 H    1.5150388012    5.1534214551    2.7021249576
 H    1.4335732958    5.5733941054    0.9660209666