18

 O    0.0567304198    1.2765994580    0.3863529197
 C   -0.0111797563   -0.0258419965   -0.1635116713
 C   -1.4284572165   -0.5471102439   -0.1570167837
 C   -2.5076087014    0.2013179122   -0.8683741170
 C   -3.6655765245   -0.0199611263   -0.2468159301
 C   -3.4205619055   -1.0352467912    0.8407924600
 C   -3.1210109860   -2.4199397739    0.1729417338
 C   -1.6629531576   -1.9952180972    0.1972259124
 N   -1.9320633152   -0.9000635183    1.1982682371
 H   -0.3951460983    1.2270407153    1.2376104317
 H    0.3629254443    0.0493064627   -1.1905422018
 H    0.6402740679   -0.7290736846    0.3777672226
 H   -2.3306669569    0.8041369821   -1.7491531131
 H   -4.6478538436    0.3259635450   -0.5425629243
 H   -4.0891121045   -1.0226863918    1.7003601833
 H   -3.2814277232   -3.2403206649    0.8758778441
 H   -3.6015717560   -2.6486369824   -0.7823606501
 H   -0.8233790366   -2.6765475443    0.3068073765