18

 C   -0.0086633526    1.5673665778   -0.1268915317
 C   -0.0032280542    0.0695641248    0.0165091159
 O    1.2827812399   -0.5917626520   -0.0839590865
 C    0.6107677269   -0.6187609634    1.1481239346
 C    1.1468783295   -0.1000843463    2.4817401525
 N    0.3554708114   -1.1635614242    3.1579004588
 C    0.1692530129   -1.9087501236    1.8753731359
 C   -1.1550212140   -2.4515190656    1.6278819176
 C   -2.2452427113   -2.9019697312    1.3951077004
 H    0.8095733927    2.0196515414    0.4394046310
 H    0.1027541070    1.8535981515   -1.1776795017
 H   -0.9565623539    1.9792794260    0.2356165441
 H   -0.7994329193   -0.4624382774   -0.5051748297
 H    2.2374530400   -0.2145039322    2.5484810445
 H    0.8745255466    0.9172093943    2.7808874833
 H    0.8612999260   -1.6864400177    3.8639305706
 H    0.9262620264   -2.6897971665    1.7074534935
 H   -3.2110117342   -3.2989824658    1.2016321270