21

 C    0.0170515546    1.4911927354   -0.0630220131
 C   -0.0199498240   -0.0435524929   -0.0351589374
 O    0.6252044780   -0.5451534594    1.1394293793
 C   -1.4139926527   -0.5749463244   -0.0251765980
 C   -2.1157470920   -1.2286142723   -0.9560776755
 C   -3.4788709203   -1.4543206518   -0.2863978930
 C   -3.7106526526   -0.0467861004    0.3653939311
 C   -2.4116144270   -0.4569771696    1.1428450959
 C   -3.0103567830   -1.9052897452    1.1411177040
 H    1.0532681067    1.8512225561   -0.0494846549
 H   -0.4598273941    1.8746859171   -0.9697505328
 H   -0.5009811127    1.9046387709    0.8075123239
 H    0.4878025402   -0.4227636849   -0.9370409932
 H    1.4800824938   -0.1082041819    1.2122925714
 H   -1.8212320408   -1.5438178049   -1.9477318948
 H   -4.2555390192   -1.9784271060   -0.8428937864
 H   -3.6551521338    0.8265791110   -0.2895333110
 H   -4.6013230908   -0.0017823822    1.0007106239
 H   -2.0829898555    0.0387784153    2.0546735742
 H   -3.8353555645   -2.0340756525    1.8493947824
 H   -2.3063139803   -2.7379278475    1.2020316839