18

 C    0.0942856142    1.5506756992    0.0381582094
 C   -0.0284447227    0.0281446730   -0.0271235583
 C   -1.4866666562   -0.4992411435   -0.0117834271
 N   -2.2081942082    0.0314080098   -1.1643556942
 C   -1.4362910217   -2.0685101614    0.0450018476
 C   -2.7543854883   -2.6720134677   -0.1186658781
 N   -3.8091877374   -3.1166534014   -0.2763036366
 C   -2.1663450195   -0.0244438148    1.2117072077
 N   -2.6749156889    0.3257554250    2.1877428178
 H    1.1455672287    1.8450220521   -0.0247175886
 H   -0.4504270936    2.0215851102   -0.7826586450
 H   -0.3092726123    1.9380354134    0.9779727459
 H    0.4320746651   -0.3496768560   -0.9494924359
 H    0.5140219640   -0.4335951551    0.8050748379
 H   -1.7576772684   -0.2732954278   -2.0225280095
 H   -3.1656241999   -0.3080997728   -1.1817124376
 H   -0.7871278359   -2.4174162782   -0.7660476009
 H   -0.9934895390   -2.4055482440    0.9878786855