23

 C    0.0679921252    1.4984282556   -0.0745951441
 C    0.0521144440   -0.0288901169    0.0717987110
 C    0.7624522828   -0.4647660322    1.3609586168
 C   -1.3763775854   -0.5736707045    0.0215815540
 C   -2.1942583544   -0.4523160667   -1.3197484352
 C   -2.3440041377   -1.9845563313   -1.3207566165
 C   -3.4384720360   -2.8138691514   -1.9081349588
 O   -1.0068196646   -2.5143937041   -1.3389658324
 C   -1.5593960638   -2.1000838262   -0.0789702408
 H    1.0938223175    1.8816435138   -0.0813302308
 H   -0.4147012181    1.8213575630   -1.0024987523
 H   -0.4588934952    1.9785341448    0.7592927201
 H    0.5900621124   -0.4650466107   -0.7794173526
 H    0.2517809616   -0.0663723895    2.2464713385
 H    0.7942465457   -1.5549778055    1.4543480336
 H    1.7944612792   -0.0996358878    1.3835960672
 H   -1.9622952401   -0.1735442999    0.8582147811
 H   -3.1393063462    0.0822425125   -1.1955146555
 H   -1.6590348025   -0.0492325815   -2.1838729375
 H   -3.4121341033   -2.7738681632   -3.0032479157
 H   -3.3320520385   -3.8586156311   -1.6039191324
 H   -4.4190250408   -2.4503383663   -1.5837201680
 H   -1.5882491317   -2.8439329309    0.7105504102