17

 C   -0.0690458130    1.4121959355    0.2368531539
 C   -0.0047519766   -0.0645703465    0.0364010271
 C   -0.1161654200   -0.7305747785   -1.1256009780
 C   -0.0028600428   -2.1820416803   -0.9247362230
 O   -0.0465333244   -3.0669908439   -1.7465408023
 C    0.1762444294   -2.4016756695    0.6077352241
 C    0.2022083903   -0.9961774201    1.2126634855
 C   -0.9416577484   -3.2987228746    1.1090572909
 O   -1.7314702343   -2.9969268273    1.9664573605
 H    0.8515871585    1.7779627444    0.7084054563
 H   -0.2159395803    1.9494064720   -0.7025997623
 H   -0.8881340663    1.6701891758    0.9194842163
 H   -0.2691681453   -0.2959711070   -2.1054583063
 H    1.1111369256   -2.9598254408    0.7390621305
 H    1.1475779559   -0.7728098465    1.7210065627
 H   -0.5928157577   -0.8769065901    1.9576116005
 H   -0.9875310607   -4.2786609326    0.5911813637