21

 C   -0.1484527469    1.5508377803   -0.0938820020
 C   -0.0767627028    0.0407822328   -0.2413042065
 O   -1.2526548469   -0.5166200818    0.3310802622
 C   -1.3483607246   -1.8979900710    0.2110501393
 C   -1.6946754654   -2.5226032839   -1.1260123273
 C   -2.6914499981   -2.5658861449    0.0163769834
 C   -2.7272914512   -3.8060578692    0.9063424569
 C   -1.3427698950   -3.8379410910    1.5235595660
 C   -0.6054250968   -2.7867159390    1.1613077685
 H    0.7424492951    2.0186332853   -0.5236545090
 H   -1.0304886463    1.9444514871   -0.6071962700
 H   -0.2139852766    1.8317357897    0.9611012276
 H   -0.0030393436   -0.2469777360   -1.3010609488
 H    0.8193161818   -0.3521822797    0.2640695429
 H   -1.9406214439   -1.8384721576   -1.9321315905
 H   -1.1841296175   -3.4309540417   -1.4308040161
 H   -3.5790065042   -1.9535546580   -0.0851096745
 H   -3.5070533651   -3.7347691611    1.6762669001
 H   -2.9412504964   -4.7188828441    0.3350995459
 H   -1.0082743610   -4.6499391741    2.1596273607
 H    0.4119652452   -2.5862328920    1.4766483513