21

 C   -0.0546486089    1.5381228312   -0.0333203113
 C   -0.0340220295    0.0203294731   -0.0134898575
 C   -1.2564384922   -0.6365450237   -0.6289029677
 C    1.3188233278   -0.6728955255   -0.2121424456
 C    0.6546945330   -0.6703409662    1.1186059798
 C    1.1397571386   -0.2669879099    2.5200251916
 C   -0.2210634769   -0.7292873136    3.1009354428
 C    0.2948346042   -1.7958566679    2.1012909476
 O    1.6453135070   -1.6518860065    2.7035234227
 H    0.8486201849    1.9584889494    0.4191091467
 H   -0.1191891447    1.9141072787   -1.0612440888
 H   -0.9182257197    1.9313263800    0.5163867005
 H   -1.3680957827   -0.3456944140   -1.6801384205
 H   -1.1886037081   -1.7279769149   -0.5905758133
 H   -2.1732647662   -0.3397635923   -0.1055457569
 H    1.3386159296   -1.5993574105   -0.7783858948
 H    2.1958261346   -0.0482139074   -0.3535460536
 H    1.7889936938    0.5516617612    2.8310714807
 H   -0.1922523834   -1.0321126142    4.1484678386
 H   -1.1158192217   -0.1615996587    2.8336531380
 H   -0.0669050795   -2.8065478686    1.9113100911