18

 C    0.3730212663    1.4201666737    0.0350845376
 O    1.1927670169    0.2804079658   -0.2391734799
 C   -0.1925703810    0.0649576144    0.0477474107
 C   -0.5331946442   -0.7020933517    1.3053952397
 C   -0.2145590862   -2.2247354166    1.1978862501
 C    0.5778625446   -2.5225894872    2.4909737790
 O    0.3039494999   -1.4477480711    3.3781214703
 C    0.2446841869   -0.2848660629    2.5715798078
 H    0.5852900493    1.9303047868    0.9732378829
 H    0.1867823709    2.0761920172   -0.8140071393
 H   -0.7717739849   -0.2331713335   -0.8286674790
 H   -1.6057888491   -0.5721150016    1.4872337310
 H   -1.1327942880   -2.8140422865    1.1455988789
 H    0.3787540948   -2.4490885293    0.3078877279
 H    0.2811085669   -3.4498717504    2.9875199478
 H    1.6566007273   -2.5749399364    2.2755532054
 H    1.2566329373    0.0505458274    2.2947481306
 H   -0.2465587576    0.5000566518    3.1517793785