17

 O   -0.3464611284    1.6127509813   -0.6643572713
 C   -0.1648274475    0.2922573315   -0.1902263010
 C   -1.4604876969   -0.4885700478   -0.2940940932
 O   -1.9650678400   -0.5907160840   -1.6676239498
 C   -2.2423247429   -1.9797733881   -1.4641358707
 C   -0.9729370554   -2.7771213563   -1.3240084337
 C    0.2625910335   -2.4744945620   -2.0944550400
 O    1.1396138329   -3.2842330235   -2.2796881725
 C   -1.5605547170   -1.9999453272   -0.1276253559
 H   -0.6612878049    1.5431855374   -1.5731780240
 H    0.6493016229   -0.2220122694   -0.7187969471
 H    0.1231813875    0.3688722977    0.8643305935
 H   -2.2279350932    0.0129695631    0.3090586897
 H   -3.1864872772   -2.3697481904   -1.8250912170
 H   -1.1280846710   -3.8446120858   -1.1893391757
 H    0.3121217404   -1.4595339951   -2.5349282439
 H   -1.8116825227   -2.5245781614    0.7833220726