21

 C   -0.1055748640    1.5660203812   -0.0167774927
 C    0.0093498681    0.0391725421   -0.0362826552
 O    0.7196627672   -0.4060678497   -1.1852379792
 C    0.6726854214   -0.5368330923    1.2227404195
 O    2.0082874603   -0.0087200257    1.1994760814
 C   -0.0169556740   -0.1734516306    2.5660491120
 C    0.2601374365   -1.3800924919    3.4321318010
 C    0.6661128955   -2.4234702002    2.7071162841
 C    0.7306019853   -2.0908418694    1.2357057247
 H    0.8777602199    2.0213658266    0.1301961054
 H   -0.5123584184    1.9106511014   -0.9708931939
 H   -0.7660299342    1.9117997328    0.7850210107
 H   -0.9922914102   -0.3990148965   -0.1204728027
 H    1.6472905379   -0.2056926100   -1.0065254944
 H    2.5051489302   -0.4409296698    1.9024321469
 H    0.3842573262    0.7648372205    2.9622903095
 H   -1.0991787845   -0.0293090356    2.4370876639
 H    0.1055919099   -1.3812084404    4.5054431550
 H    0.8935381219   -3.4087111032    3.0990947949
 H   -0.1190167124   -2.5267840431    0.6936983613
 H    1.6336610875   -2.4485127164    0.7315395078