25

 C   -0.0883171597    1.4975317643    0.1840863794
 C    0.0573980900   -0.0140423519   -0.0231167422
 C    0.7231292395   -0.4670374714   -1.3456378904
 C    0.0297424578    0.1396311644   -2.5712350900
 C    2.2393139296   -0.1480189728   -1.3225380277
 O    2.8534976037   -1.2345635009   -0.6567020764
 C    2.2400335044   -2.4088163545   -1.1855001567
 C    2.4972295528   -3.5707723624   -0.2425962834
 C    0.7533186840   -2.0278235178   -1.3923602392
 H    0.8737906913    2.0173927172    0.1247637482
 H   -0.7554443676    1.9488700326   -0.5565761698
 H   -0.5084140674    1.7070560620    1.1728269814
 H    0.6409476053   -0.4394914414    0.8026961163
 H   -0.9371341232   -0.4754345916    0.0362422805
 H    0.1391848919    1.2285549918   -2.6037782837
 H    0.4547268681   -0.2608481251   -3.4977721667
 H   -1.0428345950   -0.0846197570   -2.5717601705
 H    2.6254399281   -0.0554460195   -2.3528265145
 H    2.4939664883    0.7666407286   -0.7810997074
 H    2.6945065550   -2.6288562735   -2.1674240167
 H    2.0518696851   -3.3720734329    0.7373962714
 H    2.0617300388   -4.4920725631   -0.6419658602
 H    3.5712045263   -3.7279155594   -0.1080396044
 H    0.1318275663   -2.4517259241   -0.5971579807
 H    0.3732738665   -2.4144685215   -2.3421008967