19

 C   -0.2149664073    1.4787903933    0.1417361580
 C    1.1740339684    0.9566175067   -0.1292048586
 C    0.0330085467   -0.0040241290    0.0005587596
 C   -0.1446418903   -0.9570825721    1.1711534058
 O   -1.3072938043   -1.7121564778    0.8452613444
 C   -1.2704761753   -1.9597424296   -0.5518543173
 C   -0.4933930950   -0.7937096811   -1.1757769928
 C   -0.7330564508   -0.2728777677   -2.5222048506
 O    0.3909574664   -1.1199561726   -2.2553471038
 H   -0.4365214908    1.8593664944    1.1338704369
 H   -0.7391173037    1.9904010567   -0.6584115107
 H    1.5974848786    1.0870401877   -1.1196418325
 H    1.9028885336    0.9911771342    0.6741969973
 H    0.7318527343   -1.6189522493    1.2754189790
 H   -0.3216662627   -0.4592077784    2.1281905437
 H   -0.7404575324   -2.8962000368   -0.7858835400
 H   -2.3011823712   -2.0411844994   -0.9083479005
 H   -1.5172898090   -0.7108415150   -3.1397020999
 H   -0.4906245753    0.7624458860   -2.7627371580