20

 N    0.1921507535    1.3031544686   -0.3492964711
 C    0.0201539622   -0.1468660624   -0.2636726824
 C   -1.4492896381   -0.4595034770    0.0993282916
 N   -2.3261864296    0.0874215630   -0.9266327868
 C   -3.7455296752    0.1541269577   -0.5731403597
 C   -4.5359160286    0.5450330847   -1.8205188981
 O   -4.3215141641   -0.3711150125   -2.8710795804
 C   -1.6340318554   -1.9140141385    0.2284712967
 N   -1.7605472057   -3.0560878599    0.3479560243
 H    0.3312101275    1.7042962889    0.5728009544
 H    1.0143889585    1.5316502848   -0.8958164009
 H    0.2210625937   -0.5793424859   -1.2479428856
 H    0.6782033760   -0.6447441278    0.4618321819
 H   -1.6509687169   -0.0277613043    1.0990540596
 H   -1.9641181605    1.0170064779   -1.1312615036
 H   -4.0638779026   -0.8434913201   -0.2501526004
 H   -3.9540171528    0.8573137409    0.2523175948
 H   -5.6080336314    0.5521368074   -1.5970972260
 H   -4.2580120694    1.5727968884   -2.1181954649
 H   -3.3798225809   -0.5864020739   -2.8300797535