20

 C   -0.1999694163    1.4453444089   -0.1211072297
 N   -0.2102716823    0.0084165959   -0.3055286262
 C    0.8279060834   -0.6634333968   -0.8878414222
 O    1.8216993472   -0.1024101104   -1.3267204509
 C    0.6586652359   -2.1404162804   -0.9630950324
 C    1.8883133997   -3.0198903479   -0.9124172775
 C    1.0709553786   -3.0288117792   -2.1575411348
 C   -0.1881274551   -3.8827986008   -1.9689889700
 C   -0.6072919279   -2.9875948005   -0.7549256471
 H    0.6984398476    1.8255915457   -0.6086606200
 H   -1.0814487758    1.9109533231   -0.5758281443
 H   -0.1701013650    1.7172311057    0.9407287662
 H   -0.9687145365   -0.5252032489    0.0839202224
 H    2.8157773377   -2.4619811562   -0.9691631440
 H    1.8958227330   -3.8831783510   -0.2501679424
 H    1.4729387149   -2.6848558146   -3.1021096972
 H   -0.8922619928   -3.8055514290   -2.7995038915
 H   -0.0131631234   -4.9423377703   -1.7563014345
 H   -0.7013154385   -3.4822331631    0.2177184349
 H   -1.5327409944   -2.4429831203   -0.9614461586