20

 C    0.0313818663    1.5398079508    0.1296192074
 C   -0.0285215676    0.0090862370   -0.0375775584
 C   -1.4178699296   -0.5515769984   -0.0454218703
 C   -2.2266153341   -0.8633152241   -1.1240887082
 C   -3.4637958515   -1.3313674678   -0.6079683408
 O   -4.5655682588   -1.7445414365   -1.3040047982
 C   -3.3858948570   -1.2976063360    0.7631905892
 N   -2.1343474784   -0.8082415208    1.0983832021
 C   -1.6313376880   -0.7604797098    2.4542262305
 H    1.0664317823    1.8963178571    0.1025417291
 H   -0.5242974915    2.0348165041   -0.6721510320
 H   -0.4096005418    1.8599468746    1.0791955632
 H    0.4466674214   -0.2627733086   -0.9859747823
 H    0.5751682323   -0.4668088785    0.7456195958
 H   -1.9576256200   -0.7506860938   -2.1649561781
 H   -4.3687035401   -1.6783561789   -2.2423614130
 H   -4.1015672558   -1.5775285964    1.5175754409
 H   -1.0565610516   -1.6587981459    2.7130946839
 H   -0.9921642194    0.1132979358    2.5993369100
 H   -2.4741495572   -0.6808654440    3.1442414394