20

 C    1.3408502365    0.9236777431   -0.1017767815
 C    0.3885607090   -0.2560429344   -0.1186111468
 O    0.6640182444   -1.0248458337   -1.3087399885
 C   -0.0796069250   -2.1401334124   -1.4758155206
 O   -0.9519048485   -2.4848583467   -0.7205030427
 C    0.3738582991   -2.8976296208   -2.7107214902
 C    1.5943881517   -3.7501532718   -2.4017155305
 C    2.6872038915   -3.8778144782   -3.3968054212
 N    2.8948829272   -3.1127953644   -2.1552284500
 H    2.3809193739    0.5862568048   -0.0782964083
 H    1.2012211494    1.5523032371   -0.9858532492
 H    1.1578242909    1.5347246783    0.7870229072
 H    0.5177496808   -0.9018326980    0.7551986908
 H   -0.6587114005    0.0610870441   -0.1402256763
 H   -0.4547873508   -3.5299592386   -3.0393524450
 H    0.6128771193   -2.1825989215   -3.5042557141
 H    1.3928190968   -4.5899548090   -1.7399236923
 H    3.2576209857   -4.7994990876   -3.4683724440
 H    2.5806708086   -3.3385271955   -4.3351156857
 H    2.8201099500   -2.1142594547   -2.3352625014