19

 C    0.0622325912    1.4161866382    0.1563125910
 N    0.2357585035   -0.0148189770    0.0036042203
 C    0.3803201568   -0.6139701761   -1.2142190478
 O    0.4079843359    0.0095978264   -2.2622293419
 C    0.4845463808   -2.1347944646   -1.1670064558
 C    1.3189789530   -2.6760195004   -2.3206133947
 O    1.2771823170   -4.0858032026   -2.2611757615
 C    2.0036290766   -4.6936377776   -3.3014933969
 H    0.8560854829    1.8505784909    0.7740646978
 H    0.1066950056    1.8544030390   -0.8413027267
 H   -0.9057867630    1.6573196011    0.6102031200
 H    0.2232756788   -0.5951940977    0.8254440499
 H    0.8971136032   -2.4784590388   -0.2121904374
 H   -0.5272862475   -2.5520780481   -1.2430644356
 H    0.9165487666   -2.3022768494   -3.2724975233
 H    2.3587283199   -2.3153543084   -2.2462431702
 H    1.6132520248   -4.4118305967   -4.2922295963
 H    3.0715318128   -4.4240849025   -3.2673622888
 H    1.9094823611   -5.7755657057   -3.1791769722