15

 N   -0.0448716406    1.2541284979    0.1239893110
 C   -0.0393072816    0.0028482243    0.0252235535
 C   -1.2581446485   -0.8947014065   -0.0307028368
 C   -0.6647564679   -2.2893029791   -0.0038331939
 C   -1.2186458481   -3.4426408486    0.7631070749
 N   -1.2303305769   -3.4539243529   -0.6998211722
 C    0.8270264149   -2.1217647547   -0.0952329886
 O    1.6820618774   -2.9461788504   -0.1570936389
 O    1.1125576347   -0.7647863861   -0.0560460493
 H    0.9052988053    1.6280857390    0.1348300995
 H   -1.9290662950   -0.6733152325    0.8018914931
 H   -1.8045327242   -0.6959999261   -0.9591513365
 H   -0.5288392217   -4.1489113941    1.2150843612
 H   -2.1458234610   -3.2733782667    1.3047814032
 H   -2.1560016869   -3.2116820835   -1.0474231502