20

 C   -0.1120966955    1.5902498014    0.0016320300
 C    0.0231166212    0.0646808869   -0.0264005180
 C    0.7904813066   -0.4827280363   -1.2458797173
 C    2.2813078941   -0.1149192183   -1.2010437250
 C    0.5731985969   -2.0203826771   -1.3336028490
 O   -0.7912745175   -2.3456552283   -1.3264534668
 C    1.2237141954   -2.6257638976   -2.5626908219
 O    0.5731519342   -3.2139152830   -3.3950326813
 H    0.8555271166    2.0970577301    0.0720440561
 H   -0.6150536995    1.9576440893   -0.8999841059
 H   -0.7075177618    1.9072187959    0.8634356866
 H    0.5231739625   -0.2810750323    0.8895050393
 H   -0.9734885986   -0.3840459157   -0.0253778976
 H    0.3402826503   -0.0507583183   -2.1508197347
 H    2.8082787697   -0.3703859741   -2.1248093313
 H    2.4103645026    0.9596254512   -1.0496013158
 H    2.7871752112   -0.6255953674   -0.3725611363
 H    1.0757517748   -2.4757230526   -0.4587068327
 H   -0.9472599231   -2.8279533249   -2.1542663761
 H    2.3198560797   -2.5170574790   -2.6637963723