21

 C   -0.0790358620    1.4171730323    0.0598109689
 N   -0.0207199188   -0.0321026627    0.0578818328
 C    0.6019979501   -0.5917293053   -0.9118039620
 N    1.2565848584    0.0038315852   -1.9532846929
 C    0.6882174609   -2.1097259498   -0.9553684860
 O    1.2493000446   -2.6342934244   -1.8971435515
 C    0.0355909415   -2.8997869774    0.1656527059
 C   -1.4671546321   -3.0589749555   -0.1569031495
 C    0.7221302637   -4.2565036115    0.3488849139
 H    0.9246385092    1.8707715046    0.0457747491
 H   -0.6265606389    1.8129506412   -0.8119120795
 H   -0.5959320039    1.7643926620    0.9573359505
 H    1.0522493845    0.9563814856   -2.1992946525
 H    1.5584770208   -0.6221738099   -2.6852029073
 H    0.1119655090   -2.2985627968    1.0752945877
 H   -1.9525549643   -2.0846600469   -0.2459813535
 H   -1.6086122159   -3.6127795277   -1.0912439832
 H   -1.9600613122   -3.6166287211    0.6453519488
 H    1.7761475937   -4.1383830264    0.6178175700
 H    0.2294197598   -4.8244931601    1.1436767515
 H    0.6799894819   -4.8405993754   -0.5742263912