18

 N    0.6139899347    0.2243453731   -0.8038111587
 C    0.1412541407    0.0142005446    0.4531444894
 O    0.6544889354    0.4900618970    1.4488330177
 C   -1.1131682336   -0.8661445547    0.5380021766
 C   -1.0057761363   -2.2221265337   -0.1648628502
 C   -2.1805065851   -3.2506328075   -0.0439107541
 C   -2.1031218679   -3.5359127052   -1.5745379827
 C   -1.2122719791   -2.2976928681   -1.6871471885
 O   -0.9144499806   -1.5675477943   -2.5957791160
 H    1.4284761370    0.8074982711   -0.9039797519
 H    0.1778553036   -0.1782608904   -1.6236786809
 H   -1.3027108274   -1.0172442629    1.6028699620
 H   -1.9651331372   -0.3087836215    0.1275094895
 H   -0.0547331919   -2.7078095800    0.0891640059
 H   -2.0064886134   -4.0985390019    0.6185085176
 H   -3.1178769497   -2.7649253619    0.2368691897
 H   -1.5506985859   -4.4495788918   -1.8170910749
 H   -3.0246103333   -3.5205219920   -2.1607953206