19

 C    0.0134669683    1.5369085121    0.2348304851
 C   -0.0272322234    0.0456990318   -0.1466520973
 C   -1.4030590499   -0.5351057828   -0.1040556251
 C   -2.1734880499   -1.0286517720   -1.0835124136
 C   -3.4555760969   -1.4526469979   -0.3995171338
 C   -3.7546478760   -0.4058774042    0.7306564326
 O   -4.2575780573   -1.4460822223    1.6360904744
 C   -3.0670914641   -2.0290490803    1.0069475515
 C   -2.2675837653   -0.6857017819    1.1421018308
 H    1.0390508795    1.9174517137    0.2073979810
 H   -0.5908471847    2.1318213479   -0.4568022768
 H   -0.3769189558    1.7001912332    1.2445422375
 H    0.3893047617   -0.0888655572   -1.1514003209
 H    0.6277793602   -0.5101216056    0.5391959640
 H   -1.9460007858   -1.1197731824   -2.1372924917
 H   -4.2855352138   -1.8973858087   -0.9457120091
 H   -4.3000087546    0.5402290945    0.6832049885
 H   -2.7805605825   -3.0442021048    1.2934860348
 H   -1.9189239596   -0.3718477730    2.1252123180