17

 O   -0.0723316315    1.3763204220   -0.1544161750
 C   -0.0295999012   -0.0190656176   -0.0808296114
 C   -0.4642949066   -0.7072875492    1.2082601716
 C   -1.3414290631   -0.7072029317   -0.0126885541
 C   -2.7473457566   -0.1657278802   -0.1085617662
 C   -3.2491685957   -0.7079341220   -1.4641539953
 O   -2.1732689562   -1.4037450866   -2.0954033990
 C   -1.8596097753   -1.9335537335   -0.7742324818
 C   -3.3123181164   -1.5815535992   -0.2625916982
 H    0.6788027435    1.7231232370    0.3385415383
 H    0.7667672937   -0.4921255267   -0.6569757668
 H    0.0385908145   -1.6247577985    1.5007585918
 H   -0.7531948468   -0.0626404598    2.0324730272
 H   -3.1848909515    0.6886853195    0.3891933471
 H   -4.0080823499   -0.2404462929   -2.0771687627
 H   -1.3472315916   -2.8934237755   -0.7923877217
 H   -4.0943640694   -2.1270316751    0.2461940363