20

 O   -0.2383555619    0.2148177154   -0.9551883826
 C   -0.1530724565    1.2763189754   -0.3790299602
 C   -1.1904526968    1.9316887066    0.5405625831
 C   -0.7189318655    3.3879890050    0.6836285692
 C   -1.5022243879    4.3812458888   -0.2340974257
 C   -2.3313139753    4.8189794476    1.0028372373
 C   -1.2486976709    4.1757257778    1.9112605469
 C    0.8034248267    3.2755749417    0.4722651098
 N    0.9227635715    2.1259977165   -0.4063253767
 H   -2.1978008546    1.8171346642    0.1355593251
 H   -1.1598446053    1.4019030268    1.5016253189
 H   -0.8581187823    5.1866445355   -0.5998907172
 H   -2.0404045515    3.9542683545   -1.0841298414
 H   -2.5193200533    5.8873121829    1.1267728743
 H   -3.2865151553    4.2914573001    1.0669672655
 H   -1.5835975942    3.5891397049    2.7712444909
 H   -0.5187974016    4.9142969245    2.2593740082
 H    1.2205367430    4.1788340717    0.0140689408
 H    1.3217401572    3.1161648337    1.4312473118
 H    1.7883864545    1.8317680864   -0.8301485078