20

 C    0.1511474040    1.5402189210    0.0722417374
 C    0.0392706991    0.0518305365   -0.0320430997
 C   -1.0601593118   -0.7107549982   -0.0792877837
 C   -2.4943753507   -0.2464554516   -0.0151161337
 C   -3.2626553906   -0.6315237512   -1.2046535122
 N   -3.8563640429   -0.9445590631   -2.1453870102
 C   -0.7346172632   -2.1884336911   -0.1343076471
 C    0.7784918225   -2.2066755453   -0.4522652590
 C    1.2905127197   -0.8048993124   -0.0459059924
 H    0.6928586549    1.8270488550    0.9827903422
 H    0.7258619816    1.9454549707   -0.7698957361
 H   -0.8175402549    2.0459259562    0.0874553213
 H   -2.9984540086   -0.6845038596    0.8579244578
 H   -2.5604130280    0.8395239339    0.0989492886
 H   -0.9585060172   -2.6643910302    0.8323506270
 H   -1.3293757688   -2.7232229592   -0.8832968096
 H    1.3090721130   -3.0169741268    0.0532166582
 H    0.9207930483   -2.3478574749   -1.5278610257
 H    2.0520890296   -0.4171214999   -0.7329983711
 H    1.7552914739   -0.8071090299    0.9512325680