16

 O    0.0867927683    1.3690525689   -0.0867401746
 C    0.0581687645    0.0047107112   -0.0021777319
 C    0.0190444596   -0.8290813712   -1.1017728639
 N   -0.0020326262   -2.1445300933   -0.6451265503
 C    0.0241456575   -2.1349900877    0.7108726942
 C    0.0616905184   -0.8252183994    1.1536954725
 C    0.0887508848   -0.8535723215    2.6153877024
 C    0.0682530916   -2.1347246627    3.0360125450
 C    0.0243665860   -3.1005678972    1.8551388765
 H    0.1116342797    1.7258112174    0.8050408110
 H    0.0045052794   -0.5952337160   -2.1525400284
 H   -0.0313296980   -2.9523319231   -1.2411916366
 H    0.1203202073    0.0138717996    3.2638690962
 H    0.0801862902   -2.4733954182    4.0630627521
 H   -0.8694903459   -3.7384234842    1.8911261912
 H    0.8896627226   -3.7776172226    1.8577782848