12

 C    0.0134113529    1.4520238295   -0.0435867086
 O    0.0071324858    0.0150462289   -0.0117155165
 C    0.5849499891   -0.6038282919   -1.0255289831
 C    0.7106627185   -1.9554337547   -1.2299288859
 O    1.3727914692   -2.1180707543   -2.3978908225
 N    1.6439425196   -0.8492070981   -2.8949739245
 N    1.1822471777    0.0175907171   -2.0905911841
 C    0.2992908155   -3.0750375020   -0.4873560564
 N   -0.0488148178   -3.9837701712    0.1405731432
 H    1.0383076974    1.8323013458   -0.0484253832
 H   -0.5153590880    1.8195981807   -0.9269528106
 H   -0.5025455098    1.7608382503    0.8644259123