18

 C   -0.0397329609    1.0365298884   -0.9772171997
 O   -1.1984688119    0.3094059144   -0.6312352456
 C   -1.1617150683   -0.2654445917    0.6558934584
 C   -0.4213513164   -1.6140638840    0.6727010279
 N   -0.3742624267   -2.1244642313    2.0294022524
 C   -0.9175242786   -3.2283008775    2.2585672905
 O   -0.9086270763   -3.7335144884    3.5323042940
 C   -1.5054692539   -4.9400658134    3.7480261950
 O   -1.5399948614   -5.4424698701    4.8251509980
 H   -0.2167228343    1.4699646597   -1.9645032713
 H    0.1546145885    1.8495824919   -0.2612041331
 H    0.8589824677    0.4046386721   -1.0319105259
 H   -0.7004524593    0.4125477949    1.3890709113
 H   -2.2026700885   -0.4244708288    0.9577293678
 H   -0.9095026352   -2.3007622532   -0.0374828838
 H    0.6105627259   -1.4647341793    0.3347166235
 H   -1.4192513937   -3.8686300111    1.5206748714
 H   -1.9376711768   -5.3773138128    2.8299405293