21

 O    0.1638563735    1.4053398313    0.1699678029
 C    0.0831274736   -0.0079800931    0.0465342323
 C   -1.3743327272   -0.5599593324    0.0085654109
 C   -1.2939326439   -1.8039706992   -0.8949232138
 C   -2.3554761186   -2.1253988903   -1.9610531854
 C   -1.5554984355   -2.9445362579   -3.0056519044
 C   -0.1176355116   -2.3352386268   -3.0132270591
 C   -0.0651640003   -1.5341821580   -1.7385274464
 C    0.6860648961   -0.5574445286   -1.2354226381
 H   -0.2277787098    1.7818504676   -0.6264313751
 H    0.6182123547   -0.3773608946    0.9318296056
 H   -1.7818067099   -0.7504384202    1.0046110861
 H   -2.0062085639    0.2024771833   -0.4654158474
 H   -1.1328172441   -2.7048644429   -0.2821663386
 H   -3.2254839932   -2.6678944867   -1.5802353235
 H   -2.7170979728   -1.1910030861   -2.4090595404
 H   -1.5093341943   -3.9920546827   -2.6882404793
 H   -2.0197870916   -2.9336271169   -3.9951693347
 H    0.6493278892   -3.1164924289   -3.0555769685
 H    0.0486334491   -1.6923954260   -3.8845693927
 H    1.6085217203   -0.1594789311   -1.6445949105