17

 C    0.0255550837    1.4803222960   -0.2197420807
 N    1.5033559486    1.5100169464    0.1378997079
 C    1.3683804167    0.1989525560    0.8465956522
 C    1.1512057205    0.1998892285    2.3479910117
 O    0.1410642555   -0.8331144081    2.4687648461
 C   -0.0747318621   -1.2352758046    1.1524555352
 C    1.3021789890   -1.2952440788    0.3514706181
 N    0.5697822724   -0.9425409095   -0.8945817364
 C    0.0004751009   -0.0189890443    0.1557904023
 H   -0.5357206516    2.1441611557    0.4427299124
 H   -0.2236784541    1.7115871683   -1.2599713672
 H    2.1168785115    1.5061375085   -0.6695603728
 H    2.0270638513   -0.0841788300    2.9422901180
 H    0.7587273017    1.1510144616    2.7233346557
 H   -0.8107359907   -2.0348524586    1.0854212970
 H    2.0444290658   -2.0989007435    0.3964255946
 H    1.1976974509   -0.4039469936   -1.4987013638