14

 N   -0.1442074998    1.3275240672    0.0224004574
 C    0.0867964011   -0.0008362051    0.0091479506
 O    1.1574617576   -0.5596278265    0.0114801159
 N   -1.1276762593   -0.7641604851   -0.0087056275
 C   -1.2344480698   -2.1258466137   -0.0345496813
 C   -2.5919715326   -2.3447753504   -0.0346316778
 N   -3.3208450360   -3.5222507046   -0.1177227487
 N   -3.2305990590   -1.1320908507   -0.0098721556
 N   -2.3435119903   -0.1836715232    0.0016428754
 H    0.6471504023    1.9455162301    0.0362196564
 H   -1.0880260661    1.6795229607    0.0192336332
 H   -0.3670916293   -2.7598163225   -0.0521670441
 H   -2.9114961310   -4.3030930528    0.3750303673
 H   -4.2846814378   -3.3823827036    0.1551612790