17

 N   -0.0008085989    1.3547568513    0.0795443536
 C   -0.0633151614   -0.0213912983    0.0949768159
 N   -1.1587705998   -0.6595312360   -0.0097680778
 C   -1.0952020286   -2.0872902611   -0.0047316310
 C   -0.2261100628   -2.8283418440   -1.0210380489
 C    0.1759910623   -2.7739602618    0.4182158492
 O    0.1544979299   -3.9845608226    1.1184113186
 C    1.2742669126   -1.8297699506    0.8675325008
 O    1.1915108929   -0.5436953295    0.2441087661
 H    0.8998067663    1.7359323223   -0.1652248758
 H   -0.7879211482    1.7925344794   -0.3735275221
 H   -2.0336797469   -2.5686974221    0.2524814939
 H   -0.5866239095   -3.7859656555   -1.3786525723
 H    0.3228004763   -2.2334995341   -1.7434145500
 H   -0.2205662339   -3.8195950801    1.9914274471
 H    1.2096659890   -1.7033676359    1.9587912669
 H    2.2683793808   -2.2164139614    0.6268727459