18

 O   -0.2461648117    1.3460622781    0.0232336313
 C   -0.0147771254   -0.0485413989    0.0940520421
 C    0.4865662111   -0.5619607992   -1.1985153792
 N    0.9187794952   -0.9386318348   -2.2021369407
 C    0.9385361580   -0.4507680770    1.2499447587
 C    0.3674903182   -0.0381029658    2.6343559447
 C   -0.1719456594   -1.3429271735    3.2782047518
 C    0.4694805886   -2.4290969441    2.4499718922
 C    1.0830828520   -1.9531298420    1.3680374827
 H    0.5918698476    1.7813780613   -0.1728897371
 H   -0.9970668982   -0.4979011732    0.2763634720
 H    1.9010247104    0.0378503684    1.0464298460
 H    1.1765736114    0.3679884716    3.2472139906
 H   -0.3879979499    0.7451866811    2.5421488074
 H    0.0879014213   -1.4155811695    4.3401795874
 H   -1.2673506135   -1.4122684666    3.2314909013
 H    0.4091164068   -3.4786311319    2.7169572724
 H    1.5934649376   -2.5454223241    0.6176356663