17

 C    0.0925021552    1.5172572491   -0.0086970907
 O    1.2262284630    0.6339152780   -0.0099159981
 C   -0.0773612700    0.0684162469    0.0261177007
 C   -0.4981135451   -0.7970230943    1.2234690796
 C   -1.1530287614   -1.9784096355    0.4694724762
 C   -2.4630223011   -1.4993207563   -0.1833456108
 O   -1.9693640285   -0.6551040306   -1.2388614196
 C   -0.5487416955   -0.7774138685   -1.1564859593
 O   -0.3212847467   -2.0946347587   -0.7024374902
 H   -0.0440669850    2.0988216502    0.9019006430
 H   -0.0762189673    2.0636002562   -0.9360228702
 H    0.3881133803   -1.1253054413    1.7713113259
 H   -1.1790970558   -0.2924645433    1.9128899072
 H   -1.1982387184   -2.9282768007    0.9983636815
 H   -3.0384932262   -2.3269113138   -0.6122695090
 H   -3.1013075698   -0.9238446759    0.4954566564
 H   -0.0852882777   -0.5883975015   -2.1233563924