16

 O   -0.0116802451   -0.1755100867   -0.0071543582
 C   -0.0269044982    1.0485566915   -0.0319558505
 N   -1.2237899152    1.7170750573    0.1549432318
 C   -1.5097394999    3.0993468789   -0.1574628642
 C   -0.6731576298    4.0884007563    0.6652563287
 N    0.6836168465    4.1977900504    0.1699478389
 C    1.4856717525    3.1376687219   -0.1332902224
 C    1.2073609297    1.8181335928   -0.2391466609
 H   -2.0032909792    1.0801266978    0.2191523856
 H   -1.3746958004    3.3270297716   -1.2248836079
 H   -2.5631493359    3.2709549760    0.0802347989
 H   -1.1251589542    5.0833356582    0.6008440487
 H   -0.6995955713    3.7706207352    1.7178129745
 H    1.1474479892    5.0758161911    0.3251727664
 H    2.5082968970    3.4447899935   -0.3387354795
 H    2.0398090143    1.1737683342   -0.4923659699