19

 C   -0.3458789487    1.6668246374    0.2695418470
 C   -0.0044411635    0.1898950174    0.1484639551
 C   -1.2494674446   -0.6424348964   -0.2671867895
 C   -1.6796885045   -0.3485437794   -1.6319316424
 N   -1.9792109850   -0.1057215096   -2.7218793126
 N    1.2041635909   -0.1002218484   -0.6592734825
 C    1.6614724542   -1.1319382055    0.2955953431
 C    0.7178042629   -0.5099936667    1.3592987827
 O    1.3260851947    0.3400077705    2.2942230385
 H    0.5294462607    2.2401293670    0.5799839809
 H   -0.6820795027    2.0627747740   -0.6943174910
 H   -1.1408428438    1.8289158889    1.0048041877
 H   -1.0286880972   -1.7140186147   -0.2027101674
 H   -2.0800120369   -0.4462555605    0.4205814848
 H    1.0557268794   -0.3803189083   -1.6234760229
 H    1.4013088353   -2.1682431378    0.0382131878
 H    2.7304719124   -1.0930250784    0.5328238240
 H    0.1004422105   -1.2010070413    1.9375666630
 H    1.9596009158    0.8957221217    1.8263064335