22

 C   -0.0343101088    1.5285110752    0.0105825413
 C    1.4267726797    2.0676019670   -0.0004827256
 C    2.4156145087    0.8863791230   -0.0162844414
 C    2.1918689390    0.0196085599    1.2375086360
 C    0.7306377751   -0.5195436868    1.2485646452
 C   -0.0191224051   -0.0119554517    0.0021417795
 C    0.7065651847   -0.5059314994   -1.2637660186
 C    2.1678638094    0.0332370359   -1.2748252978
 H   -0.5729354714    1.8862078716    0.8951187976
 H   -0.5896353083    1.8956688860   -0.8596280865
 H    1.5989072597    2.7031573262   -0.8762088788
 H    1.6157424752    2.6937665826    0.8785377836
 H    3.4432573366    1.2655979171   -0.0240813385
 H    2.9105729743   -0.8073774547    1.2465287749
 H    2.3926809216    0.6135204013    2.1361049604
 H    0.7214728846   -1.6150928241    1.2630781305
 H    0.2042039556   -0.1939781803    2.1526703171
 H   -1.0467985252   -0.3910853433    0.0098992435
 H    0.6971772102   -1.6012647411   -1.2895258594
 H    0.1629345116   -0.1707593593   -2.1540677439
 H    2.3516181287    0.6367947237   -2.1706287006
 H    2.8860516140   -0.7936458389   -1.3060973687