22

 C    0.0931091277    1.5945932631   -0.0469163801
 C    0.0916851212    0.0787308304    0.1526252110
 O    0.5917032603   -0.2691779136    1.4436301508
 C   -1.2873107739   -0.5447408547   -0.1027359549
 C   -1.2832983718   -2.0725330939   -0.0116136997
 C   -2.6755363942   -2.6873509374   -0.1757348353
 C   -2.6259575469   -4.2106827296   -0.2902610434
 N   -3.7116033265   -4.8634001525    0.2228487549
 O   -1.7004897416   -4.8040736531   -0.8090135960
 H    1.0842568607    2.0042720374    0.1656097160
 H   -0.1822137134    1.8616346367   -1.0723851813
 H   -0.6276427557    2.0763350834    0.6265783046
 H    0.8123143030   -0.3722547476   -0.5415657714
 H    0.0248449621    0.1562584772    2.0970506778
 H   -1.9994031108   -0.1225356995    0.6240884220
 H   -1.6428569202   -0.2288599725   -1.0929323414
 H   -0.6309280796   -2.4969028216   -0.7815264335
 H   -0.8546685872   -2.3722548874    0.9501634292
 H   -3.3384306528   -2.3846562242    0.6444105596
 H   -3.1404158608   -2.3151409838   -1.0998563088
 H   -4.5070340725   -4.3747509315    0.5932137177
 H   -3.7719040471   -5.8601617654    0.0933552019