19

 C   -0.9238213037    1.0515104470   -0.0663809487
 C   -0.0344385606   -0.1910610935   -0.0691219976
 C    1.0817730493   -0.2112003841   -1.1397056401
 O    1.6156715210    1.1124380474   -1.2760860106
 C    2.0912059222   -1.1652736028   -0.5378855202
 C    1.8876954977   -1.3312641565    0.7695711283
 C    0.7042311840   -0.5265885276    1.2652696513
 C    1.2161861504    0.7122956006    1.9969198978
 O    1.0082723716    0.9486810880    3.1589731793
 H   -0.3431418127    1.9662744613    0.0680502461
 H   -1.4622560993    1.1407998943   -1.0151912035
 H   -1.6660656384    0.9917832929    0.7359354942
 H   -0.6586899660   -1.0680938366   -0.2766844756
 H    0.6966798536   -0.5472359628   -2.1133149102
 H    2.4299570382    1.0564414201   -1.7863209762
 H    2.8983826361   -1.6091238697   -1.1115473214
 H    2.5038890073   -1.9229826321    1.4374995814
 H    0.0693392145   -1.0739908315    1.9684503450
 H    1.8268214145    1.3864082656    1.3592028407