21

 C    0.6437742951    0.7355156309    0.1998846479
 C    0.1935337062   -0.6687328443   -0.2272582592
 C   -1.2972375399   -0.9267144319   -0.0386625556
 C   -2.2188790407   -0.0539258734   -0.8717023745
 C   -1.7711542518   -2.3421913833    0.2279813456
 C   -0.8146167550   -3.4143900550    0.3458841408
 N   -0.0625704221   -4.2879222723    0.4520582548
 N   -1.8621185197   -1.2966601708    1.2572159794
 C   -1.0469109898   -1.4069787251    2.4616794966
 H    1.7229019759    0.8454041045    0.0590509722
 H    0.1544373211    1.5179385027   -0.3872591731
 H    0.4252444421    0.9247003189    1.2553751714
 H    0.4230932813   -0.8166621992   -1.2897504453
 H    0.7800691659   -1.4201695959    0.3069043174
 H   -1.9889747913   -0.1513207486   -1.9380679173
 H   -3.2621326890   -0.3324601222   -0.7078710710
 H   -2.1106529666    0.9995721832   -0.5963762573
 H   -2.7264360672   -2.6660230739   -0.1794130419
 H   -0.0393992098   -1.8148945375    2.3116816695
 H   -0.9616146353   -0.4136925544    2.9112810586
 H   -1.5697669995   -2.0558092625    3.1703937810