16

 C   -0.1082486356    1.5130424656    0.0510636349
 C   -0.0336508303    0.0230548981   -0.0244173605
 C   -0.0752914740   -0.7853996939   -1.0977353550
 C    0.1085150962   -2.2496268861   -0.7761858000
 C    0.0092393641   -2.2859103407    0.7582544673
 O    0.9437102783   -3.1288564538    1.3822229262
 C    0.2015948350   -0.8202075499    1.1683647593
 O    0.5465805818   -0.4757119672    2.2791912456
 H    0.7664161978    1.9092707440    0.5776743675
 H   -0.1597957102    1.9683571821   -0.9409597387
 H   -0.9854875518    1.8321905016    0.6251710140
 H   -0.2038146878   -0.4379600010   -2.1186089051
 H   -0.6273163684   -2.8843494174   -1.2801757678
 H    1.1007587704   -2.6007785112   -1.0843391720
 H   -1.0226553962   -2.5614428099    1.0413697309
 H    1.1567445607   -2.6998434203    2.2238551036