19

 C    0.0190662320    1.4375979445    0.0653549298
 N    0.0042944928   -0.0074057053    0.0161903762
 C    0.0116158189   -0.8008586597   -1.1251410889
 C    0.0062594777   -2.1305263775   -0.7527880641
 C    0.0053185195   -2.1540108322    0.6690520752
 C    0.0180083201   -0.8523399533    1.0857796979
 N   -0.0386245907   -0.6191615563    2.4770723491
 C   -0.3086310311   -1.9977007685    3.0072819586
 C    0.0235511525   -3.0434893634    1.8836910613
 H    1.0354499400    1.8443106519   -0.0069809152
 H   -0.5757897739    1.8435319416   -0.7568150378
 H   -0.4213808110    1.7631992554    1.0108606803
 H    0.0112141974   -0.3410051686   -2.1007132448
 H   -0.0075940981   -2.9669101967   -1.4354376284
 H    0.8479423524   -0.2727623756    2.8374084059
 H    0.2527060201   -2.1593563886    3.9308248648
 H   -1.3749410610   -2.0551016828    3.2490151034
 H   -0.7246591257   -3.8425334308    1.8781294182
 H    1.0001603779   -3.5242928742    2.0407232086