20

 C   -0.0729448241    1.4945857032   -0.0270516867
 C   -0.0071060089   -0.0273473694   -0.0729707008
 C    0.7817085252   -0.6123889906   -1.2522147476
 C    1.2356528019   -1.9869551762   -0.7261876904
 N    2.3379375781   -2.6680123978   -1.3824114013
 C    1.5784206502   -1.6488623152    0.7539894060
 N    0.6411174374   -0.5895263190    1.1371446211
 C    1.4756651418   -2.8219194143    1.6359715489
 N    1.3996112825   -3.7387235992    2.3350689622
 H    0.9330913843    1.9309025245   -0.0187270888
 H   -0.6056823860    1.8872656837   -0.8983932115
 H   -0.6026318395    1.8343565751    0.8690689559
 H   -1.0371563813   -0.4110519785   -0.1168117719
 H    0.1950310710   -0.6847262116   -2.1724969588
 H    1.6665750935    0.0054027982   -1.4625513060
 H    0.3802265446   -2.6713442486   -0.7258773879
 H    2.0352064801   -3.0717576008   -2.2620680931
 H    3.0832204290   -2.0123039776   -1.6015644892
 H    2.6288028343   -1.3201232071    0.7838064973
 H    1.0923641758    0.1254838812    1.6912648028