18

 N    0.1666827155    0.8287157642    1.0106856214
 C    0.1051389782   -0.1373029770    0.1973536282
 O    1.2222483948   -0.6572041208   -0.3969463944
 C    1.0445378221   -1.8584823102   -1.1537257548
 O    0.2699277001   -2.7872698333   -0.4715038445
 C   -1.0678557519   -2.3213886094   -0.3573437069
 C   -1.7245442728   -2.5141477174    1.0255804822
 C   -2.1927685497   -1.0289490923    0.9778718667
 C   -1.2048578403   -0.7802100948   -0.1938497133
 H    1.1362997662    1.1272607094    1.1337063465
 H    0.6069273838   -1.6066444589   -2.1332300423
 H    2.0434170857   -2.2764557699   -1.2857586860
 H   -1.6694652380   -2.7149999665   -1.1865763878
 H   -2.4889503693   -3.2883374511    1.1097025463
 H   -0.9577805360   -2.6821171697    1.7853197561
 H   -3.2334966630   -0.9229438625    0.6647242884
 H   -2.0190556348   -0.4196454337    1.8637720033
 H   -1.6046660505   -0.2478069361   -1.0621851692