14

 C   -0.2190640728    1.4880227761   -0.0713988801
 C    0.1312072344    0.0132474519   -0.0131366481
 O    1.1050130824   -0.3207404705   -1.0086606954
 C    1.9067282500   -1.3294622835   -0.4646816287
 O    1.8998119630   -1.1713634475    0.9475701566
 C    0.8126373262   -0.4020209886    1.2886685027
 O    0.5239326249   -0.1399161928    2.4123526773
 C    1.4010495185   -2.6845886867   -0.8140450452
 N    1.0122149401   -3.7294627338   -1.1135683116
 H    0.6816187791    2.1001169962    0.0194378747
 H   -0.7149414409    1.7239230261   -1.0153474643
 H   -0.8926122460    1.7267148633    0.7553656678
 H   -0.7685680859   -0.6076530758   -0.1410651484
 H    2.9296503771   -1.2149134543   -0.8322429573