16

 N   -0.0684718420    1.2934543078   -0.0352076082
 C   -0.0202009374    0.0325932779    0.0054593529
 O    1.1323491332   -0.7005290357    0.0634584891
 C    0.8676364631   -2.1328415015    0.0374891703
 C    0.0269364208   -2.4189143998    1.2948723461
 O   -1.1779248606   -1.6655202693    1.2147726896
 C   -1.2390645213   -0.8690318626    0.0070671048
 C   -1.1132809738   -1.7816634826   -1.1936611230
 C    0.0272719432   -2.4717298649   -1.1689061447
 H    0.8750537715    1.6876845309   -0.0348447685
 H    1.8411217526   -2.6196804806    0.0669941465
 H   -0.2051460178   -3.4883176374    1.3711739578
 H    0.5854588655   -2.1074264480    2.1864851479
 H   -2.1552583580   -0.2875387276    0.0569503379
 H   -1.8823076816   -1.8478850273   -1.9529728019
 H    0.3343650825   -3.2208131792   -1.8882092168