17

 C   -0.0075525502    1.5392505361    0.0593479533
 C   -0.0126033440    0.0391026752    0.0395943312
 C   -1.2803371663   -0.8324684717   -0.0559531803
 C   -0.6421671477   -1.7532772821    1.0164310601
 O   -1.0746163728   -2.6409288962    1.6930507157
 C    0.6235059118   -0.9468639826    1.0573647607
 C    1.1784161862   -0.7816343530   -0.3688369947
 C    1.1462489395   -1.8230133823   -1.3587583887
 C    1.1224865206   -2.6841097210   -2.1979353352
 H    0.9820248432    1.9306491578    0.3151507152
 H   -0.2822070799    1.9432498346   -0.9216827357
 H   -0.7249531424    1.9254301829    0.7914046898
 H   -2.1714753754   -0.3466474876    0.3529446607
 H   -1.5115347656   -1.2691509166   -1.0300521571
 H    1.2665229353   -0.7766378922    1.9129719703
 H    2.1084772879   -0.2162430562   -0.3552870062
 H    1.1035161900   -3.4532207052   -2.9300530991