20

 O    0.0186957622    1.2106403959   -0.7764640688
 C    0.0888195150    0.0825139307    0.0881510254
 C   -1.2702718049   -0.5690219601    0.2028706036
 N   -1.6879333717   -1.3936778270   -0.9543853890
 C   -1.5430668246   -2.0236059062    0.3655037909
 C   -0.5330608879   -3.1374436263    0.5167768056
 C   -0.7844386074   -4.3851070960   -0.3684384442
 C    0.5561975317   -4.0090651276   -1.0267799949
 O    0.7427349015   -2.9042851719   -0.1158043600
 H   -0.2280980392    0.8662180196   -1.6420494958
 H    0.8280069112   -0.6484122681   -0.2497951402
 H    0.4012997415    0.4677411082    1.0649368889
 H   -2.0291172642    0.0970241091    0.6137174708
 H   -2.6685415234   -1.2377569682   -1.1694268636
 H   -2.4627002208   -2.2602085004    0.9048880445
 H   -0.4017555472   -3.3519831586    1.5865941347
 H   -0.7936941054   -5.3371724700    0.1636036274
 H   -1.6588588014   -4.3151443741   -1.0166862752
 H    1.3626403458   -4.7458942594   -0.9369756807
 H    0.4887336794   -3.6678380696   -2.0655719396