21

 C    0.0720967084    1.4951599226   -0.0671024601
 C   -0.0159421686   -0.0122861344   -0.0158550915
 O    0.6517515311   -0.5499183694   -1.1557338426
 C    0.0051739130   -1.7907256450   -1.4704700818
 C   -0.7474720990   -2.1228450724   -0.1829801774
 C    0.3321284856   -2.1956889071    0.9475268873
 C    0.2908816635   -0.7162882667    1.3713284750
 C   -1.2227250130   -0.5523684205    1.6864950116
 C   -1.3800298141   -0.7398553669    0.1627822806
 H    1.1222713180    1.8027019975   -0.0974930403
 H   -0.4148012703    1.8768102531   -0.9695316109
 H   -0.3914465592    1.9615943790    0.8056751376
 H   -0.6657412171   -1.6618046678   -2.3338983958
 H    0.7664902598   -2.5346057231   -1.7302418195
 H   -1.4263966584   -2.9734978086   -0.2514968348
 H    0.0515560550   -2.8607319816    1.7692775670
 H    1.3051342474   -2.5138357615    0.5637347356
 H    1.0653134824   -0.3537752363    2.0486910944
 H   -1.6765135457   -1.2965461504    2.3462878921
 H   -1.5011868971    0.4491448747    2.0188684351
 H   -2.2756849316   -0.4484090154   -0.3876496916