21

 C   -0.0886834248    1.5253620249   -0.0023550867
 C    0.0259839405    0.0052440406    0.0120020099
 C    1.1965584424   -0.6019874249   -0.8411182174
 C    2.1020779668   -0.4446394807    0.4217926817
 C    0.7804198497   -0.5984018109    1.2311930019
 O    0.6116012111    0.1059794477    2.4360078457
 C    0.4270748620   -2.0927119113    1.3638771628
 C    0.5543162413   -2.7883485976    0.0261431333
 C    0.9222357378   -2.0760029217   -1.0395178413
 H    0.8733225113    2.0226399971    0.1499477298
 H   -0.4929239736    1.8656569609   -0.9619396501
 H   -0.7612103667    1.8664551707    0.7901067318
 H   -0.9545538312   -0.4405450014   -0.1844808946
 H    1.4852282777   -0.0792573983   -1.7537942329
 H    2.8921405396   -1.1858267779    0.5674184679
 H    2.5095308857    0.5624833471    0.5265291718
 H    1.0676608110   -0.3735825139    3.1362119878
 H    1.0897764641   -2.5659181129    2.1065484305
 H   -0.5929844460   -2.1865243000    1.7619080557
 H    0.3376710229   -3.8508321313   -0.0308870354
 H    1.0259335685   -2.5211287860   -2.0241679623