17

 O   -0.0555495748    1.3291375610   -0.1236172893
 C    0.0266969208   -0.0486566309   -0.0334862741
 C    1.1037731746   -0.8779569232   -0.7240645685
 C   -0.3276708800   -0.8972036747   -1.2279117495
 C   -0.6172320901   -2.1946051929   -0.4577299876
 O   -1.3862683492   -1.8130187844    0.6765895055
 C   -0.4515384814   -0.8632170336    1.2207336992
 C    0.7564359961   -1.7748353444    1.5145447797
 C    0.9073004051   -2.1997272064    0.0451250721
 H    0.6942005948    1.7107087881    0.3452427703
 H    1.9982746373   -0.4738086624   -1.1810541316
 H   -0.7719342863   -0.5047278178   -2.1332719255
 H   -1.0407979951   -3.0654192884   -0.9518400315
 H   -0.9074344467   -0.2888592696    2.0244210449
 H    1.6352439584   -1.2338302085    1.8792078679
 H    0.4978306626   -2.5848370882    2.2004053459
 H    1.5275256639   -3.0577945537   -0.2027925280