15

 O    0.0081260990    0.0069045543   -0.6895652680
 C   -0.0359588608    1.1417641457   -0.2763176938
 N   -1.1749732947    1.9047335888   -0.2191101817
 C   -1.2015127822    3.1925324170    0.4726871974
 C   -0.0101851658    3.9997022728   -0.0138441110
 C    1.1390809738    4.3234343223    0.8964053685
 N    1.2273894909    3.2401962218   -0.0689920169
 C    1.2062744524    1.8870331953    0.2800616973
 O    2.0621490214    1.3313801309    0.9164016574
 H   -2.0376944354    1.4258605703   -0.4350631916
 H   -2.1401469427    3.6989687390    0.2377046103
 H   -1.1623556336    3.0635952797    1.5635856654
 H   -0.1866535327    4.6367308123   -0.8777690684
 H    1.7588435228    5.1904251161    0.6898203911
 H    1.0611542676    4.0482471237    1.9450227741