15

 C    0.0696510728    1.5010568630    0.0313482335
 C   -0.0416068711    0.0111951239    0.0020172091
 C   -1.1741323635   -0.7069606498   -0.1510500104
 C   -1.1918585324   -2.1649293257   -0.1681582968
 O   -2.1955367297   -2.8461777050   -0.3043034424
 C    0.1582459284   -2.7480412084   -0.0002543272
 O    0.2145647973   -4.1003292593   -0.0067038067
 C    1.2315067940   -1.9448043084    0.1460856992
 O    1.1637885162   -0.5853342642    0.1511423462
 H    0.7275062956    1.8541590564   -0.7699050655
 H   -0.9122926805    1.9595653180   -0.0906697331
 H    0.5018997296    1.8365101987    0.9800743057
 H   -2.1221076352   -0.1965509271   -0.2678557707
 H    1.1265337216   -4.3911459374    0.1077564651
 H    2.2508073068   -2.2900934147    0.2738447940