17

 C   -0.0280603228    1.5777147306    0.1620174428
 O    1.3067921293    1.6506726303   -0.3948342384
 C    1.3429993674    0.2358254581   -0.5928770904
 C    2.2439528253   -0.2864431568   -1.7555894005
 N    3.1797927141   -0.8308712430   -0.7048081757
 C    2.1842836716   -0.6699512158    0.2565141826
 N    1.6883145572   -1.2806258495    1.2507587673
 C    0.2909003129   -0.7684075983    1.3566471001
 C   -0.0549612159    0.0399329169    0.0491135949
 H   -0.0724880544    1.9809015747    1.1797011069
 H   -0.7456016783    2.1096200166   -0.4730834268
 H    1.7892111423   -1.0589650858   -2.3836335823
 H    2.6852330877    0.5040783600   -2.3661551065
 H    3.6432632640   -1.7246936911   -0.8188080486
 H   -0.3680603818   -1.6342116833    1.4747941315
 H    0.1642987137   -0.1480905168    2.2528614306
 H   -0.8801085824   -0.3902098269   -0.5178695575