12

 O    0.3180632458   -0.1068385305   -0.1274717217
 C    0.4909892403    1.0431418477   -0.3678417923
 O    0.4253137509    2.0015707555    0.6139106938
 C    0.7325327314    3.2820688582    0.2581541532
 C    1.8163987541    3.8706314370   -0.3337720950
 N    1.6057904870    5.2292270614   -0.4308131201
 C    0.4271182802    5.4488918992    0.0986171743
 N   -0.1580789312    4.2917886851    0.5322050889
 H    0.7190617945    1.4850280711   -1.3529972077
 H    2.7263600907    3.4035231842   -0.6759788233
 H   -0.0539736139    6.4094099159    0.2039515530
 H   -1.0508169399    4.1768228651    0.9835700270