22

 C   -0.1454418867    1.5616828223    0.0387098635
 C    0.0649174194    0.0520555836    0.0049064484
 C    1.1692356145   -0.5498585632   -0.9304848290
 C    1.7799082591   -1.2780921680    0.2761382837
 C    2.3490400664   -2.6677746809    0.2389986807
 C    2.1817472409   -0.2470683370    1.2984580421
 C    0.7293341007   -0.6478131321    1.2063168678
 C   -0.0256233202   -1.2294989616    2.3684488903
 H    0.7864995073    2.0963242642    0.2495771737
 H   -0.5247555775    1.9263247951   -0.9225483655
 H   -0.8718866816    1.8434223030    0.8093757866
 H   -0.8923565587   -0.4372200774   -0.2091275477
 H    0.7594317276   -1.2244997572   -1.6871700409
 H    1.8266704909    0.1711936740   -1.4305322478
 H    3.3111299989   -2.6906074458   -0.2882965520
 H    2.5217256353   -3.0560007905    1.2485907601
 H    1.6762663661   -3.3639766931   -0.2758856959
 H    2.7036716842   -0.6374825992    2.1679452974
 H    2.5242144168    0.7396281831    0.9925361377
 H   -0.4077930966   -0.4435716150    3.0320721415
 H   -0.8850135779   -1.8217929173    2.0317927877
 H    0.6124187812   -1.8826147969    2.9735937277