18

 C   -0.0241855552    1.5208921352    0.0013956838
 C   -0.0222629437    0.0143727070    0.0873435139
 C   -1.3188629079   -0.7358514107   -0.2616300410
 C   -1.3103831486   -2.0199585628    0.5617773743
 N   -0.1945732566   -2.9395772564    0.2583385531
 C   -0.0985818935   -2.0295876279    1.4230179663
 C    0.7055724232   -0.7746969616    1.1324143688
 N    1.2576172006   -0.6423048619   -0.2222517863
 H    0.9502822258    1.9165839112    0.2977662362
 H   -0.2205135509    1.8550026699   -1.0243271006
 H   -0.7940418260    1.9560245909    0.6488547654
 H   -2.1819789862   -0.1266567719    0.0310373141
 H   -1.4085252398   -0.9309277712   -1.3364686915
 H   -2.2536830922   -2.4489532552    0.8852569349
 H   -0.4263332573   -3.8789880172    0.5706248930
 H   -0.0903846744   -2.4511672725    2.4216776300
 H    1.2811987610   -0.3265300396    1.9367158537
 H    1.1023746518   -1.5267922254   -0.7069447181