18

 C    0.0084588276    1.6349433966   -0.0573402716
 C    0.0254667098    0.1123423802    0.0013292426
 C    0.7191756870   -0.6525093102   -1.1543006731
 O    2.0906404901   -0.2567650483   -1.1533341898
 C    1.6854748111   -1.3102161747   -0.2389266870
 C    2.4184792576   -2.6083461885   -0.2680448400
 C    1.0419049076   -0.5946588536    0.9147979060
 N    1.2368762148   -0.7287410186    2.1575497508
 O    0.3572106085    0.0806172797    2.9017287217
 H    0.9999111611    2.0131210413   -0.3181115461
 H   -0.7067736021    1.9871286871   -0.8081645142
 H   -0.2778075579    2.0497234967    0.9122609035
 H   -0.9746083550   -0.2894588888    0.2050659350
 H    0.2962373042   -1.0090617639   -2.0868338911
 H    2.5950612961   -2.9195470152   -1.3006238635
 H    3.3859115587   -2.5148528876    0.2355522269
 H    1.8447352438   -3.3836202565    0.2480882952
 H    0.6183300268   -0.1155459459    3.8079442846