23

 C    0.0824726377    1.5467028494    0.0465305076
 C   -0.0017664161    0.0191969705   -0.0134738874
 C   -1.4485936112   -0.5348053137   -0.0369181828
 C   -2.2316293280   -0.1137367300   -1.2975125472
 C   -1.4399602630   -1.9919258105    0.1019886032
 C   -1.4085206306   -3.1923899319    0.2115814615
 C   -1.3944695326   -4.6565492478    0.2990760854
 C   -2.8162665776   -5.2345347405    0.3511907294
 O   -0.6330962483   -5.2429336043   -0.7570141762
 H    1.1236356172    1.8710519074    0.1371164430
 H   -0.3297154686    2.0192563258   -0.8500078645
 H   -0.4629992241    1.9403019200    0.9119774639
 H    0.5294741546   -0.3543059715   -0.8974094025
 H    0.5110787913   -0.4085831902    0.8545608474
 H   -1.9730091111   -0.1203235815    0.8370175458
 H   -1.7276807632   -0.4727426935   -2.2007014648
 H   -3.2403431061   -0.5346496411   -1.2839206223
 H   -2.3182066818    0.9742155387   -1.3611839030
 H   -0.8631082031   -4.9541689131    1.2115741542
 H   -3.3755334520   -4.9542573923   -0.5473620724
 H   -2.7647741898   -6.3250801303    0.4081365721
 H   -3.3595775826   -4.8548691023    1.2215199737
 H   -0.9545549011   -4.8643153974   -1.5827485339