19

 C   -0.0127240866    1.5317777790   -0.1741297355
 C   -0.0304447569    0.0284846958    0.0171335293
 O    0.1132638599   -0.5274090287   -1.2872080337
 C   -0.3913836086   -1.8306483960   -1.3710290430
 O    0.0353015292   -2.6248497763   -0.2917879161
 C   -0.0836825427   -1.9067544395    0.9084121646
 C    0.8392736027   -0.6667102119    1.1188807549
 C   -0.2030459772   -0.2040504887    2.1692202308
 C   -1.0646555158   -0.6837959753    0.9731369285
 H   -0.0163320058    2.0810996453    0.7681317110
 H    0.8851750882    1.8125190553   -0.7326857242
 H   -0.8799370099    1.8441345920   -0.7637603318
 H   -1.4949406616   -1.8042163435   -1.3906037007
 H   -0.0129647613   -2.2801209677   -2.2919657258
 H   -0.1315970050   -2.6256078434    1.7289452213
 H    1.9267712301   -0.6619750475    1.1983593970
 H   -0.2710421765   -0.8180319149    3.0711203177
 H   -0.2372010584    0.8549469745    2.4192629570
 H   -2.1538792041   -0.6858751587    0.9101658587