15

 O   -0.1025544025    1.3829786399   -0.0731793266
 C    0.0112297274    0.0152824061   -0.0668544686
 C    0.9449430145   -0.8522185505   -0.9500783984
 C    1.1076115066   -2.1065838357   -0.1127809928
 O    0.8180458914   -1.8802122193    1.2431607413
 C   -0.1839501205   -0.9048609935    1.1370944311
 C   -1.0484164310   -1.0779837708   -0.1106982218
 O   -2.4177068697   -1.0056467772   -0.1689745258
 C   -0.1167687874   -1.9475915619   -0.9940335595
 H    0.5371330815    1.7484211751    0.5490775271
 H    1.6193704887   -0.5051545647   -1.7200264996
 H    1.8787047003   -2.8472033036   -0.2809273881
 H   -0.5964187838   -0.5424862379    2.0700226286
 H   -2.7871066298   -1.6811761281    0.4116741388
 H   -0.4109438456   -2.5998123577   -1.8040919357