21

 O    0.0618182670    1.3985848062   -0.2707583319
 C    0.0688728737    0.0033444477   -0.0099255731
 C   -1.3734946365   -0.4857583934   -0.0762733619
 C   -1.5016554007   -1.9987168887    0.0966268682
 C   -1.0705563012   -2.5632452906    1.4593079002
 O   -1.6861869982   -3.8454125936    1.5667385223
 C   -2.7765790495   -3.9290444147    0.6545204249
 C   -2.9361264523   -2.5464059452    0.0079659991
 O   -3.7742721453   -1.6869657505    0.7703850942
 H    0.9638267709    1.7233218375   -0.1972178590
 H    0.6817952690   -0.5369505515   -0.7515344493
 H    0.4981784307   -0.2111020646    0.9822166980
 H   -1.9644477220    0.0268832389    0.6873730225
 H   -1.7879464549   -0.1875922378   -1.0465188512
 H   -0.9182958521   -2.5075563195   -0.6827881153
 H    0.0116888821   -2.6978209911    1.5526468696
 H   -1.4117920455   -1.9045771485    2.2718093141
 H   -2.5657311563   -4.6976982132   -0.1037565502
 H   -3.6877975317   -4.2256308598    1.1920293593
 H   -3.2921266805   -2.6182791674   -1.0295619720
 H   -4.6454347367   -2.0902822204    0.8304113918