22

 C   -0.1563096095    1.5282316549   -0.1337604893
 C   -0.0169132193    0.0426416251    0.0764899759
 O    1.2844649106   -0.5343914712   -0.1078410267
 C    0.6907580928   -0.6119656363    1.1991556448
 C    1.3792244837    0.1799818573    2.2912284215
 C    0.2070141798   -1.9759978052    1.6300795044
 C    0.1150115886   -3.1076990547    0.6693567647
 N    1.0791533072   -3.1477958754    1.7655851021
 C    2.4922888881   -3.0446283006    1.4100260706
 H    0.6495748595    2.0912056649    0.3397339174
 H   -0.1421371819    1.7564162682   -1.2047959989
 H   -1.1129913363    1.8792918827    0.2683413742
 H   -0.8121649286   -0.5471527981   -0.3844025709
 H    1.7084002957    1.1580483250    1.9384127851
 H    0.7033995633    0.3228494571    3.1412984536
 H    2.2577048546   -0.3612417285    2.6550680450
 H   -0.5336180057   -1.9128333046    2.4283458923
 H   -0.7046395000   -3.8197686023    0.7263023817
 H    0.4992553254   -2.9159218130   -0.3307047927
 H    2.7031004274   -2.3726791301    0.5681771932
 H    3.0590527799   -2.7034528246    2.2829771424
 H    2.8526832145   -4.0460568905    1.1531197098