23

 C   -0.0913360515    1.5724563949    0.0384863379
 C    0.0274901915    0.0418536949    0.0728008676
 C    0.9224900923   -0.4024438648    1.2389717259
 C   -1.3725398440   -0.6012090164    0.1107471480
 C   -1.4296838844   -2.1002644447   -0.2207167372
 O   -0.8185911508   -2.9009996062    0.8016969622
 C   -1.7273255144   -3.8845364994    1.2872566627
 C   -3.0037989428   -3.6422562911    0.5333752326
 C   -2.8317993613   -2.6439469229   -0.3237071865
 H    0.8959068193    2.0436810953   -0.0119598016
 H   -0.6716890425    1.9134321791   -0.8258292686
 H   -0.5890888333    1.9461720411    0.9415910405
 H    0.5075835765   -0.2764863417   -0.8649235951
 H    1.0353957194   -1.4868164299    1.2689622848
 H    1.9149358190    0.0546551813    1.1594466339
 H    0.4893340906   -0.0878287977    2.1965037916
 H   -1.8369474504   -0.4425008462    1.0930002553
 H   -2.0101928468   -0.0899069000   -0.6237230917
 H   -0.8782839321   -2.2627678607   -1.1642997061
 H   -1.3213425685   -4.8934549672    1.1075979151
 H   -1.8496463796   -3.7769222068    2.3764471667
 H   -3.9038743050   -4.2235003138    0.6884537449
 H   -3.5644046212   -2.2419972272   -1.0122216829