19

 C   -0.0324954558    1.5337530822    0.0163362630
 C   -0.0134820078    0.0142870120   -0.0112356245
 O   -1.2846338744   -0.5371811719   -0.2741442979
 C    1.1972388806   -0.6026603144   -0.8515676169
 C    1.8998029579   -0.7099913537    0.4793399650
 C    2.9021558184   -0.2208475094    1.1991619196
 C    2.3591883904    0.0821850003    2.5892524051
 O    0.9221097303    0.0350802465    2.4622987972
 C    0.6321299349   -0.6508178995    1.2632155767
 H    0.9523312544    1.9378134373    0.2628702922
 H   -0.3255273562    1.9326504867   -0.9626508941
 H   -0.7462407543    1.8855663625    0.7658934552
 H   -1.6507210694   -0.0990319004   -1.0501952875
 H    0.8906431370   -1.5632420167   -1.2748220952
 H    1.6643657304    0.0133840800   -1.6231482534
 H    3.8950316862    0.0677050915    0.8779282168
 H    2.6862035844   -0.6343082720    3.3597830170
 H    2.6508924449    1.0849841646    2.9276079682
 H    0.1169287383   -1.6024356858    1.4571116435