18

 O    0.0138837737   -0.0221553725    0.5790258721
 C   -0.0626807576    1.0527694488    0.0490891049
 C   -1.3907443321    1.8103088059   -0.0176637581
 N   -1.7875593118    2.2220084747   -1.3609322469
 C   -2.4247854538    3.5391114299   -1.4643867292
 C   -1.0364768400    3.3323087808   -1.9510146812
 C    0.1803304810    3.8563245092   -1.2232365486
 C    1.2839377355    2.8011117830   -1.1948581281
 O    1.0836615650    1.6266169817   -0.3913084641
 H   -2.1406810760    1.1170649578    0.3667713341
 H   -1.3245376937    2.6472901635    0.6976232931
 H   -3.2519751226    3.6098416999   -2.1646829310
 H   -2.5555924377    4.1092380928   -0.5457193471
 H   -0.8854621992    3.2130025929   -3.0238560404
 H    0.5816054845    4.7271482549   -1.7555788353
 H   -0.0545583403    4.1971617619   -0.2110683528
 H    1.4828737964    2.4573889764   -2.2180081016
 H    2.2094252087    3.2358818582   -0.8064893200