19

 C   -0.2314633720    1.5335232773    0.0091986552
 C   -0.0006007412    0.0290067496    0.0331189971
 C    0.6481889965   -0.5796680956   -1.2223798579
 O    1.9558451528   -0.0133594170   -1.3340421914
 C    1.7777151594   -1.1316386286   -0.4606490359
 C    1.2169326543   -0.6016805284    0.8605131175
 C    2.1580293413    0.2368751490    1.7127473579
 C    1.5645986458    0.9215344209    2.9319912486
 O    3.3357172731    0.3137259427    1.4496955577
 H    0.6926002281    2.0631302593   -0.2370652267
 H   -0.9785748250    1.7863388399   -0.7514984616
 H   -0.6064255283    1.9050062764    0.9676804134
 H   -0.9232226298   -0.4995741647    0.2914959569
 H    0.1702173989   -0.9200608348   -2.1338798340
 H    2.3962035104   -2.0029664136   -0.6354501306
 H    0.8248955596   -1.4099520228    1.4897373662
 H    2.3679366264    1.3026765099    3.5640092092
 H    0.9302088164    1.7578620350    2.6197521805
 H    0.9301719134    0.2346539057    3.5023933178