16

 C    0.0242915105    1.4342160538    0.0541876147
 C   -0.0705578302   -0.0524685556    0.0322763086
 C   -0.0782771830   -0.9202512295   -1.0004588677
 C   -0.0208786333   -2.2959355925   -0.3548503482
 C   -0.9942150122   -2.1017180206    0.8495568661
 C   -0.0172914466   -0.9563339973    1.2614397969
 C    1.0984736699   -1.9355545084    0.7039965572
 O    2.2066357787   -2.2582187368    0.9741416342
 H    0.9428276466    1.7636956531    0.5563492258
 H    0.0289988844    1.8436978549   -0.9599895666
 H   -0.8119730404    1.8854978894    0.6020637303
 H    0.0012627273   -0.7116222482   -2.0581893529
 H   -0.0015809702   -3.1889660043   -0.9743561983
 H   -2.0059318441   -1.7831126272    0.5864303260
 H   -1.0029260514   -2.9432286544    1.5495968734
 H    0.0088992142   -0.5146861963    2.2551738403