13

 C    0.1144145544   -1.1910203379   -0.0052528987
 C    0.0201645750    0.0097761236    0.0026723816
 C   -0.0746009466    1.4120911499    0.0117680204
 C   -1.1889155613    2.2559048879    0.0319045041
 C   -0.7131129502    3.5984951916    0.0327540088
 C    0.6584507514    3.5430089130    0.0134234176
 N    1.0307269091    2.2259581007    0.0009554162
 C   -2.5402643767    1.8366029751    0.0483206665
 N   -3.6514540958    1.5095784657    0.0619185405
 H    0.1782898984   -2.2512267666   -0.0119491114
 H   -1.3231904715    4.4867691795    0.0461432993
 H    1.3955648344    4.3290490098    0.0075611168
 H    1.9754651195    1.8802197776   -0.0140702616