12

 N    0.1211420859    1.3076908898    0.1457997253
 C   -0.0322190239   -0.0448100762    0.0454892480
 N   -1.1485885705   -0.7173556473    0.0085207611
 C   -0.7309842787   -2.0343019797   -0.0161157735
 C    0.6279425920   -2.1063880542    0.0010949007
 O    1.0902573637   -0.7860898370    0.0425565202
 C    1.5619934434   -3.1468070024   -0.0178294866
 C    2.3566594621   -4.0532261769   -0.0346788900
 H    0.9891154488    1.6781688388   -0.2099164628
 H   -0.7001281232    1.8313641229   -0.1152545331
 H   -1.4318322832   -2.8532302007   -0.0490308425
 H    3.0547151535   -4.8530712171   -0.0491303168