21

 C    0.8187494166   -0.3104190077    1.3819647504
 C    0.1591986827   -0.1342472335    0.0140070780
 C   -1.2968935137   -0.6549654492   -0.0442420661
 C   -1.9573813339   -0.3192257528   -1.4057232897
 C   -2.1463376867    1.1679998622   -1.6045903008
 O   -1.8552272526    1.7785312501   -2.5999284982
 C   -1.3753716636   -2.0905084851    0.2226341833
 C   -1.4315042464   -3.2785157170    0.4142917577
 C   -1.5063232661   -4.7128131549    0.6560114499
 H    1.8460313927    0.0656495093    1.3714496593
 H    0.2719460051    0.2359203911    2.1588032946
 H    0.8446547204   -1.3650714284    1.6707465411
 H    0.1560905139    0.9278338207   -0.2617326113
 H    0.7432430797   -0.6525357160   -0.7557284049
 H   -1.8687046643   -0.1302223781    0.7373018214
 H   -1.3795404364   -0.7252605655   -2.2404306226
 H   -2.9557081700   -0.7766394782   -1.4332412351
 H   -2.6114411787    1.6871983872   -0.7314128315
 H   -2.3155715362   -5.1719097610    0.0774540579
 H   -0.5736296779   -5.2135041748    0.3737665670
 H   -1.6915541246   -4.9297600784    1.7138367295