16

 C   -0.0905394112    1.5919820980   -0.0265270144
 C    0.0026447855    0.0553032814    0.0015984577
 C    0.8607911699   -0.5271040719   -1.1213551432
 C    1.8602074369   -1.2631936474   -0.6226000354
 N    1.7600903645   -1.2460554728    0.7823823917
 N    2.4644208868   -1.7830720980    1.7904074356
 N    1.8683411411   -1.3892212303    2.8888077874
 C    0.7891988266   -0.6039483840    2.5794453751
 C    0.7065752485   -0.5022488832    1.2115881315
 H    0.9036011619    2.0417776820    0.0388586446
 H   -0.5637454191    1.9301379429   -0.9531148559
 H   -0.6885876001    1.9552589628    0.8139082682
 H   -1.0146960364   -0.3543931695   -0.0687412565
 H    0.6720819868   -0.3480279167   -2.1702374091
 H    2.6543187862   -1.8158407738   -1.0995038661
 H    0.1678112223   -0.1830678594    3.3523938290