21

 C    0.1966702167    1.5891723516   -0.0083639025
 C    0.1924265759    0.0592851676    0.0359862763
 N    0.7294422479   -0.5373622595   -1.1964116030
 C   -0.0257130562   -0.1562363503   -2.3818242087
 C    0.8083619013   -1.9838084608   -1.0658216515
 C    1.7878318992   -2.3200819093    0.0365097256
 O    1.4142532366   -1.7186723839    1.2795623505
 C    0.9340883974   -0.4437778112    1.2784250397
 N    0.9872601442    0.2640992142    2.3269189114
 H    1.1880260544    1.9546632114   -0.2915836659
 H   -0.5366695009    1.9681082579   -0.7232904370
 H   -0.0438994529    1.9769771520    0.9805048111
 H   -0.8573111834   -0.2796119005    0.1798278024
 H    0.0510737246    0.9171602012   -2.5622812082
 H    0.3926391597   -0.6705766967   -3.2519289563
 H   -1.0990012314   -0.4189612105   -2.3133412809
 H   -0.1775791737   -2.4429130934   -0.8502112069
 H    1.1712962467   -2.4126209286   -2.0060947131
 H    1.8254540399   -3.3957127570    0.2266747785
 H    2.7908544898   -1.9715083167   -0.2397077316
 H    1.4624779841   -0.2550106377    3.0679794501