18

 C   -0.3135467334    0.3962318358    0.5841913851
 O    0.6886055628    0.1000925423    1.5369136795
 C    1.8492046685   -0.4630648936    0.9714282210
 C    1.6492201463   -1.8781205135    0.4638252770
 N    1.9192446138   -2.2254579808   -0.7137843761
 O    1.1497075547   -2.6586830768    1.5164179915
 C    0.8175655352   -3.9775531592    1.3880142610
 C    0.3038325554   -4.4971524338    2.7058070581
 O    0.9227604963   -4.6206982115    0.3769505804
 H   -0.6842703857   -0.5049312645    0.0752411877
 H   -1.1392483035    0.8612047926    1.1273190703
 H    0.0526252429    1.0959127666   -0.1819737626
 H    2.2302865469    0.1290647806    0.1291838974
 H    2.5994568265   -0.4738660675    1.7695956416
 H    1.7410474540   -3.2178127237   -0.8644074145
 H   -0.5576025501   -3.9062706805    3.0291394871
 H    0.0253155065   -5.5445636675    2.5983979725
 H    1.0757911030   -4.3896876050    3.4732281029