16

 C   -0.1843978648    1.4632070346   -0.0389543216
 C    0.0652198166   -0.0211962490   -0.1414983625
 O    1.1103062800   -0.5457661265   -0.4275871926
 O   -1.0641501804   -0.7154744101    0.1357065344
 C   -0.9393928705   -2.1445607030    0.0770774325
 C   -2.3080190742   -2.7318587329    0.4057798354
 C   -2.3514979570   -4.2265105131    0.1663358896
 O   -2.7195319085   -5.0392470180    0.9727861195
 H   -0.5189216245    1.7180241797    0.9706657570
 H    0.7328363232    2.0013636508   -0.2740091344
 H   -0.9796297442    1.7593069461   -0.7288503032
 H   -0.6022731243   -2.4382193235   -0.9231611261
 H   -0.1753033099   -2.4723220201    0.7886933979
 H   -2.5988826612   -2.5244843167    1.4380968368
 H   -3.0490000138   -2.2699451187   -0.2619932031
 H   -2.0183956165   -4.5390370695   -0.8512557795