17

 C    0.0031309678    1.4895450542    0.0521201615
 C   -0.0584534945    0.0027106744   -0.0259946106
 C   -0.0702569514   -0.8109658890   -1.0889383663
 C    0.0027287806   -2.2298301103   -0.5439744342
 C   -0.8583001639   -2.1079221250    0.7229034335
 C   -0.0068566459   -0.9067949665    1.2143806502
 C    1.3820152890   -1.5745958034    1.1340089731
 O    2.3413746165   -1.4351820125    1.8347327388
 O    1.3434153098   -2.4062154226    0.0527766011
 H    0.9204494886    1.8160824402    0.5568715242
 H   -0.0208306194    1.9434249307   -0.9419126263
 H   -0.8351332390    1.8897989299    0.6356985087
 H   -0.0312688551   -0.5391784354   -2.1349595520
 H   -0.1592366224   -3.0618874427   -1.2242422336
 H   -1.8967841956   -1.8409330814    0.5230386536
 H   -0.8005839531   -2.9922170327    1.3641114876
 H   -0.2149739719   -0.4499466977    2.1788553407