20

 C   -0.3657092646    1.4938208375    0.0725101288
 C    0.1014011134    0.0301096565    0.0474403944
 C    0.6150786116   -0.3436874326   -1.3591253780
 C    0.8524944580   -1.8116694467   -1.6032494682
 C    1.4050692429   -2.7147801506   -0.7946552636
 C    2.0058416455   -2.5627888725    0.5748014558
 C    1.9041140744   -1.2701174735    1.3358307842
 C    1.1207468968   -0.2107699405    1.1393112986
 H    0.4661700363    2.1742483698   -0.1442714059
 H   -1.1482551467    1.6727441575   -0.6714632192
 H   -0.7675146988    1.7622570879    1.0549191473
 H   -0.7751093986   -0.6028787064    0.2474547074
 H   -0.1165394501    0.0111498919   -2.0952287784
 H    1.5342886238    0.2255488134   -1.5577872880
 H    0.5250676203   -2.1694702361   -2.5778025352
 H    1.4815353467   -3.7331574619   -1.1743596196
 H    1.6023056409   -3.3620763523    1.2197187328
 H    3.0734997858   -2.8260551314    0.4940559398
 H    2.5602316973   -1.2399129510    2.2050309342
 H    1.2092826051    0.5988665109    1.8627821129