15

 C    0.4805860738    0.3137019053   -1.0440842786
 O    0.2638472672   -0.7451159247   -0.1262795992
 C    0.4506863638   -0.3599421980    1.2179231406
 C   -0.0728270244   -1.3986015367    2.0974190405
 C   -0.4642729166   -2.2433933597    2.8559011250
 C    1.9512533964   -0.1333810244    1.5588622389
 O    2.3162569558    0.8193735480    2.2060210062
 C    2.8644796089   -1.1323958510    1.0436171391
 C    3.6379179375   -1.9500975521    0.6178565012
 H    1.5174679747    0.6770933086   -1.0231464504
 H    0.2679674811   -0.0866924810   -2.0368672142
 H   -0.1921519217    1.1602261786   -0.8438876594
 H   -0.0465320114    0.5991199031    1.4328219955
 H   -0.8246576360   -2.9914719025    3.5185517636
 H    4.3208703408   -2.6746817634    0.2451410511