17

 O   -0.1407423268    1.3903899082   -0.2981837022
 C    0.0023434904    0.0264906004    0.0058129512
 C   -0.1878762569   -0.3933413828    1.4534270060
 C   -1.2789394178   -0.6582339424    0.4416144853
 C   -2.5541990342    0.1157133334    0.4816143456
 C   -3.7094503755   -0.2651629152   -0.3393826180
 O   -3.6765993979   -0.5635482785    1.0580040964
 C    0.9423846183   -0.6903989806   -0.8170230183
 C    1.7499287503   -1.2650185462   -1.4986797664
 H    0.7096481680    1.8155375776   -0.1391344032
 H    0.3865188063   -1.2308182098    1.8307633280
 H   -0.3500341603    0.4191056541    2.1540113603
 H   -1.3939845885   -1.6861831484    0.1140889791
 H   -2.4575953668    1.1584820247    0.7761557269
 H   -4.4312148726    0.4920280752   -0.6423637884
 H   -3.6355078965   -1.1261189860   -1.0029568366
 H    2.4533823805   -1.7761784938   -2.1082272359