16

 C   -0.7662263695    0.8133058097   -0.1627789226
 O    0.4091624872    0.0285950793    0.0743506040
 C    0.9136319313   -0.5737900198   -1.0415744292
 C    0.7485714162   -1.8717490815   -1.4296597947
 C   -0.0270517169   -3.0008981318   -0.8250243377
 O   -0.9756275074   -2.5409443980    0.1156015434
 O    1.4701911269   -2.0974381557   -2.5379733409
 N    2.1332002385   -0.9231865453   -2.9156750294
 C    1.7935487330   -0.0309428772   -2.0210942860
 H   -0.5795111890    1.5817780221   -0.9219064474
 H   -1.5931758128    0.1708148949   -0.4847087228
 H   -1.0146962823    1.2925709880    0.7859777651
 H   -0.5790440383   -3.5295657240   -1.6096775954
 H    0.6713032677   -3.7302196080   -0.3822450789
 H   -0.5202873810   -1.9433546396    0.7208221450
 H    2.1894525465    0.9723504370   -2.0912027327