17

 O    0.0785322529    1.2959352358   -0.3304548759
 C    0.0397107963   -0.0203447103    0.1933854790
 C   -1.3577035830   -0.5653510357    0.2241991889
 C   -2.4748810350   -0.2575372036    1.2238736770
 C   -3.2431690975   -1.5023993604    0.6535738501
 N   -4.1074066792   -0.9803471835   -0.4204967641
 C   -3.2938475243   -0.6316131974   -1.3326759368
 N   -1.9073149936   -0.9553334059   -1.1523956926
 C   -1.9056558922   -1.9200935803   -0.0381263351
 H   -0.2700259599    1.2407759501   -1.2276878810
 H    0.6791568187   -0.7063618859   -0.3812493612
 H    0.4401701800    0.0434204077    1.2107711708
 H   -2.1117011610   -0.4454383262    2.2373211284
 H   -2.9942695165    0.7024606615    1.1780370330
 H   -3.7588536697   -2.1646442007    1.3439025677
 H   -3.5834060980   -0.1103613710   -2.2393619087
 H   -1.4351621379   -2.8901337341   -0.1573528895