12

 O    0.0740520703    1.3156211328   -0.1670385062
 C   -0.0206056448   -0.0021391540   -0.0440030590
 C   -1.1695535442   -0.7020122645    0.0779772111
 C   -1.0478031620   -2.1235264951    0.1991432308
 N    0.0409583468   -2.8160207302    0.2051034340
 O    1.2366798039   -2.0720090688    0.0767439959
 C    1.2570861641   -0.7228110231   -0.0452905629
 N    2.3235626329   -0.0345119190   -0.1618187631
 H    1.0376807573    1.4898801219   -0.2323983298
 H   -2.1395028562   -0.2232102848    0.0850475517
 H   -1.9371955703   -2.7394921855    0.3002147797
 H    3.1693396322   -0.6003128395   -0.1546208522