19

 O   -0.1004350988    1.4990133586    0.2903881543
 C    0.0078355862    0.0868117901    0.2132385140
 C   -1.3266968778   -0.5284787216   -0.1221419196
 C   -1.9212284782   -0.4797377484   -1.5508156075
 C   -2.3146510720   -1.9892776367   -1.4426889287
 C   -1.7611821864   -2.0371450333    0.0039456658
 O   -0.9840525528   -3.1134776847    0.4229570140
 C   -2.7165874380   -1.5260302441    1.0885907253
 O   -2.3249072372   -0.1496001315    0.8649940409
 H   -0.8272519926    1.6739150408    0.9008473043
 H    0.7448042797   -0.1328271733   -0.5669307577
 H    0.3776904667   -0.3430221142    1.1573740077
 H   -2.7514009212    0.2209874445   -1.6472987270
 H   -1.1868110476   -0.2724479286   -2.3328121607
 H   -3.3709305120   -2.2437446391   -1.5636321024
 H   -1.7339367278   -2.6235052633   -2.1211057111
 H   -0.4648547063   -3.4308540443   -0.3230370848
 H   -3.7896530706   -1.6857046075    0.9304189624
 H   -2.4353003632   -1.8713599432    2.0903165910