20

 C   -0.1000923208    1.5190048448    0.5659970317
 C   -0.5162588514    0.0581158995    0.7203848367
 C   -1.6487816874   -0.3509117037   -0.2095415582
 O   -2.2699390672    0.4559342633   -0.8630960614
 C   -1.9533162363   -1.8375391060   -0.3326718232
 C   -1.9218094751   -2.8172751212    0.9053922463
 C   -3.3861228556   -3.1537765168    0.6040288951
 N   -4.1173685235   -1.8690691206    0.7103966900
 C   -3.4204399301   -2.2165692814   -0.5511747009
 H    0.6851012287    1.7776574439    1.2819476327
 H    0.2742603792    1.7154431330   -0.4425949550
 H   -0.9539541683    2.1805890802    0.7284662151
 H    0.3293718796   -0.6255608972    0.5623431502
 H   -0.8552377234   -0.1442175665    1.7460224433
 H   -1.3109821522   -2.2322413569   -1.1290366223
 H   -1.2362268677   -3.6534162819    0.7548012007
 H   -1.7476737605   -2.3725168734    1.8877436164
 H   -3.8918412488   -4.0995207940    0.7520104861
 H   -5.1073253756   -2.0661952280    0.5667026137
 H   -3.9585331637   -2.2686643670   -1.4881548470