16

 O   -0.1829588077    1.4955828344    0.3359876452
 C   -0.0283369008    0.1164256757    0.0018257360
 C    0.6633189036   -0.7232148960    1.1312469401
 O   -0.3516125688   -1.4321586425    1.8790136439
 C   -1.4660741874   -1.3955872398    1.0981025630
 C   -2.7070052779   -1.9742020254    1.1295747062
 N   -3.3636814337   -1.4692777620    0.0104856131
 C   -2.5609399626   -0.6123800721   -0.6966509630
 C   -1.3607104166   -0.5544273066   -0.0280126327
 H    0.6864646055    1.9079098096    0.2886012887
 H    0.5430367710    0.0232073761   -0.9324635688
 H    1.3466773416   -1.4633455005    0.6962154121
 H    1.2140713804   -0.0833247353    1.8260540014
 H   -3.1841049295   -2.6647803749    1.8022258161
 H   -4.2983198652   -1.7231290966   -0.2552559041
 H   -2.9179976420   -0.1254221241   -1.5893575172