15

 C   -0.0085303992    1.5110080943   -0.0571056415
 C    1.3182772045    0.7964953137   -0.0317609807
 C    0.0222033213    0.0045382441   -0.0225560722
 C    0.1934814800   -0.7035740501   -1.3874349548
 C    1.6546643284   -1.2255523557   -1.3196791717
 C    1.8561089667    0.3123669675   -1.3992434187
 O    0.6750460947    0.3667558448   -2.2552279617
 H   -0.3018061989    2.0016862749    0.8651253164
 H   -0.3189180668    2.0083925608   -0.9673551228
 H    1.9843632910    0.8638234096    0.8192970863
 H   -0.3327825509   -0.5520537268    0.8357528225
 H   -0.6368799819   -1.2740429781   -1.8033249239
 H    1.9850330051   -1.7557825501   -0.4222167751
 H    1.9603601560   -1.7364677473   -2.2344670407
 H    2.7382365001    0.7883113184   -1.8272946213