25

 C   -0.5404995830    1.4355925134    0.3150566771
 C    0.0464711557    0.0538930923    0.0146165903
 C    0.7613671518   -0.5670275006    1.2182159025
 C    1.3505185781   -1.9582381217    0.9098131599
 C    2.0346972957   -2.5616391409    2.0487006286
 C    2.6003629980   -3.0302895363    3.0039195125
 C    3.2612003182   -3.6282977067    4.1591489254
 C    2.4308651618   -4.7414268603    4.8302712005
 C    3.1428477872   -5.3531167414    6.0382973146
 H    0.2417235763    2.1401544114    0.6186377706
 H   -1.0445017772    1.8550115809   -0.5612700642
 H   -1.2726764989    1.3859578608    1.1286302919
 H   -0.7537766528   -0.6201024723   -0.3195012565
 H    0.7493724169    0.1286318113   -0.8259944589
 H    1.5687941611    0.0946165921    1.5547386475
 H    0.0653957507   -0.6544287782    2.0614056506
 H    0.5449882363   -2.6235347306    0.5695483315
 H    2.0460962922   -1.8759509725    0.0632384149
 H    4.2348324107   -4.0382147720    3.8566913766
 H    3.4841544689   -2.8490046022    4.9010782586
 H    1.4629020431   -4.3263127845    5.1327834786
 H    2.2140709780   -5.5170849435    4.0872270141
 H    4.1026360037   -5.7973532559    5.7512625788
 H    3.3453964651   -4.5971352993    6.8053766381
 H    2.5372089726   -6.1395808733    6.4986645363