21

 C   -0.1313982212    1.9639792248   -0.5647896930
 N    0.2437230417    0.5974384346   -0.2109860847
 C   -0.8157854806   -0.3048824156    0.2164370962
 C   -1.3167788535    0.0724232565    1.6131803404
 O   -2.2191670377   -0.9241095187    2.0408323077
 C   -2.7535547078   -0.6726322164    3.3201426885
 C   -2.0272351434   -0.4498188068   -0.7560399782
 C   -1.5986005423   -0.8584506427   -2.0880632253
 N   -1.2120309199   -1.1730565994   -3.1313758283
 H    0.7672560006    2.4962446057   -0.8880157198
 H   -0.8763048910    2.0494458055   -1.3726086980
 H   -0.5213790951    2.4922801660    0.3107215449
 H    0.7448562054    0.1756112774   -0.9841663670
 H   -0.3602053512   -1.2970924161    0.3060767030
 H   -0.4512640094    0.1454516969    2.2886946235
 H   -1.8153391849    1.0565801462    1.6041483687
 H   -1.9661418515   -0.6325586838    4.0883113563
 H   -3.3104968167    0.2770175191    3.3491377564
 H   -3.4368742324   -1.4917005369    3.5556774815
 H   -2.7216904799   -1.1876038248   -0.3453749243
 H   -2.5742842390    0.4964353184   -0.8348680484