19

 C   -0.1478334460    1.5617814883   -0.0962664376
 C   -0.0131583190    0.0518123927   -0.0107432647
 O   -1.3107328763   -0.5130959802    0.2292557360
 C   -1.3337708969   -0.8333488308    1.6374570095
 O   -0.0100419535   -0.7000705096    2.2049712267
 C    0.7660756240   -0.6912129315    1.0488017742
 C    2.0892252988   -0.1528552691    0.4556441143
 C    1.1832908035   -0.6642259982   -0.7589099501
 C    0.9023565700   -1.9213389962    0.0844797298
 H    0.7695758973    2.0582315295   -0.4196648930
 H   -0.9292264372    1.7974989322   -0.8250136431
 H   -0.4545140092    1.9873972879    0.8656562551
 H   -1.9960753279   -0.1500317958    2.1808746164
 H   -1.6814363255   -1.8690109689    1.7374927861
 H    2.2885064485    0.9150122096    0.5334861271
 H    2.9882431891   -0.7451777039    0.6346211827
 H    1.4556302946   -0.6155040391   -1.8117820378
 H    1.7521800664   -2.5812535298    0.2674366290
 H   -0.0083029907   -2.4696887771   -0.1486835406