23

 C   -0.0868043071    1.5663339764    0.0125066900
 C   -0.0150034271    0.0322475245    0.0011127065
 C   -1.4410943497   -0.5514419174    0.0626555338
 C    0.7650635891   -0.4989763855   -1.2624040812
 C    1.5063123488   -1.7472757529   -0.7517823718
 C    3.0644212898   -1.9539121561   -0.6951782523
 C    2.9401890171   -2.1953561937    0.8575298037
 C    1.5973746340   -1.5130082149    0.7322273546
 C    0.8556345972   -0.4963465800    1.1537327980
 H    0.9145827074    2.0091672677    0.0224707921
 H   -0.6121169927    1.9387157339   -0.8745707605
 H   -0.6259003366    1.9328950193    0.8935739081
 H   -2.0604976385   -0.1722602163   -0.7587015407
 H   -1.4229319607   -1.6440496819    0.0004637747
 H   -1.9333969349   -0.2818193112    1.0035505928
 H    0.0974678678   -0.6881244427   -2.1092910897
 H    1.4884288724    0.2620343048   -1.5784412714
 H    1.0125863311   -2.6861676387   -1.0302086944
 H    3.4862969687   -2.7682774471   -1.2893896352
 H    3.6028177198   -1.0273177484   -0.9109355340
 H    2.8667577608   -3.2643093076    1.0856048911
 H    3.6858517256   -1.7452621346    1.5172184061
 H    0.8734844379   -0.0211626277    2.1291279396