23

 C   -0.0460999397    1.6086385780    0.1705794296
 C   -0.0941787220    0.0927670703   -0.0366987748
 C    0.8436948786   -0.3934359079   -1.1510107640
 C    0.8113594919   -1.9037442681   -1.3311176605
 C   -0.3673001131   -2.6744841782   -1.9893610586
 C   -0.5430581374   -2.0220207919   -3.3768453107
 C    0.9661444614   -2.0045355084   -3.7796688026
 C    1.5187803526   -2.6513396080   -2.4915258021
 O    0.5763116548   -3.7510473438   -2.2869143048
 H    0.9637941880    1.9391087121    0.4381270783
 H   -0.3362638799    2.1428976345   -0.7410984615
 H   -0.7226930146    1.9245874223    0.9706851995
 H    0.1662071932   -0.4152513393    0.9009935537
 H   -1.1226733692   -0.2129325401   -0.2697336490
 H    0.5869763816    0.1195646027   -2.0855142887
 H    1.8726779386   -0.0886348619   -0.9136280882
 H    1.0657504669   -2.4118108235   -0.3961616008
 H   -1.2532385659   -2.9988889678   -1.4429468670
 H   -1.1466890679   -2.6534112252   -4.0315994516
 H   -1.0002008580   -1.0295823055   -3.3352448848
 H    1.1766958838   -2.6279448842   -4.6507906659
 H    1.3619503799   -1.0025542273   -3.9658892289
 H    2.5672426463   -2.9494943588   -2.4581518568