23

 C   -0.9129662092    0.7427269236   -2.6719982526
 C   -0.5845071540   -0.5205170155   -1.8778841107
 O    0.5505644233   -0.2909122961   -1.0167527775
 C   -1.7747146758   -1.0255335051   -1.0883406674
 C   -2.7113634146   -2.1151277806   -1.5802640089
 C   -2.5961314213   -2.7735897915   -2.9413257286
 C   -1.7732976385   -2.3915549050   -0.4245910840
 C   -0.5665699899   -3.3074249195   -0.5136084790
 O    0.4937000404   -2.8778340473    0.3186531370
 H   -0.0282922242    1.1036288168   -3.2030668674
 H   -1.7063669070    0.5466225289   -3.3998177142
 H   -1.2634186718    1.5397454208   -2.0046372156
 H   -0.2266084924   -1.2883193617   -2.5683964421
 H    0.2847295466    0.3557761075   -0.3524285216
 H   -2.2546343386   -0.2307889349   -0.5170675374
 H   -3.7476380505   -1.9655805619   -1.2857112623
 H   -1.5638600217   -2.9320313801   -3.2600792299
 H   -3.0859591169   -3.7534185802   -2.9347520284
 H   -3.0882600287   -2.1658983310   -3.7090995944
 H   -2.2362457118   -2.4157353127    0.5587533104
 H   -0.8448405074   -4.3091433348   -0.1663386870
 H   -0.2341439791   -3.4211647631   -1.5563201082
 H    0.7406391731   -1.9951217164    0.0014005097