15

 N    0.0882585749    1.4128458778    0.0193221522
 C   -0.0733669221    0.0488372193   -0.0004012254
 C   -1.1434332344   -0.7855372071   -0.0973178263
 C   -2.6225382530   -0.9551383754   -0.2441607629
 C   -2.7266272506   -2.5185445648   -0.1589285753
 O   -1.3881328186   -3.0822132701   -0.2734757792
 C   -0.5327137831   -2.0550289007   -0.1466888207
 N    0.7697114975   -2.0758895498   -0.0805463129
 O    1.0687802383   -0.6722406358    0.0212155940
 H    0.9844081322    1.7114053068    0.3786855449
 H   -0.6830296771    1.9263393488    0.4183868779
 H   -3.2204356962   -0.4884132110    0.5452936475
 H   -3.0025103759   -0.5850121159   -1.2035244082
 H   -3.1362726508   -2.8367263371    0.8048521202
 H   -3.3303675709   -2.9513360949   -0.9589196456