17

 C   -0.0345341616    1.5481938525    0.0368431698
 C    0.0929299369    0.0409379338    0.0551709829
 C    1.3400682068   -0.7407421168   -0.2274511442
 C    2.5968417478   -0.0566825237    0.3239884346
 C    1.9714358519   -0.0553477358    1.7541597461
 C    0.7145797628   -0.7504093601    1.1944379147
 C    0.0076485725   -1.7960760165    1.8560396647
 N   -0.5601389714   -2.6452172771    2.4024611736
 H    0.8556335204    2.0527113350    0.4191316091
 H   -0.1992504774    1.9006992468   -0.9868220556
 H   -0.8869580101    1.8708244466    0.6430271856
 H   -0.7885386200   -0.4684422670   -0.3285678747
 H    1.3408192564   -1.5574622494   -0.9389556932
 H    3.4788877559   -0.6963303912    0.2662884015
 H    2.8447117173    0.9149426463   -0.1123700082
 H    2.5184896618   -0.6969677352    2.4457900015
 H    1.8036138900    0.9129948418    2.2328311718