18

 C   -0.4268315175    1.3190123325    0.1930949422
 C   -0.0366901146   -0.0774630261    0.0675121292
 C    0.2995562019   -1.2314884989   -0.0143226937
 C    0.6576000834   -2.6403203689   -0.1673990371
 O   -0.3874632898   -3.5170686900    0.2493599642
 C    1.0710819575   -2.9321705185   -1.6227300392
 O    1.6049748701   -4.2379868353   -1.7529580624
 C    0.7375569250   -5.2489767132   -1.9790443615
 N    1.1566719984   -6.4380743644   -1.9993324506
 H    0.4329917326    1.9437963673    0.4576307198
 H   -0.8438921787    1.7042805796   -0.7434704511
 H   -1.1832765983    1.4478111320    0.9746660714
 H    1.5138814419   -2.8886437083    0.4710135237
 H   -1.2228774824   -3.1114577689   -0.0073504725
 H    0.2070399879   -2.7870569240   -2.2857203412
 H    1.8611648389   -2.2420460665   -1.9292748838
 H   -0.2917444596   -4.9109865065   -2.1481595221
 H    0.3876221134   -7.0710460219   -2.2083765053