18

 C    0.4322193407    1.8247875840    0.9197394206
 N    0.9870604756    0.5032301056    0.7127442056
 C    0.2323066152   -0.3685297777    0.1925547244
 N    0.6897405919   -1.6547452180   -0.0372020729
 C   -0.0663391692   -2.6484073374   -0.5951079204
 N   -1.2744174203   -2.5665000148   -0.9877523870
 C   -1.6196885857   -3.8955978299   -1.5019758477
 C   -0.3292347925   -4.7432585630   -1.3165294842
 O    0.6088851516   -3.8228656304   -0.7131659776
 H    0.4880309470    2.0858157204    1.9831328062
 H    1.0339143439    2.5660174508    0.3806183015
 H   -0.6150221360    1.9250281993    0.5929958793
 H   -0.8068322598   -0.2242398197   -0.1197233256
 H    1.6398851583   -1.8690369632    0.2242464616
 H   -2.4674835477   -4.3133401592   -0.9471439456
 H   -1.9216672158   -3.8340064364   -2.5536007116
 H   -0.4553706782   -5.5925076143   -0.6397179933
 H    0.1003833110   -5.0989157561   -2.2569305132