15

 N   -0.2202837960    1.4044288526    0.1008765018
 C    0.0983513833    0.0523703891    0.0383456026
 O    1.2443033892   -0.3530160193    0.0414343910
 N   -1.0123934088   -0.7650165562    0.0169225469
 C   -0.9910733232   -2.1576365035   -0.0007116547
 N   -2.1579708907   -2.7956716361    0.0528058105
 N   -1.8114387767   -4.1025260467    0.0106480452
 C   -0.4754143277   -4.2922654084   -0.0673486111
 C    0.1089068522   -3.0435131843   -0.0780642115
 H    0.5787759243    1.9906640573   -0.0871793037
 H   -1.0689368038    1.7149882014   -0.3482093402
 H   -1.9277141863   -0.3633705379    0.1482530517
 H   -2.5372816504   -4.7961070721    0.0416725792
 H   -0.0441439057   -5.2801603062   -0.1074178773
 H    1.1495744002   -2.7838943998   -0.1244385705