20

 C   -0.0163553669    1.5594017467   -0.0066716146
 C    1.5276941225    1.5765425842   -0.0375463349
 C    2.2024185665    1.3524973760    1.3451330866
 C    2.1835805701   -0.1982649938    1.1326577984
 C    1.1892210476   -1.0109443190    1.9671038413
 C   -0.2194000259   -0.6457089156    1.4262526837
 C   -0.0093373159   -0.0028583768    0.0314652392
 C    1.5293510265    0.0234425869   -0.2579676071
 H   -0.5063022764    2.0730773960    0.8285768274
 H   -0.4427366612    1.9386457261   -0.9399933817
 H    2.0119299825    2.2902772508   -0.7053054624
 H    3.2174544898    1.7547759981    1.3923660634
 H    1.6494676437    1.7294743108    2.2125416005
 H    3.1834795784   -0.6383900524    1.1303916799
 H    1.3816864342   -2.0797604838    1.8146497219
 H    1.2895053188   -0.8223794149    3.0415193559
 H   -0.8570544995   -1.5327876103    1.3684270513
 H   -0.7306167196    0.0559048065    2.0940197103
 H   -0.6363609653   -0.4653678802   -0.7329156460
 H    1.9154574201   -0.4813136654   -1.1433726431