23

 C   -0.1633349747    1.5842530245   -0.0762614152
 C   -0.0788075167    0.0545920041   -0.0376022466
 C    0.5587691270   -0.5886331643   -1.2878242165
 C    1.9775971197   -0.0877178735   -1.6039728415
 C    3.0019348411   -0.3323063980   -0.4907181928
 C    0.3658765489   -2.1479655993   -1.3314693705
 C   -0.6894018695   -2.0160627176   -2.4704411451
 C   -0.3907173055   -0.5102713297   -2.5045705231
 O   -0.7290516267    0.3883896473   -3.2227175363
 H    0.8285010062    2.0459694391   -0.0541076224
 H   -0.6701424006    1.9264943674   -0.9830400704
 H   -0.7193899530    1.9589540674    0.7886023768
 H    0.4829127396   -0.2722775607    0.8462253340
 H   -1.0888326070   -0.3582178100    0.0847910679
 H    2.3208317824   -0.5832953425   -2.5212533987
 H    1.9321142052    0.9799388476   -1.8447307275
 H    2.7611070901    0.2301157511    0.4164635036
 H    3.0544812590   -1.3925998648   -0.2204589166
 H    4.0009626799   -0.0233679189   -0.8133163397
 H    1.2661619866   -2.6857893475   -1.6369087041
 H   -0.0060996341   -2.5902528796   -0.4053365347
 H   -0.4834933283   -2.5436998213   -3.4057573261
 H   -1.7198919395   -2.2393603106   -2.1768622645