19

 C    0.1493936938    1.5457857791   -0.2007020694
 C   -0.0852399973    0.0549411112    0.0814623687
 C    0.6803877917   -0.4273257605    1.2800813518
 C    2.0323443212   -1.0066256042    1.2273265951
 N    0.8999108029   -1.9257604142    1.5637147315
 C    0.6499457576   -1.6575962996    2.9647884985
 N    0.7257485162   -2.4744723504    3.9144989405
 C    0.2694220937   -0.1907508333    2.7445079484
 O    0.9575181494    0.7286698724    3.5539829332
 H    1.2077577047    1.7510871092   -0.3899091725
 H   -0.4212693669    1.8728050056   -1.0744608033
 H   -0.1619615885    2.1667204235    0.6470144682
 H   -1.1558559494   -0.1302248004    0.2366327250
 H    0.2082175583   -0.5427120837   -0.7886985344
 H    2.4522180216   -1.2145787778    0.2481508912
 H    2.7605891005   -0.7809610597    2.0011784685
 H    0.4901277785   -2.0118994265    4.7950894864
 H   -0.8214494319   -0.0648591804    2.8173411737
 H    0.5792800640    1.6039083795    3.4221538990