17

 C   -0.0308723307   -1.1977060015    0.0347138250
 C   -0.0206264341    0.0064831042    0.0101064093
 C    0.0070003292    1.4210999364   -0.0089758423
 C   -0.7360933780    2.4994848399    0.8262402529
 C    0.5732507468    3.2454961127    1.0706608406
 C    1.2420836707    2.3833157919   -0.0468378164
 C    1.0851410313    3.0674314753   -1.4006801857
 O   -0.3313402399    3.2710182873   -1.5351064662
 C   -0.9609080723    2.3673278734   -0.6609874941
 H   -0.0438127417   -2.2588585650    0.0533743197
 H   -1.5351022607    2.3389080514    1.5410903179
 H    0.5678450576    4.3296536752    0.9165030854
 H    0.9865919781    3.0191588054    2.0557982824
 H    2.2263519527    1.9660125580    0.1561387874
 H    1.5759436692    4.0445406439   -1.4520573241
 H    1.4558177124    2.4360878939   -2.2217865248
 H   -1.9203128907    2.0111072774   -1.0154068672