17

 O   -0.1824960260    1.3459182154    0.0719788285
 C   -0.0040731703   -0.0167572889    0.0329991197
 C   -0.2252199234   -0.8423353375   -1.2497463781
 C    0.4680115659   -2.1881312313   -1.0594947362
 C    0.0317794629   -2.0722545048    0.4262798066
 C   -1.0893202132   -1.0473312532   -0.0148292034
 C    0.8518766658   -0.8582955063    0.9943584525
 C    2.3007197233   -0.8416834135    0.9000670758
 C    3.5002635558   -0.8092454934    0.8078887699
 H    0.5482735661    1.7607360817   -0.4007221088
 H   -0.5058914400   -0.3358044743   -2.1647698339
 H   -0.0715976979   -2.9910998354   -1.5695732282
 H    1.5405454131   -2.2698314551   -1.2623233908
 H   -0.1115419678   -2.9510131393    1.0498369453
 H   -2.1539492300   -0.9874562806    0.1531068690
 H    0.5292937599   -0.6527596769    2.0204569907
 H    4.5594192457   -0.7876151865    0.7342052214