14

 O    0.1123705532    1.3959429125   -0.0772465904
 C    0.0471608994    0.0334405499   -0.0480139700
 C    0.1194077950   -0.8167486272    1.2795719422
 N   -1.3117342249   -0.4238581653    1.5565952030
 C   -1.3017994491   -0.7742349389    0.0881166624
 C   -0.3142201542   -1.9462029615    0.3123688383
 O    0.6017989401   -2.0447998297   -0.7839257505
 C    0.8795557193   -0.7236038713   -1.0676429284
 O    1.6122008187   -0.3556249822   -1.9292633519
 H   -0.4690855622    1.7142892376    0.6277355894
 H    0.8980259555   -0.8107649004    2.0424428404
 H   -1.7864050990   -1.1539552386    2.0967623391
 H   -2.1877702099   -0.7184430681   -0.5444939536
 H   -0.6377720020   -2.9229819268    0.6634092901