19

 O    0.3062116306    0.6398454986    0.7789076075
 C   -0.1818396374    0.2432632522   -0.4846691390
 C   -1.5134630115   -0.4740238091   -0.3906358649
 C   -1.9223704035   -1.5318161631   -1.3820353909
 C   -1.5927533978   -1.9237805464    0.0410127577
 C   -0.3224845584   -2.6945662745    0.3603835406
 O    0.3130784099   -2.1998751506    1.5175865194
 C   -0.6366000845   -4.1662976242    0.5416295724
 O   -0.3662078650   -4.7517122963    1.5623933929
 H    0.4123482987   -0.1673095777    1.3025016665
 H   -0.3022012210    1.1605001270   -1.0722108724
 H    0.5473276929   -0.3814282861   -1.0277511233
 H   -2.3100541137    0.1508501721    0.0031372580
 H   -2.9553389750   -1.5791387096   -1.7070326444
 H   -1.2049088191   -1.7990266764   -2.1527438656
 H   -2.4289431507   -2.1717464219    0.6894335819
 H    0.3642647731   -2.6254410249   -0.5003662373
 H    0.3807470176   -2.9478601699    2.1329488443
 H   -1.1377097352   -4.6674579392   -0.3096408334