27

 C    0.5453909918    1.3510245824    0.6045047702
 C    0.4359172656   -0.1196882583    0.1910105780
 C   -1.0023419996   -0.6475397464    0.2753923771
 C   -1.1690384822   -2.1781051574    0.1189009683
 O   -0.3824364123   -2.8572417217    1.1097589017
 C   -2.6584339649   -2.5796422852    0.2557886157
 C   -3.3229384053   -2.2499947546    1.5979198243
 C   -0.6040064666   -2.6540610966   -1.2359099456
 C   -0.6692323544   -4.1653648944   -1.4844662219
 H    1.5766591990    1.7102006221    0.5292200847
 H   -0.0763619189    1.9916955907   -0.0313806227
 H    0.2166680306    1.4994116348    1.6395907846
 H    0.8203516783   -0.2323649871   -0.8288623551
 H    1.0746768367   -0.7381694762    0.8312630166
 H   -1.4132684634   -0.3582386351    1.2523675188
 H   -1.6296917426   -0.1434567025   -0.4721628473
 H   -0.6773061667   -2.5622913001    1.9771392747
 H   -3.2228457065   -2.1029817760   -0.5557734669
 H   -2.7307246492   -3.6592739593    0.0955336223
 H   -4.3454065130   -2.6391030052    1.6191117879
 H   -2.7925645783   -2.7159256565    2.4369450311
 H   -3.3804446097   -1.1744700981    1.7885000741
 H   -1.1277996187   -2.1165428572   -2.0360254522
 H    0.4440411482   -2.3443875168   -1.2846090669
 H   -0.1074243645   -4.4244525901   -2.3873627410
 H   -0.2327267453   -4.7097080207   -0.6433523165
 H   -1.6932878980   -4.5229450743   -1.6272518241