16

 O    0.3168773947    1.2242208054   -0.3963141878
 C    0.0415385511   -0.1060224559   -0.0628966289
 C    0.1779153237   -0.5586177781    1.4290942629
 O    1.0870319325   -0.5748806521    2.2039378291
 C   -1.3159073778   -0.9014961999    1.4854895985
 N   -1.9818695513    0.4300204782    1.6813974911
 C   -2.4954612646    0.4468579548    0.2883863275
 C   -1.4494027025   -0.6303162367   -0.0503638076
 O   -1.7541724861   -1.6653465769   -0.9274415523
 H   -0.0012742426    1.7749705860    0.3288087422
 H    0.6459248416   -0.7474664672   -0.7163598578
 H   -1.7233565047   -1.7661370582    2.0108967251
 H   -2.6686756368    0.4595148227    2.4238663913
 H   -3.5105061888    0.0456927412    0.1745645757
 H   -2.4199868596    1.4159282102   -0.2161741476
 H   -1.5567882289   -1.3759962435   -1.8255044314