20

 C   -0.1628380194    1.4865472209    0.0264856484
 N   -0.1289990120    0.0439497755    0.1007868553
 C   -1.2590949054   -0.6532692907    0.7505922853
 C   -0.2429376168   -1.6372167940    1.3673514580
 C    0.8308160423   -0.5885839522    1.0254848351
 O   -0.3935748561   -2.0503173337    2.7314060937
 C   -0.4905486295   -3.4431573851    2.3623907208
 C   -0.1761102585   -3.1006541445    0.8876796141
 O   -1.1416296912   -3.4245306889   -0.0797355200
 H    0.7754244028    1.8597433569   -0.3982136530
 H   -0.9782703270    1.8054672665   -0.6315265926
 H   -0.3089999731    1.9700227981    1.0120997619
 H   -1.7428891490   -0.0675368923    1.5496685917
 H   -2.0140318824   -1.0540687085    0.0693942881
 H    1.7691051511   -0.9276122486    0.5701777716
 H    1.0593505449    0.0189250760    1.9173804947
 H    0.2328371735   -4.0628814311    2.9044983424
 H   -1.5034053183   -3.8403799232    2.5023884955
 H    0.8312140333   -3.3990574566    0.5714480033
 H   -0.9539238691   -4.3029672044   -0.4228439143