16

 C   -0.2915761207    1.4166389991   -0.1226154891
 C   -0.0118557309   -0.0453826220    0.0233835450
 C    0.4829113762   -1.1216690812   -0.9463108034
 C    1.2644378542   -1.8620953903    0.1478552068
 C    0.7823936410   -0.7493605700    1.1266105922
 O    1.0763558055   -0.4422022071    2.2419671317
 N   -0.8929664579   -1.1024312994   -0.5168815893
 C   -1.9708122554   -0.8666715872   -1.3559716463
 O   -2.0817833900   -1.3109766865   -2.4726410613
 H    0.6125696227    1.9942864671    0.0894824682
 H   -0.6296185686    1.6572765827   -1.1350262868
 H   -1.0634950254    1.7399237323    0.5832602330
 H    0.7335058043   -0.9975896028   -1.9913455779
 H    0.9544905671   -2.8875884915    0.3548696902
 H    2.3512648610   -1.8136505558    0.0340676916
 H   -2.7653123631   -0.2906988472   -0.8467362246