22

 C   -0.7895376675   -0.1536691661    0.6223382319
 O    0.1375497970   -1.0230040530    0.0084769195
 C    0.6410266033   -0.6075359265   -1.2559815180
 C    1.7796654073   -1.6000772050   -1.5671093631
 C    2.9750704041   -1.4241206756   -0.6286570486
 O    1.2770705015   -2.9281687569   -1.5302889977
 C   -0.4213774798   -0.6189346747   -2.3375686839
 C   -1.2019503050    0.6029573622   -2.6572300432
 N   -0.1761526921    0.1132069348   -3.5921289416
 H   -0.3801950325    0.8629971080    0.7238705904
 H   -1.7352178590   -0.0945797486    0.0693014436
 H   -0.9868398714   -0.5537087543    1.6199729197
 H    1.0546688001    0.4147069680   -1.1766548997
 H    2.0986543361   -1.4347821577   -2.6026486494
 H    3.7266863413   -2.1883259605   -0.8415816833
 H    3.4366108592   -0.4383139030   -0.7543140826
 H    2.6590689799   -1.5234537722    0.4138725077
 H    0.8135202171   -3.0096175324   -0.6872740862
 H   -0.8795196513   -1.5930405277   -2.4860861720
 H   -2.2246359895    0.5191271795   -3.0141423453
 H   -0.9952851683    1.5062270475   -2.0874698748
 H    0.6654243094    0.6805308342   -3.5024675634