18

 O   -0.1138447385    1.4023447570   -0.0749051805
 C   -0.0296741670   -0.0054930816    0.0223090799
 C   -1.3974641411   -0.6257567227   -0.0272540690
 C   -2.4909959922   -0.4456711430   -1.1147123111
 C   -3.1266760725   -1.2006244023    0.0941349040
 C   -1.8645477385   -2.0992706849    0.1513191413
 N   -2.4569328954   -0.1554308584    0.9806650657
 C   -4.5653934432   -1.5643465657    0.2591003461
 O   -4.9934614193   -2.6846023327    0.1432177905
 H   -0.8508455028    1.6715563432    0.4880209822
 H    0.5772537883   -0.3556824686   -0.8201731833
 H    0.4799583692   -0.3227207460    0.9487647679
 H   -2.8413117024    0.5741327377   -1.2685017147
 H   -2.3771219641   -1.0134429013   -2.0383166051
 H   -1.6965120763   -2.7964996049   -0.6731997580
 H   -1.6542076528   -2.5585781287    1.1212327883
 H   -2.2573040052   -0.5853947045    1.8910711359
 H   -5.2273168260   -0.6994570129    0.4891856698