19

 C   -0.0252142818    1.3574705604    0.0198048620
 O    0.0925695998   -0.0672732174    0.0060855177
 C    0.6835075304   -0.5742590860   -1.0784394977
 N    1.1772012209    0.0872659155   -2.0612295915
 C    1.6762046865   -0.8870036993   -3.0095237642
 C    1.5136266532   -0.5345044279   -4.4650272837
 C    2.8290017969   -1.7556555314   -2.5400156515
 C    1.4170043626   -2.2631863361   -2.3808370887
 N    0.8029049022   -1.9544273082   -1.1083254420
 H    0.9623389963    1.8238836028   -0.0277208815
 H   -0.6163866861    1.7049487650   -0.8320202980
 H   -0.5230686607    1.6046394947    0.9580663941
 H    2.1133606395    0.3473600526   -4.7149448900
 H    1.8382490952   -1.3584254154   -5.1079604021
 H    0.4685578442   -0.3054265265   -4.6978850505
 H    3.4288619889   -2.2286168972   -3.3110223029
 H    3.3720783652   -1.4639710399   -1.6466116477
 H    1.0631627012   -3.1446798081   -2.9021865457
 H    0.0386440256   -2.5140211576   -0.7614255662