21

 C   -0.0137507172    1.3377846730    0.2869740030
 O   -0.0583010931    0.0299496103   -0.2533757810
 C   -1.2975059340   -0.5918611226   -0.0827769710
 C   -1.3360115526   -2.1109616929   -0.4051907048
 C   -1.0821920442   -2.7503043028   -1.7414859793
 C   -0.5422163092   -2.3447819869    0.9241904420
 C   -1.6398964531   -1.2897982998    1.2603131805
 O   -1.8507219348   -0.6028420875    2.4434931565
 C   -2.6429779200   -2.1598716800    0.4464937592
 H    0.9786930916    1.7412678415    0.0721737322
 H   -0.7694618018    1.9893678588   -0.1785669678
 H   -0.1793898941    1.3345145406    1.3717955010
 H   -2.1068892463    0.0162148269   -0.5163282023
 H   -0.0868735947   -2.4847092358   -2.1120848317
 H   -1.1394589673   -3.8419771463   -1.6758704896
 H   -1.8170811295   -2.4187957018   -2.4831932588
 H   -0.6593663136   -3.3318608889    1.3821166615
 H    0.4907879700   -1.9991902635    0.9390225043
 H   -1.9853773244   -1.2425564673    3.1511811388
 H   -3.5226931967   -1.6554543477    0.0355052358
 H   -2.8954072749   -3.1346367075    0.8717713013