19

 C   -0.6646605264   -0.9610660772   -0.9065905721
 C   -0.3645014239    0.0973055575   -0.4222098809
 C   -0.0165312335    1.3789048609    0.1669531237
 C   -0.2538862791    1.4797774178    1.6970333793
 C    0.6600863775    2.6395998624    2.1795559737
 C    1.5259781151    3.0427922207    0.9589687351
 C    1.4739396907    1.8228590325    0.0055158300
 C    2.4179996818    0.7825555230    0.3979597525
 C    3.2054325842   -0.0582439770    0.7419472960
 H   -0.9217933570   -1.8983545744   -1.3337631506
 H   -0.6125088028    2.1587260802   -0.3264155643
 H   -1.3104392295    1.6415061155    1.9222225450
 H    0.0377000467    0.5361471913    2.1640563633
 H    0.0816239353    3.4913123096    2.5468187748
 H    1.2907904378    2.3048142400    3.0066529406
 H    1.0836440571    3.9017112182    0.4428851556
 H    2.5490497083    3.3112254631    1.2282829513
 H    1.6743733294    2.1132339583   -1.0310950379
 H    3.8975809185   -0.8097803324    1.0308801149