22

 C   -0.3112759943    1.4164106175    0.1733450224
 C    0.0407730379   -0.0328145077   -0.0595691468
 C   -0.7260045806   -1.1227034503    0.6008434402
 N    0.6312229443   -0.7895425021    1.0627631166
 C    1.6784825080   -1.6725433312    0.5210780104
 C    1.6558726841   -1.6132073362   -1.0358310118
 C    1.1994417021   -2.9093686077   -1.7037708810
 O    2.1291605848   -3.9237809477   -1.3525578694
 C    0.7515448796   -0.3964111874   -1.3623519828
 H    0.5767495698    2.0534257785    0.0891620469
 H   -1.0445247308    1.7647634198   -0.5632835834
 H   -0.7350614235    1.5565798174    1.1709702125
 H   -1.5165550288   -0.8769219997    1.3059104295
 H   -0.8837177433   -2.0551594038    0.0649731072
 H    2.6386984680   -1.3091556766    0.9001931492
 H    1.5525715309   -2.6945217071    0.8908559036
 H    2.6717376542   -1.4354746475   -1.4019113060
 H    0.1813500481   -3.1806483817   -1.3826863594
 H    1.1660915961   -2.7631736808   -2.7958335409
 H    1.8282451920   -4.7552486591   -1.7301184963
 H    0.0430492112   -0.6106453501   -2.1710836887
 H    1.3546347900    0.4559127636   -1.6924235822