25

 C   -1.4479595040    2.0228805885    0.1997624385
 C   -0.9645081484    0.5714652779    0.0957937002
 C   -2.0838245302   -0.4425105003    0.1147036675
 C   -3.1547449908   -0.6637822428    1.2348069630
 C   -3.4747568061   -1.7190589108    0.1373503267
 C   -3.2870954788   -0.5570600500   -0.8799983438
 C   -1.9347496531   -2.0195587449    0.0258001028
 C   -1.3957428867   -2.6315830945   -1.2741475631
 C   -1.2420330507   -2.7553787356    1.1806505469
 H   -0.6058325399    2.7214393520    0.1822377550
 H   -2.1123232435    2.2790664496   -0.6321093962
 H   -2.0015840063    2.1897524311    1.1296396359
 H   -0.3839324075    0.4434163723   -0.8277788797
 H   -0.2739744884    0.3546860566    0.9220026447
 H   -2.8220524791   -1.0082931340    2.2127186109
 H   -3.8934088576    0.1344617525    1.3448617816
 H   -4.2854524674   -2.4508479888    0.1511677932
 H   -4.0287041593    0.2435310174   -0.8167322835
 H   -3.0807457981   -0.7996523399   -1.9212723485
 H   -1.8081878196   -2.2026680894   -2.1873932781
 H   -0.3061949233   -2.5185891449   -1.3220484972
 H   -1.6036642253   -3.7077828483   -1.2960974330
 H   -1.4531919090   -3.8295147472    1.1209634952
 H   -0.1542592532   -2.6417675696    1.1030820877
 H   -1.5341476238   -2.4220117969    2.1764581733