21

 C   -0.3824538170    1.6016295469    0.1582616962
 C   -0.0956455468    0.1122810263    0.0030383183
 O    0.6165310309   -0.0559525730   -1.2463627478
 C    0.1936372694   -0.9936911557   -2.1092012305
 O    0.7557645473   -1.2349090736   -3.1356140632
 C    0.7247030547   -0.4972077890    1.1280620192
 C    2.1044928329    0.0971285083    1.3423703528
 C   -0.0481738115   -0.9803051701    2.3325949645
 C    0.5448853059   -1.9781198300    1.3675275240
 H    0.5430972559    2.1817477144    0.1345488810
 H   -1.0230601379    1.9528273104   -0.6549337076
 H   -0.8885615874    1.7904285030    1.1091939961
 H   -1.0470501402   -0.4332853454   -0.0680464145
 H   -0.7318068236   -1.5024712160   -1.7723827294
 H    2.0518049020    1.1423104868    1.6651753065
 H    2.6454096501   -0.4574377734    2.1146115375
 H    2.6921154351    0.0556733863    0.4204579635
 H    0.4143746162   -0.8667727469    3.3070380319
 H   -1.1270629093   -0.8609214778    2.3412084002
 H   -0.1355665315   -2.5311844818    0.7278445230
 H    1.4116784448   -2.5478947697    1.6834725185