19

 C    0.0814015592    1.4746863503   -0.1878173217
 C   -0.0447942555   -0.0348145360    0.0469176983
 C    0.7505574424   -0.8412015863   -1.0041699879
 O    2.0929556548   -0.8857666963   -0.5168947568
 C    2.0083259008   -1.0444324492    0.8792824784
 C    0.6314627916   -0.4663754335    1.3651238720
 C    0.2219613078   -1.8512925654    1.9488561786
 C    1.5275277629   -2.4449925406    1.3857184605
 O    1.9802296488   -3.5487062038    1.3230985536
 H    1.1341791955    1.7736530536   -0.2226768251
 H   -0.3815247545    1.7655491840   -1.1363149805
 H   -0.4052965956    2.0421308948    0.6117747313
 H   -1.1009480967   -0.3241315563    0.0330099795
 H    0.3479813315   -1.8601075750   -1.1125346920
 H    0.7735190980   -0.3735140588   -1.9915158884
 H    2.9357620082   -0.6883665097    1.3355961365
 H    0.6722783915    0.3409262809    2.0963406822
 H    0.1724753261   -1.8934275729    3.0413861119
 H   -0.6919753667   -2.3035835400    1.5496207796