15

 C   -0.0730861907    1.5526868717   -0.0022447416
 C    0.0550862381    0.0298641484   -0.0026086912
 N    0.7500425580   -0.4876986835   -1.1956402258
 C    2.1123032315   -0.8001389491   -1.1119322993
 O    2.8005942665   -1.1871564804   -2.0157665778
 C   -0.0086149086   -0.6150739596   -2.3523280951
 O   -1.1810003910   -0.3145348941   -2.3922092377
 C    0.6365671953   -1.1428922872   -3.5571315609
 N    0.9600106503   -1.5398175063   -4.5930733319
 H    0.9094613148    2.0334273838   -0.0299027748
 H   -0.6544471453    1.8897595996   -0.8628643526
 H   -0.5869269376    1.8780205290    0.9068717864
 H    0.6198334944   -0.3146455242    0.8677813407
 H   -0.9303787555   -0.4375991053    0.0283854505
 H    2.4869910599   -0.6446154530   -0.0841503188