19

 C    0.1357038940    1.0114334729   -0.4756359453
 O   -0.1936976518    0.1136248481    0.5712763316
 C   -1.3410890427   -0.6207432765    0.3082532933
 C   -1.4095037031   -1.7092520291   -0.7163636362
 O   -0.1599668552   -2.3792156406   -0.8635274094
 C   -0.2409906483   -2.8642291997    0.5155821333
 C    1.0536562951   -2.6557070113    1.2783784768
 O    2.1006606042   -3.3948223496    0.6680259981
 C   -1.5011090705   -2.0376137308    0.7804826043
 H    1.0318533906    1.5510031163   -0.1618904366
 H    0.3422990520    0.4734399268   -1.4097382853
 H   -0.6720123398    1.7365236209   -0.6540371803
 H   -2.2703683513   -0.0479947616    0.3785350588
 H   -2.1201048522   -1.7805715922   -1.5328758202
 H   -0.4751365590   -3.9356787722    0.4818732620
 H    1.2842181954   -1.5873606165    1.3402159290
 H    0.9420625009   -3.0472640376    2.2960366295
 H    2.1708920212   -3.0678892939   -0.2361153796
 H   -2.3336626495   -2.3603344633    1.3911326763