18

 O   -0.0634497458    1.3903447643    0.0180052837
 C   -0.0261821769    0.0020691569    0.0043299283
 C   -0.4270656833   -0.7140378886   -1.2759457401
 C   -1.3328266780   -0.7465539528   -0.0667841442
 C   -1.4579897929   -2.0525492847    0.7147507409
 C   -0.3573547049   -2.1733241961    1.7623759546
 O    0.9490748383   -1.8622541085    1.2301636356
 C    1.0980148542   -0.5842400273    0.7863618106
 N    2.1496743823    0.1008285479    0.9594764701
 H    0.8539965027    1.6616494792    0.1751330202
 H   -0.6963126061   -0.0587103633   -2.0957852139
 H    0.0885256539   -1.6286612444   -1.5515708621
 H   -2.2112939378   -0.1122068939   -0.1130328978
 H   -2.4247363850   -2.1031666032    1.2265444286
 H   -1.4154674845   -2.9071256663    0.0302250926
 H   -0.5532647591   -1.5006538875    2.6071711183
 H   -0.2702152339   -3.1912864808    2.1478413717
 H    2.8378004767   -0.4108881308    1.5119424830