17

 C   -0.0199871349    1.5169009898   -0.0119785081
 C   -0.0348778210    0.0178628268   -0.0014864408
 C   -1.1680973764   -0.7294419875   -0.1120945867
 C   -1.1623050342   -2.1604987240   -0.0926422946
 N   -2.3736879212   -2.8589486325   -0.2852566583
 C    0.0453153487   -2.7756228634    0.0382939669
 N    1.1933399296   -2.0259860222    0.1269082097
 C    1.2669976057   -0.6358901277    0.1269070915
 O    2.3449860926   -0.0603452213    0.2257458262
 H    0.6058502741    1.8891539721   -0.8301565794
 H   -1.0270361591    1.9279149230   -0.1175258704
 H    0.4296113521    1.9039588014    0.9088765640
 H   -2.1272355770   -0.2285200638   -0.2270162737
 H   -3.1412620657   -2.4550982416    0.2376744823
 H   -2.3024766522   -3.8421715466   -0.0558302211
 H    0.1707578559   -3.8509904577    0.0672429694
 H    2.0871680228   -2.4876828947    0.2158154831