19

 C   -0.0980239691    1.4400862770   -0.2536209229
 O    1.0516759212    2.0398661918    0.3428194324
 C    1.8890671129    1.0656661537    0.9783838245
 C    1.8213309274    1.2704203515    2.4975387334
 C    0.3662513333    1.1803080252    2.9486950420
 O   -0.3048638790   -0.0135566437    2.5352731652
 C    0.0813314202   -0.6406677459    1.3509922357
 C    0.0027963714   -0.0588771769   -0.0462790409
 C    1.3456583182   -0.3115040107    0.6137568306
 H   -1.0020156889    1.8722887771    0.1967949303
 H   -0.1125602400    1.6740877757   -1.3266428222
 H    2.9131283294    1.1959115855    0.6108417778
 H    2.4393710467    0.5126171785    2.9938283936
 H    2.2108859481    2.2564224639    2.7703268534
 H    0.2926518796    1.1898208796    4.0402104210
 H   -0.1737107973    2.0562794606    2.5679139599
 H   -0.1894003684   -1.6905724106    1.4151961554
 H   -0.3666226962   -0.7034029926   -0.8362513666
 H    2.0383855403   -1.0828740199    0.2983129475