16

 C    0.0011028814   -3.7993361051   -0.0186830855
 C   -0.0021491209   -2.5919630727   -0.0118953712
 C   -0.0058679933   -1.2312022272   -0.0042245423
 C   -0.0092264965   -0.0212520703    0.0025646556
 C    0.0102937414    1.4323878678    0.0102122660
 C    1.4414456593    2.0082654948   -0.0009802327
 C    1.4224624085    3.5490964832    0.0075584087
 C    2.7658050793    4.1229595252   -0.0026513366
 N    3.8348319727    4.5612240238   -0.0112167139
 H    0.0053877620   -4.8610628110   -0.0246836183
 H   -0.5442907711    1.8097559280   -0.8600686319
 H   -0.5267547266    1.8002761070    0.8954212849
 H    1.9917688780    1.6419223033    0.8701560619
 H    1.9742163066    1.6514098761   -0.8868434777
 H    0.8762681345    3.9284631080   -0.8644044360
 H    0.8938536348    3.9189435891    0.8943075589