15

 C   -0.2868319487    1.3718010272    0.0973474859
 N   -0.0599058632   -0.0572000372   -0.0407881435
 C   -0.0170745007   -0.8511387702    1.1745677464
 C   -1.2989059982   -0.8412286276    1.8947139176
 N   -2.3027427067   -0.8097550244    2.4653236092
 C    0.1239332254   -0.7202792219   -1.2326544396
 O    0.3186450744   -1.9214121532   -1.3029897202
 C    0.0818695149    0.0985375152   -2.4336826660
 C    0.0653588374    0.6819797521   -3.4849811843
 H    0.5161894275    1.8339270379    0.6847990329
 H   -0.3108522889    1.8326401743   -0.8886414849
 H   -1.2406722966    1.5618663571    0.6016647206
 H    0.2358440194   -1.8745326183    0.8860805872
 H    0.7623451589   -0.4760755521    1.8505338437
 H    0.0501296252    1.1943445712   -4.4163797951