18

 C    1.1839990921    0.8356377048   -0.3736350668
 N   -0.0784409696    0.2731350724    0.0973260901
 C   -0.6730819907   -0.6714913281   -0.8310957734
 C    0.0515592548   -2.0007900327   -0.9990822065
 N    0.7370416217   -2.4575048064    0.0558144643
 C    1.3390962743   -3.6388984564   -0.0871011552
 C    1.2645929740   -4.3750274316   -1.2627255735
 C    0.5227489238   -3.8091371690   -2.2931965313
 N   -0.0830155200   -2.6271027509   -2.1750046824
 H    1.9623244574    0.0892430247   -0.6051756164
 H    1.0023570616    1.4236899996   -1.2805495329
 H    1.5822466409    1.5137595663    0.3868802070
 H    0.0845766831   -0.2090882130    0.9757349356
 H   -1.6948154525   -0.9000725937   -0.4953968291
 H   -0.7723409475   -0.2110165628   -1.8189495947
 H    1.8979491016   -4.0059675934    0.7714492859
 H    1.7577780139   -5.3333221195   -1.3705058857
 H    0.4117952010   -4.3170583503   -3.2491904549