24

 C    2.3027647800   -2.2804161961    1.1672452973
 N    1.5909641770   -1.3277519673    0.3265580808
 C    0.1360955876   -1.2822065931    0.4478376609
 C    0.9680544967   -0.1360732615    0.9121144770
 C    1.0835089247    0.3351641173    2.3528187576
 C    2.4858128362    0.9080347444    2.6014657452
 C   -0.0246071077    1.3657859067    2.7575369464
 C   -0.1486608023    0.6649253942    4.1357525958
 C    0.6048691901   -0.5565931065    3.5480054405
 H    1.8778159128   -2.4254578805    2.1710421559
 H    2.3071992899   -3.2515652958    0.6608489385
 H    3.3436951273   -1.9597067372    1.2786598717
 H   -0.4214502581   -1.2235489544   -0.4844129117
 H   -0.3272095257   -1.9131775291    1.2047161398
 H    1.0313931522    0.7158188414    0.2308376755
 H    2.7231443869    1.6855448913    1.8666823747
 H    2.5601712313    1.3570286743    3.5975057821
 H    3.2535468942    0.1316565689    2.5271438844
 H    0.2607860924    2.4215091508    2.7476506657
 H   -0.9273627556    1.2423099249    2.1523673433
 H    0.4213529652    1.1735719806    4.9172287630
 H   -1.1583449263    0.4881453401    4.5124767789
 H   -0.0865909862   -1.3439794585    3.2414108921
 H    1.3899914076   -1.0083894849    4.1608352345