23

 C   -0.0639548416    1.5344247546    0.1011240861
 C   -0.0473479389    0.0109639737   -0.0272645245
 C    0.7456669390   -0.5095266343   -1.2484046949
 C    2.1481660955   -0.0879813100   -1.2049176288
 C    3.3148374520    0.2099037035   -1.1307253063
 C    4.7157511130    0.6056886225   -1.0625746685
 C    0.6679600983   -2.0610629885   -1.3431604664
 C    1.1987978972   -2.6002883097   -2.6716521206
 O    1.3166312444   -2.6689204890   -0.2359935123
 H    0.9498186603    1.9323334486    0.2046013424
 H   -0.5174965580    2.0038131757   -0.7795198020
 H   -0.6410060964    1.8455763503    0.9773978628
 H    0.3754246425   -0.4463585423    0.8726274570
 H   -1.0747229129   -0.3638127435   -0.1153293435
 H    0.2829559204   -0.0998367035   -2.1581535864
 H    5.3504127793   -0.0666133067   -1.6502848403
 H    4.8586547252    1.6193713558   -1.4528069394
 H    5.0854326486    0.5932273610   -0.0313741761
 H   -0.3874113287   -2.3398966556   -1.2390575768
 H    2.2406867860   -2.2989228650   -2.8230239619
 H    1.1499047274   -3.6923276245   -2.6740711765
 H    0.6108686377   -2.2233259794   -3.5155857520
 H    2.2227992197   -2.3336879636   -0.2300813112