19

 C    0.0594566430    1.5088853198    0.0081412512
 C   -0.0116258215   -0.0202964707    0.0023095167
 C   -1.4443167099   -0.5291201534    0.0121191771
 O   -1.4165780826   -1.9517124153    0.0062025765
 C   -2.6234687643   -2.5573251951    0.0132741280
 C   -3.8808607373   -2.0234938568    0.0258105385
 O   -4.8048200373   -3.0348055328    0.0288177754
 C   -4.1193036421   -4.2016869247    0.0180304632
 C   -2.7800420414   -3.9830757924    0.0083206957
 H    1.0978408437    1.8514126349    0.0006768078
 H   -0.4373335501    1.9358882804   -0.8699777249
 H   -0.4221818860    1.9284330220    0.8982096681
 H    0.4952370465   -0.4217238601   -0.8824698385
 H    0.5098548395   -0.4290975092    0.8751384703
 H   -1.9812861227   -0.1755981450    0.9059727547
 H   -1.9959893008   -0.1685168556   -0.8698666141
 H   -4.2734639256   -1.0230410672    0.0334014595
 H   -4.7179294438   -5.0977772139    0.0188411950
 H   -1.9899301373   -4.7161559150   -0.0012480705