19

 C   -0.0159257284    1.5367073321    0.0490434257
 C   -0.0130322017    0.0337680833   -0.0261806684
 C   -0.0418249473   -0.6229098639   -1.1891382201
 C   -0.0049927121   -2.1235116379   -1.3256495481
 C    0.4104960749   -2.8154845093   -0.0198862124
 C   -0.3124638075   -2.1868215216    1.1758216503
 C    0.0322443812   -0.6963194402    1.2991402295
 H    0.8636046349    1.9072786581    0.5924993067
 H   -0.0167221348    1.9933821558   -0.9444615765
 H   -0.8933489397    1.9063235799    0.5960668185
 H   -0.0921279259   -0.0521715152   -2.1151139302
 H   -0.9935966406   -2.4880200082   -1.6452527301
 H    0.6803736703   -2.4028003478   -2.1364362449
 H    0.2059455117   -3.8900462004   -0.0771725971
 H    1.4942737471   -2.7067289693    0.1183203792
 H   -1.3962699744   -2.2969351707    1.0385718919
 H   -0.0586203085   -2.7106101565    2.1038768375
 H    1.0338663121   -0.5758821559    1.7405338629
 H   -0.6521998513   -0.2084035022    2.0063534355