15

 O   -0.0141194634   -0.0387936979   -0.2299359129
 C   -0.0142535010    1.1625523622   -0.0403764762
 N   -1.1681794233    1.8785668326    0.1936227957
 C   -1.2194496778    3.3242830114    0.0580756073
 C   -0.0274776315    3.9431923585    0.8177792891
 C    1.2576127702    3.2362243499    0.4243224062
 C    1.2369263241    1.9669402438    0.0182521138
 C    0.0444393906    5.3854041055    0.5745216463
 N    0.0950633407    6.5227216985    0.3788230764
 H   -2.0168514473    1.3557759230    0.0311001931
 H   -1.1712717053    3.6443945117   -0.9929859024
 H   -2.1600912266    3.6901808694    0.4757823571
 H   -0.1855700367    3.8003046879    1.8973055261
 H    2.1859481801    3.7903592819    0.5183406408
 H    2.1408463073    1.4268233514   -0.2372547903