21

 C   -0.1177066443    1.6235893464    0.3212502033
 C    0.0132359327    0.1123462836    0.1963764044
 C    1.0842094704   -0.5522337650   -0.7162636873
 O    1.1100628011   -0.3727698061   -2.0860881764
 C    2.1750026486   -0.1626095351    0.3326795374
 C    0.9472595817   -0.7162171083    1.1251594599
 O    0.7693817922   -0.7806692338    2.4939105584
 C    0.8935463543   -1.8914074119    0.0833851254
 C   -0.3201021665   -2.7909138251   -0.0869417565
 H    0.8350186729    2.1443718856    0.4381857704
 H   -0.6094627876    2.0309815088   -0.5683195914
 H   -0.7394935235    1.8746665675    1.1869696428
 H   -0.9832489309   -0.3194167753    0.0838370302
 H    1.8779730075   -0.8334728954   -2.4408338877
 H    3.0775634006   -0.7825610348    0.3445887414
 H    2.4163091698    0.8931055249    0.4446316942
 H    1.4830542101   -1.3062328249    2.8710479986
 H    1.8064334932   -2.5018967748    0.0969283772
 H   -0.2437211915   -3.3590899457   -1.0206498499
 H   -0.3740529893   -3.5153185244    0.7333053852
 H   -1.2701254117   -2.2531358359   -0.1096375894