16

 C   -0.3015728960    1.5273838836   -0.1268949014
 C    0.0928855174    0.0676992031   -0.0655445737
 O    1.1193297676   -0.2068740507   -1.0329881046
 C    1.9676949111   -1.1642830588   -0.5556725495
 O    2.8674358818   -1.6383485151   -1.1871675338
 N    1.5806436462   -1.4795100493    0.7389333072
 C    0.6986059437   -0.4496121703    1.2777102409
 C    1.4062535730    0.5551272400    2.0738032832
 C    2.0029397508    1.3533452773    2.7456313376
 H    0.5525734405    2.1696638605    0.0970626719
 H   -0.6750515100    1.7674703189   -1.1253322435
 H   -1.0946302835    1.7349277421    0.5980256758
 H   -0.7655881479   -0.5729072964   -0.3038542393
 H    2.2895297319   -1.8939492591    1.3247489599
 H   -0.0956526240   -0.8944522312    1.8866772913
 H    2.5315110175    2.0619084655    3.3352507279