18

 C   -0.0775835454    1.4364880418    0.0642415029
 N    0.0359334443   -0.0041271437    0.0291054357
 C    0.0144491765   -0.7628858638   -1.1307368374
 C    0.0443928119   -2.0852162524   -0.7588728831
 O    0.0553046938   -3.1293664298   -1.6411835777
 C    0.0717001183   -2.1431023102    0.6604849699
 C    0.0624342851   -0.8405514898    1.1153746528
 C    0.0579883956   -0.3316637281    2.5219419400
 O    0.2999993509   -1.4293585583    3.3841304593
 H    0.6231428998    1.8644779270    0.7878581078
 H    0.1687126235    1.8366628983   -0.9210829502
 H   -1.0910463040    1.7658162752    0.3271277988
 H   -0.0120892807   -0.3015698627   -2.1033387268
 H    0.0808768918   -3.9462352589   -1.1353898510
 H    0.1132950335   -3.0213501991    1.2853743746
 H    0.8284708939    0.4499290537    2.6498379544
 H   -0.9096709024    0.1473206843    2.7577880969
 H    0.1683804038   -1.1299640837    4.2878495131