20

 C    0.8745846679    1.2722538990    0.1767247653
 C   -0.1249890983    0.1537221855   -0.1388317383
 C    0.2968223549   -0.6477425023   -1.3518531670
 N    1.3199940691   -1.6884206475   -1.1551224427
 C   -0.0272076216   -2.0794697654   -1.6041323699
 C   -0.8042035544   -2.9546741366   -0.6552909506
 O   -0.4063675003   -4.3262122177   -0.8074302185
 C    0.6215916104   -4.7544232125   -0.0444448819
 O    1.0804435913   -5.8522316354   -0.1490089264
 H    1.8659304834    0.8546589187    0.3772161317
 H    0.9668761035    1.9707508761   -0.6625182004
 H    0.5622344827    1.8457278694    1.0542176231
 H   -0.2155263896   -0.5070029484    0.7287135375
 H   -1.1198082958    0.5797112263   -0.3218562727
 H    0.3910334415   -0.0441512196   -2.2556091928
 H    1.9797281690   -1.7123622975   -1.9270002500
 H   -0.1422663811   -2.3725473488   -2.6464290972
 H   -0.6582478563   -2.6357355923    0.3811771661
 H   -1.8736826417   -2.9329777495   -0.8805297037
 H    0.9705489755   -3.9913719113    0.6749835284