19

 C   -0.5875573864    1.1706707211   -0.3039339670
 C    0.7808453613    1.2550618223    0.3182205313
 C    0.1914401727   -0.0888039297   -0.0578888548
 C   -0.1741315044   -1.0441289308    1.0337149757
 O   -1.2304362788   -0.6875697038    1.9405291259
 C   -1.4138825297   -1.8413728139    1.1261560336
 C   -2.5502432766   -1.8617817504    0.1504599520
 C   -3.8373375111   -1.2226371514    0.4635573888
 O   -2.9455654271   -0.6674545881   -0.5060072790
 H   -1.4447844684    1.3411255631    0.3327545355
 H   -0.7164651406    1.4919431055   -1.3309975181
 H    1.6070550543    1.6353544175   -0.2724083888
 H    0.8350724803    1.4959648498    1.3749620241
 H    0.6331050603   -0.5783529540   -0.9223398660
 H    0.6894245323   -1.4754189245    1.5479048086
 H   -1.3434290593   -2.7876361884    1.6718174946
 H   -2.5604652340   -2.7523100833   -0.4818214275
 H   -4.7615248046   -1.6395771212    0.0671405090
 H   -3.9249878402   -0.6514232198    1.3852511622