20

 C    0.2588714764    1.4882343740    0.1359680021
 C   -0.2531533989    0.0638770841   -0.0619366922
 N    0.4894374646   -0.5877946258   -1.1398119264
 C    1.7350651453   -1.2668018630   -0.9431480819
 C    1.8122653607   -2.0964367066    0.3542239740
 C    0.5146283284   -2.8541115948   -0.0596532727
 C    0.4536255923   -2.0222499276   -1.3514212809
 C    0.1156469593   -2.5292803262   -2.6929140851
 O   -0.2079717805   -3.6706604964   -2.9235044385
 H    1.3077640402    1.4871036732    0.4501490897
 H    0.1856089941    2.0574018850   -0.7946904234
 H   -0.3235982620    2.0010753258    0.9071113382
 H   -0.2044740740   -0.4832339345    0.8903027685
 H   -1.3052581797    0.0785231126   -0.3667152236
 H    2.5772123921   -0.9922264043   -1.5703876807
 H    2.6878281217   -2.7477843920    0.3680851965
 H    1.7885075928   -1.5270515325    1.2878124879
 H    0.6915947268   -3.9066118567   -0.2829961805
 H   -0.3497921863   -2.7759364107    0.6044973279
 H    0.1990670169   -1.7609567034   -3.4923148489