18

 O   -0.3616531022    1.4425885466   -0.4407325304
 C    0.0305529716    0.1450719966    0.0120135352
 C   -1.1609494167   -0.8147455268    0.2950013608
 C   -1.1622465062   -1.8203923328   -0.8637615293
 C   -1.8099947184   -3.1813780626   -0.7484143586
 C   -2.4053738138   -2.1521675427   -1.6700341666
 C    0.1487536270   -1.6310253955   -1.5360691935
 C    0.8283755526   -0.5954664670   -1.0384345448
 H   -0.7130410523    1.3350844888   -1.3318539339
 H    0.6033289324    0.3460584315    0.9227773145
 H   -0.9974026040   -1.3375620972    1.2433950833
 H   -2.0904281627   -0.2465097799    0.3860655642
 H   -1.2983155399   -4.0311076859   -1.1887969667
 H   -2.3343591403   -3.4077310480    0.1745246357
 H   -3.3331383729   -1.6738399255   -1.3732226545
 H   -2.3001001245   -2.2966629946   -2.7403828962
 H    0.4805527688   -2.2776595218   -2.3426284678
 H    1.7966111816   -0.2461269131   -1.3775561415