16

 O   -0.0220921552    0.0785255524    0.0482206117
 C    0.0590540168    1.2669433601    0.0323277625
 O   -1.0298555421    2.1189799940    0.0505255665
 C   -0.3889002828    3.4312887636    0.0195401843
 C    0.6875112901    3.2443054858   -1.0743192617
 C    1.2450906115    2.2265539117   -0.0135139380
 C    0.7414635856    3.2527177410    1.0369840105
 C    1.4479694436    4.2623747371    1.8400657316
 N    0.7312446175    3.1241664613    2.4692071931
 H   -1.1454970899    4.2126009765    0.0374004897
 H    0.3469747934    2.8436598972   -2.0303537737
 H    1.3337158236    4.1127603647   -1.2064518185
 H    2.2397282773    1.7925722926   -0.0312020964
 H    2.5289150365    4.2305531551    1.9436632447
 H    1.0132522300    5.2570756451    1.9102934201
 H   -0.1587880058    3.4160343018    2.8657967937