21

 C   -0.0156293815    1.3538964211   -0.1168359918
 C    1.3719655720    1.9882177298    0.0185647766
 C    2.1115424915    1.4098798263    1.2519966159
 C    2.1516399112   -0.1204221793    1.0963959260
 C    0.7022351237   -0.6157215293    1.0719005437
 C    0.0043175115   -0.3095971234    2.4157415081
 C    0.4452111562    0.9844035660    3.0526733196
 C    1.3977530491    1.7626802265    2.5381269108
 O    0.0177963728   -0.0674194079   -0.0567118255
 H   -0.6838244128    1.7541187369    0.6595278229
 H   -0.4584350005    1.5947209022   -1.0881453982
 H    1.9640667116    1.7767731251   -0.8802300346
 H    1.2662427456    3.0766236004    0.0951948171
 H    3.1288697665    1.8154577576    1.2759703082
 H    2.6501092166   -0.4031758347    0.1632307302
 H    2.6951141462   -0.5803074754    1.9288955826
 H    0.6650423948   -1.6950999237    0.8959717906
 H   -1.0810502752   -0.3073092400    2.2510301439
 H    0.1928640900   -1.1386722801    3.1131078604
 H   -0.0502473421    1.2661151081    3.9793721538
 H    1.6654786627    2.6961758541    3.0270377096