21

 C   -0.2551905108    1.4834537607   -0.0307920932
 C    0.0264378978   -0.0140575602   -0.0839038126
 C    1.3308853305   -0.4278232800   -0.7979569877
 O    1.8991822707   -0.9297345062    0.4274283290
 C    0.6905839503   -0.6602698946    1.1537875592
 C    0.7680749263   -0.0893751567    2.5923280689
 C   -0.6787811895   -0.6347974196    2.7815514378
 C    0.0850268239   -1.7737933699    2.0477482535
 C    1.2722467085   -1.5031413361    3.0218002376
 H    0.6186559631    2.0337689472    0.3339175267
 H   -0.5003170947    1.8673778268   -1.0271251448
 H   -1.0967307189    1.7144948010    0.6297761537
 H   -0.8563265434   -0.5575554273   -0.4329078660
 H    1.2331679502   -1.2154320472   -1.5551515574
 H    1.9223363239    0.3976497445   -1.2133974478
 H    1.1606872286    0.8785053960    2.9062264011
 H   -0.9704453788   -0.8491833788    3.8122024051
 H   -1.4846861247   -0.1359686487    2.2375961605
 H   -0.3085210607   -2.7396734082    1.7276258276
 H    2.2645387956   -1.7954463327    2.6783051010
 H    1.1039874224   -1.7714829300    4.0682367775