25

 C    0.9626617165   -0.2669570962   -1.0371309615
 C    0.0227012623    0.0376869846    0.1378153525
 C   -0.0797246983    1.5513532815    0.3683026952
 C   -1.3767592030   -0.5719384360   -0.0606744427
 C   -1.4288166525   -2.1057682305   -0.0507585511
 O   -0.8417605054   -2.6430258551    1.1379638879
 C   -2.8546942860   -2.6287592617   -0.2537419700
 C   -2.9307584515   -4.1483996942   -0.3247656795
 O   -4.2971159758   -4.5076283340   -0.4800071464
 H    1.9460408521    0.1870676270   -0.8763758434
 H    1.1173881137   -1.3413600687   -1.1720331142
 H    0.5617194457    0.1363521522   -1.9754441331
 H    0.4501041742   -0.4205073966    1.0382820487
 H   -0.5125473373    2.0549428333   -0.5048812335
 H   -0.7126629421    1.7844324981    1.2314704878
 H    0.9066987732    1.9918652600    0.5475761283
 H   -2.0439934972   -0.2048589195    0.7340445287
 H   -1.8061393606   -0.2095740735   -1.0050481288
 H   -0.7943390318   -2.4959030477   -0.8563113623
 H   -1.3561618861   -2.3170662696    1.8857734932
 H   -3.4955999677   -2.2816657956    0.5688472102
 H   -3.2754277131   -2.2072244687   -1.1743180844
 H   -2.3253252205   -4.5085353346   -1.1732445955
 H   -2.4989144901   -4.5792397261    0.5891299520
 H   -4.3553940085   -5.4673033484   -0.4751820581