19

 C    0.0553062103    1.4486294266    0.0127363541
 N    0.0055040597   -0.0006130676    0.0208789494
 C   -0.0154517231   -0.8006664631   -1.1033905818
 C   -0.0161573994   -2.0884557849   -0.6432444253
 N    0.0044795626   -2.1069171722    0.7294914180
 C    0.0180783358   -0.8424869489    1.1060014225
 C    0.0856344198   -0.3860825877    2.5277514606
 C    1.5193470872   -0.0754138311    2.9964428619
 O    1.5630682322    0.3751489424    4.3385866780
 H    1.0798924489    1.8174008806   -0.1078712939
 H   -0.5529395517    1.8323274380   -0.8099178394
 H   -0.3471807288    1.8410564393    0.9478076393
 H   -0.0366632293   -0.3760490208   -2.0938594071
 H   -0.0403891105   -3.0006419920   -1.2200110529
 H   -0.5380031127    0.4975292696    2.7050704511
 H   -0.3216197333   -1.1977964526    3.1390800773
 H    2.1506525183   -0.9617844920    2.8381855103
 H    1.9458083136    0.7370482598    2.3977785814
 H    1.3007912005   -0.3585004536    4.9039057166