22

 C   -0.2686008789    1.4567461666    0.5824321998
 C   -0.1008357006   -0.0334051418    0.3860537042
 C    1.0659279795   -0.5827932057   -0.4000371985
 C    0.9774025384   -0.8442527001    1.0794239228
 C    1.9469860617   -0.2440733984    2.0976634720
 C    1.6136194577   -0.9924760591    3.3803139871
 C    0.1800382332   -1.1275722158    3.7456370841
 N    0.8742942138   -2.2362547884    3.0726416587
 C    0.6730175552   -2.2498524722    1.6118794068
 H    0.6962696414    1.9701390699    0.6375909511
 H   -0.8225249094    1.8962967276   -0.2543198262
 H   -0.8200210071    1.6864597697    1.5019309534
 H   -1.0410493696   -0.5650989573    0.2500752694
 H    0.8987366141   -1.4130287360   -1.0800147646
 H    1.8134931346    0.1257676624   -0.7461849010
 H    2.9867730301   -0.4494681267    1.8141878357
 H    1.8480309702    0.8399300706    2.2046509477
 H    2.3761605584   -1.0628355488    4.1509582662
 H   -0.0999556169   -1.3323952107    4.7748876268
 H   -0.5506180236   -0.5504534197    3.1838009848
 H   -0.3390203970   -2.5905414713    1.3668270612
 H    1.3790525547   -2.9801309947    1.1966036184