18

 C   -0.0370824391    1.5022757578    0.0737103740
 C   -0.0240233556    0.0086246812   -0.0061176985
 C   -0.0085687368   -0.7551027555   -1.1035883428
 C   -0.0122811729   -2.2418440857   -0.7911398611
 O    0.9847951717   -2.9881982921   -1.4796809688
 C    0.0880243984   -2.2728880321    0.7381249799
 C    1.3032948663   -1.6456065822    1.3813820110
 C    0.0238077940   -0.8462929535    1.2286968405
 H    0.8347083218    1.8750918666    0.6261621977
 H   -0.0388289271    1.9601748789   -0.9188013928
 H   -0.9226994007    1.8599610258    0.6141500459
 H    0.0306451432   -0.3930827403   -2.1252174448
 H   -0.9524587391   -2.7071485166   -1.1139354073
 H    1.8409631168   -2.6503719851   -1.1939234573
 H   -0.4022848030   -3.0762483003    1.2738913064
 H    1.5664297317   -2.0036255234    2.3713258653
 H    2.1521028381   -1.3544661891    0.7690898609
 H   -0.5305187277   -0.5563915645    2.1148711019