19

 C    0.1729949449    1.2946870388    0.1051191077
 O   -0.2299646822   -0.0157890894   -0.2384610408
 C    0.5210082006   -0.5752567808   -1.2829744917
 C    1.8796295981   -1.2328649683   -0.8559641836
 C    1.0462502887   -2.4661888521   -0.4095779788
 C    0.0784680900   -2.0411376261   -1.5494041322
 O    0.5840840930   -2.4158520132   -2.8309718576
 C    1.9938288169   -2.5089629907   -2.8269021702
 O    2.6086749889   -1.4968675357   -2.0567625836
 H    1.2112183532    1.3300990095    0.4649644389
 H    0.0814991854    1.9788317130   -0.7516071372
 H   -0.4887608235    1.6357706395    0.9045370573
 H    0.5720347045    0.0804669787   -2.1620643215
 H    2.5535546314   -0.7306605719   -0.1603938686
 H    1.4944424287   -3.4603310253   -0.4152462596
 H    0.5838817800   -2.2690108603    0.5574423440
 H   -0.9815488407   -2.2950610335   -1.5138279910
 H    2.2998576406   -3.4979806305   -2.4533219407
 H    2.3340587716   -2.3886891317   -3.8582605406