22

 C   -0.0825429843    1.3850103621    0.0209286364
 O    0.1116350414   -0.0084093721   -0.0628101054
 C    0.6917902017   -0.5945810386    1.0941567420
 C   -0.2852864009   -0.7268751638    2.2706021364
 C    0.3447657996   -1.6098678659    3.3523057028
 C    0.5506848620   -3.0368718515    2.8363489284
 N    1.2264659027   -3.1213364097    1.5272807122
 C    0.3890879685   -3.0756663098    0.3320273218
 C    1.2726022745   -1.9296501328    0.6639266816
 H    0.8541028646    1.9127028001    0.2619241999
 H   -0.4308498115    1.7198195814   -0.9594366283
 H   -0.8364749159    1.6653834393    0.7710434612
 H    1.5307382128    0.0411600378    1.4291031312
 H   -0.5228643905    0.2640432298    2.6700040154
 H   -1.2280181626   -1.1622214155    1.9170711303
 H    1.3111753672   -1.1823261770    3.6510066877
 H   -0.2772746272   -1.6353607435    4.2535852354
 H    1.1525120928   -3.6061048115    3.5540976187
 H   -0.4214979396   -3.5429408025    2.7706778862
 H    0.6611544907   -3.7631558733   -0.4652665312
 H   -0.6834214089   -2.9398361407    0.4599387648
 H    2.2059233829   -1.8342123226    0.1122634924