19

 O    0.0058783268    1.3675386575   -0.3343085875
 C    0.0499225616   -0.0348700009   -0.1152583922
 C    0.4914685376   -0.4647398049    1.2954604804
 C   -0.4789167618   -1.6260867349    1.6245098317
 N   -1.6475461940   -1.4626696252    0.7519385100
 C   -1.3560750930   -0.6222305970   -0.1637804793
 N   -2.1755705657   -0.3261843036   -1.2403342191
 C   -2.8413546455    0.9691756861   -1.3523464938
 C   -3.6164215239   -0.2781652209   -1.0734941783
 H    0.9071764609    1.6793556992   -0.4571614536
 H    0.6551657334   -0.5186141299   -0.8983135620
 H    1.5455533862   -0.7460142703    1.3603546236
 H    0.3191889424    0.3820675249    1.9675966626
 H   -0.0198523751   -2.6039678003    1.4261194637
 H   -0.7928595036   -1.6367630922    2.6733204103
 H   -2.7028234262    1.6733514626   -0.5383583248
 H   -2.8426043401    1.4069988517   -2.3460436885
 H   -4.1923881884   -0.7465898779   -1.8659357560
 H   -3.9962556717   -0.4319103940   -0.0677730472