14

 O    0.6806474819    0.8825017678   -0.7539403016
 C    0.0491346895   -0.1429785624   -0.0318667050
 C    0.1319312211   -0.1736785472    1.5189225060
 C   -1.3142541316   -0.7405545752    1.5196012303
 O   -2.2127650820   -0.3857056869    2.5387031026
 C   -1.4995001511   -0.1802096981    0.0827845099
 H    0.3723814296    1.7259318550   -0.4064667479
 H    0.4297163516   -1.0746298657   -0.4599796229
 H    0.9293825503   -0.7433245337    2.0002857860
 H    0.1369336098    0.8497102431    1.9175339390
 H   -1.3030939177   -1.8341329261    1.5119117230
 H   -2.2535569291    0.5754433095    2.5795538188
 H   -1.9001005792    0.8415726952    0.1242663399
 H   -2.0755150230   -0.7553503252   -0.6449213982