17

 O    0.0395203488   -0.0462838522   -0.1355534301
 C    0.0408368915    1.1676360610   -0.0459909168
 N   -1.1091490187    1.8909635635    0.1398472419
 C   -1.2534435855    3.3082645990    0.0083148806
 C   -0.9125478748    4.2196942825    1.1684017375
 C    0.0243014247    4.1028112284   -0.0119467288
 N    1.3035315987    3.4297805707    0.0066951413
 C    1.7484804285    2.6633351128    1.1534787989
 C    1.3110443139    1.9642201777   -0.0965799892
 H   -1.9422361009    1.3258339190    0.2223685396
 H   -2.0558135626    3.6071282409   -0.6606161264
 H   -1.4619252496    5.1484103187    1.2765867487
 H   -0.6420977223    3.7431452619    2.1031021650
 H    0.0422742112    4.9539032454   -0.6851112072
 H    2.8085041802    2.7392302194    1.3787891281
 H    1.1052489033    2.5704452132    2.0247967232
 H    2.0575956134    1.5349719381   -0.7571447463