19

 C   -0.0165099206    1.6014991099    0.0656849187
 C   -0.0531888491    0.0748189916   -0.0247494453
 C    0.7531046150   -0.5081552138   -1.2131033831
 C    0.8004849269   -2.0471743982   -1.1856921712
 C   -0.3655383859   -2.5178096010   -2.0606176846
 O   -0.9308883645   -3.5755147788   -1.9717122130
 C   -0.6874880700   -1.4054785855   -3.0549061277
 C    0.0452146429   -0.1671026677   -2.5360396872
 O    0.0541009330    0.9119682707   -3.0710036480
 H    1.0082256784    1.9583691902    0.2151181365
 H   -0.3963794349    2.0668671656   -0.8468617141
 H   -0.6194596507    1.9510806895    0.9091581775
 H    0.3544604652   -0.3626084217    0.8946372210
 H   -1.0933001311   -0.2747712604   -0.0860670804
 H    1.7478965435   -0.0527649719   -1.2162320475
 H    1.7233747684   -2.4193212455   -1.6502227884
 H    0.7390308474   -2.4886706222   -0.1882678010
 H   -0.3056955565   -1.6685791043   -4.0492376401
 H   -1.7627165175   -1.2408893366   -3.1689189721