19

 C    0.2385527381    1.5615815541    0.1989652864
 C   -0.1454959671    0.1079362689   -0.0985365916
 C    0.6317003266   -0.4884943200   -1.2696927314
 C    2.0216011941   -1.0760517406   -1.0402633439
 C    0.8893223269   -1.9932371544   -1.3982233154
 C    0.3259830920   -3.0002352438   -0.4204964577
 C    0.4330414780    0.2060678638   -2.5193552859
 N    0.2590669192    0.7665073542   -3.5172147298
 H    1.3006746274    1.6449593200    0.4512622148
 H    0.0484169137    2.2049930747   -0.6652550340
 H   -0.3412213984    1.9484916739    1.0419403504
 H    0.0320705948   -0.5062554348    0.7888652591
 H   -1.2187970344    0.0442569459   -0.3130400968
 H    2.7936555821   -0.8758659799   -1.7735119659
 H    2.3639302919   -1.0744644423   -0.0099785246
 H    0.8929042679   -2.3402573886   -2.4275013326
 H    0.3990847321   -2.6610725797    0.6157219556
 H   -0.7257645284   -3.2184784947   -0.6325452654
 H    0.8825337234   -3.9404894666   -0.4949287413