16

 N   -0.0973062135    1.0582558639   -0.0904640495
 C   -0.3682592626   -0.1399134267    0.1845496656
 O   -0.2775272982   -1.0803392763   -0.7891082920
 C   -0.6400507503   -2.3922289152   -0.4426641235
 C   -2.1502163715   -2.5774860285   -0.2535722902
 O   -2.8858897188   -1.6475484176   -0.0625948850
 C   -2.6147532420   -4.0406785647   -0.3188414951
 C   -3.9434328150   -4.2752166983    0.2163367492
 C   -5.0396663314   -4.4713387164    0.6637574728
 H   -0.1923066654    1.6364679332    0.7415650000
 H   -0.6624498596   -0.5444708168    1.1602697444
 H   -0.2782141717   -3.0400640097   -1.2471284915
 H   -0.1449834859   -2.7265585040    0.4843062265
 H   -2.5671942882   -4.3330452058   -1.3787275211
 H   -1.8694077866   -4.6711246381    0.1855954207
 H   -6.0113357193   -4.6383222190    1.0584290288