18

 O    0.0849857488    1.3618158325    0.0064711940
 C    0.0555529027   -0.0549452283    0.0012563423
 C   -1.4053713303   -0.4857164157    0.0115106262
 C   -1.5559434969   -2.0052580498    0.0071368285
 C   -2.9960045464   -2.4552340275    0.0184211834
 O   -3.9662440768   -1.7496966390    0.0336596468
 O   -3.0488998173   -3.8312824463    0.0095469330
 C   -4.2834040387   -4.4311950307    0.0188144502
 N   -4.3264073293   -5.6881637473    0.0106838803
 H    1.0035919967    1.6457442230   -0.0011374629
 H    0.5590525396   -0.4634146802   -0.8911470193
 H    0.5734671496   -0.4702335371    0.8822099817
 H   -1.8969524966   -0.0624670002    0.8929567888
 H   -1.9110914324   -0.0559357080   -0.8587319167
 H   -1.0773435692   -2.4594200557   -0.8699615081
 H   -1.0622331218   -2.4655187960    0.8726917607
 H   -5.1040326277   -3.7138341902    0.0323620001
 H   -5.2969972242   -5.9987541337    0.0188665508