19

 C   -0.0966259294    1.5072242357    0.0544190252
 C    0.0159876208    0.0120734551    0.0725200230
 C   -0.8021476108   -0.8988461961    0.9578651028
 C    0.7052423504   -0.9558325690    1.0253385628
 C    1.2276611627   -1.7109306043   -0.1958646305
 N    0.5858074739   -0.6961731178   -1.0845562426
 C   -0.3265301686   -1.1421736718   -2.1250065428
 C    0.3997879565   -1.7935126551   -3.2213142378
 N    0.9672029259   -2.3259240594   -4.0750003469
 H    0.8382295140    1.9622419842   -0.2862442538
 H   -0.8986330152    1.8391023330   -0.6163984200
 H   -0.3295272668    1.8884245174    1.0531136724
 H   -1.2868072261   -0.4061230258    1.7948910585
 H   -1.3624144566   -1.7395469611    0.5549938429
 H    1.2671807357   -0.7382106180    1.9236923295
 H    2.3144059684   -1.7165906869   -0.3150900585
 H    0.8502528255   -2.7356071471   -0.3150985414
 H   -1.1057692478   -1.8442092099   -1.7766678072
 H   -0.8471944725   -0.2664839830   -2.5299694154