19

 C    0.3318511385    1.4654413574   -0.2339512642
 O    0.5181436629    0.0541072428   -0.0575323431
 C    0.3741593143   -0.6893040052   -1.1706178844
 O    0.1215870185   -0.2369505215   -2.2580841933
 C    0.5288497477   -2.1718133871   -0.8574480744
 C   -0.7302782025   -3.0192974258   -1.1696836062
 C    0.1585464220   -3.6841248875   -2.2473726262
 C   -0.2284079798   -3.4809172420   -3.6975502267
 O    1.2904188480   -2.8543172471   -1.8616067147
 H    1.0725685658    1.8644872823   -0.9312123231
 H   -0.6668214168    1.6756387866   -0.6250169190
 H    0.4585159842    1.9080152097    0.7538931051
 H    0.9532267634   -2.2961712061    0.1435064033
 H   -1.0572117021   -3.6670212525   -0.3561074551
 H   -1.5790315057   -2.4566876929   -1.5609739779
 H    0.3831935250   -4.7395634358   -2.0471456563
 H   -0.4278046409   -2.4226977049   -3.8853928487
 H    0.5835831819   -3.8046134852   -4.3562814258
 H   -1.1211195846   -4.0682984652   -3.9407531893