18

 C   -0.3166915473    1.7844013306   -0.3333479734
 N   -0.2087074643    0.3505348474   -0.1375193427
 C   -1.2708325193   -0.4423849148    0.5435779447
 C   -0.1648097886   -1.3067932909    1.1847491752
 C    0.8323687116   -0.1856158557    0.7574099169
 C    2.0794414230   -0.6550781936    0.0402165972
 O    3.1885390317   -0.6269529798    0.5057161056
 C   -2.0952177295    0.3557837130    1.5457001326
 O   -1.9374586237    0.3272248057    2.7397636239
 H    0.5846245802    2.1399412365   -0.8432059533
 H   -1.1724976402    2.0074537085   -0.9790713747
 H   -0.4240704783    2.3616916295    0.6008692689
 H   -1.9602557259   -0.9258876983   -0.1626255422
 H   -0.2577654247   -1.4674717391    2.2567769870
 H   -0.0031626817   -2.2525292253    0.6652256910
 H    1.1127646153    0.4689607445    1.5942228241
 H    1.8710394709   -1.0632208020   -0.9760853805
 H   -2.8722732091    1.0103108838    1.0895107599