15

 O    0.0326513082   -0.0096152758    0.1084754513
 C   -0.0182282495    1.1932847959    0.0451599325
 N   -1.1604716992    1.9819686233   -0.0420083874
 C   -0.7818290199    3.3217912955   -0.0249337302
 N    0.4723950587    3.5486740730    0.0319236304
 C    1.1195164679    2.2310621141    0.0568427197
 C    2.0482533639    2.0274914203    1.2720265288
 C    3.2570923699    2.8358298287    1.2150274234
 C    4.2601961846    3.4939746136    1.1558351857
 H   -2.1003057519    1.6195424581   -0.0427781737
 H   -1.5433899498    4.0941984900   -0.0594377110
 H    1.7126276394    2.1085254833   -0.8574263228
 H    1.4874309886    2.2528972153    2.1870294553
 H    2.3020913736    0.9612663077    1.3101952895
 H    5.1440279055    4.0803602168    1.1098016485