17

 C   -0.0980754033    1.5544377625    0.0496598892
 C    0.0500091194    0.0529841850   -0.0409240051
 C    0.7131736206   -0.6666207547   -1.1906615488
 C    1.6662878158    0.1015758307   -2.1110600658
 C    2.7962023225    0.5216113740   -1.1932019409
 C    2.6263882812    0.0622540964    0.0495620421
 C    1.3552436698   -0.7013353239    0.1945626160
 H    0.8140705711    2.0752047638   -0.2505378875
 H   -0.9135719353    1.9033272056   -0.5943683974
 H   -0.3328076622    1.8604012356    1.0752318938
 H   -0.8144780812   -0.4836052263    0.3453006174
 H    0.2145341185   -1.5419195268   -1.5911032439
 H    2.0281550628   -0.5339505930   -2.9301602445
 H    1.1847565968    0.9664766782   -2.5878760082
 H    3.6173371363    1.1465178147   -1.5270917785
 H    3.3046466176    0.2346594545    0.8780247481
 H    1.3291290296   -1.5827438262    0.8270382438