15

 O   -0.1365738852    0.0038293707   -0.2831690278
 C   -0.1084140512    1.1788018390   -0.0743581549
 C   -1.1070158862    2.2674760315    0.3354109335
 O   -0.0382315933    3.2385744982    0.2874998463
 C    0.9491214052    2.2842971175   -0.0951613494
 C    2.3648260274    2.2723220468    0.5387354905
 C    2.8461922930    1.4143957305   -0.6541570773
 C    1.9992677435    2.5894052472   -1.1952851847
 O    2.6822041762    3.4925345361   -0.2395790779
 H   -1.9028471710    2.4725645244   -0.3902655257
 H   -1.5383809196    2.1566801897    1.3372419604
 H    2.6441146984    2.2484964012    1.5913911293
 H    3.9111339519    1.5116873166   -0.8608742817
 H    2.4594850073    0.3988038404   -0.7583451709
 H    1.8420640136    2.9441948202   -2.2131581396