13

 O    0.0453014117    1.3896317746    0.0084882817
 C   -0.0439613868   -0.0101372324    0.0023407820
 C   -1.4832783924   -0.4176976196    0.0133140012
 N   -2.5180587244    0.3115151982    0.0234627042
 C   -3.6459268213   -0.6133439632    0.0307531945
 C   -3.0312910833   -2.0084337856    0.0224482376
 O   -3.5109254393   -3.0964566371    0.0238803023
 O   -1.6535364239   -1.7925728012    0.0116121402
 H    0.9770318876    1.6266035402   -0.0067288932
 H    0.4205660823   -0.4680508127   -0.8870488082
 H    0.4365337105   -0.4767803797    0.8786574314
 H   -4.2740302201   -0.4750117900    0.9173448919
 H   -4.2886884806   -0.4710123514   -0.8446272457