19

 C   -0.6799444736    1.6563618209    0.0373914549
 C   -0.4655890566    0.1619739758    0.1500378577
 C   -1.6925629790   -0.7002682815   -0.0641773488
 O   -2.7641203427   -0.4243088099    0.8363335949
 C   -2.5548119471   -0.8334156929    2.1684041660
 C   -1.9700841113    0.2241358593    3.0163584655
 N   -1.5338998396    1.0622448933    3.6817502460
 C    0.8569263756   -0.4131534559   -0.2125181778
 N    0.4319660212   -0.3708610940    1.1963938205
 H    0.2569068053    2.1981947170    0.2002993827
 H   -1.0539446777    1.9225774020   -0.9576695968
 H   -1.4084131785    2.0055002512    0.7738717635
 H   -2.1155415483   -0.5201323512   -1.0578898044
 H   -1.4083875830   -1.7595143904    0.0081520338
 H   -3.5348681757   -1.0926413164    2.5844913937
 H   -1.9062004998   -1.7165017472    2.2289934136
 H    0.9310469008   -1.4105715866   -0.6391381393
 H    1.6261534379    0.2772009015   -0.5484938013
 H    0.8854767218    0.3941763551    1.6893992058