16

 N    0.3426879745   -0.1516926249    1.2709047202
 C   -0.5119951856   -0.4015583091    0.3808094742
 O   -0.3876798395   -1.5198561787   -0.3731063482
 C   -1.4808781848   -1.8530401712   -1.2168779314
 C   -2.4986013695   -2.7856605235   -0.5503779053
 O   -3.6345246668   -2.8377592036   -0.9536597353
 C   -2.0031038683   -3.6242021278    0.5983725881
 C   -2.8667718638   -3.7508943141    1.7953234307
 O   -2.7568786711   -4.8049376978    0.8602057073
 H    0.1292167633    0.7344718066    1.7236775458
 H   -1.3835416565    0.2102493942    0.1094955937
 H   -2.0092035855   -0.9646705486   -1.5812410453
 H   -1.0590451887   -2.3730740649   -2.0842200708
 H   -0.9268671362   -3.7124282153    0.7182052474
 H   -2.3953670155   -3.9141409538    2.7629773851
 H   -3.8239646560   -3.2327030974    1.7989379938