20

 C    0.3874293588    1.4124623338   -0.3339330609
 C   -0.2187984733    0.1017987387    0.1806763239
 C    0.5794787519   -0.5001059835    1.3117786701
 N    1.8987979254   -1.0013769425    0.9691367529
 C    2.0927349007   -2.0230464682    1.6997505474
 O    1.1126198330   -2.4176119698    2.5534959777
 C    0.0730952711   -1.4588221128    2.3871690321
 C    0.3995279817   -0.0364134815    2.7559675398
 C    1.5190527776    0.3573864019    3.6913650582
 H    1.4148467359    1.2509338504   -0.6709159160
 H   -0.1918750672    1.8109903686   -1.1722586273
 H    0.4080812084    2.1727187660    0.4541220470
 H   -1.2465621277    0.2709020707    0.5242423240
 H   -0.2762959996   -0.6265358909   -0.6374601701
 H    2.9841758091   -2.6385844730    1.7170865363
 H   -0.9141619713   -1.8946730275    2.4801662208
 H   -0.5045906937    0.5583118803    2.8732402236
 H    2.4339883121   -0.2079006713    3.5029592399
 H    1.7591443595    1.4188819033    3.5747771712
 H    1.2298674676    0.1877399275    4.7338469793