16

 C   -0.0360726044    1.5004004013   -0.0121543002
 C    0.0102367835    0.0074299051    0.0165917366
 C   -0.0684152554   -1.0132313221   -1.1124799691
 C    0.7924489704   -2.0122201572   -0.2886123445
 C    0.8849343341   -0.9841344610    0.8512871664
 C   -0.2423060544   -2.0089082927    0.8101395070
 O   -0.5529962943   -3.0414266484    1.6536783315
 C   -1.1289491918   -1.0069055261   -0.0142420199
 H    0.9302063849    1.9276351175   -0.3052853611
 H   -0.7853878829    1.8484454186   -0.7318652131
 H   -0.3009357848    1.9140278274    0.9683870661
 H   -0.1890748232   -0.8633624212   -2.1782196951
 H    1.4996692068   -2.7815177678   -0.5666713873
 H    1.6801198646   -0.8394872922    1.5713326570
 H   -0.8115907561   -2.6719036547    2.5062384343
 H   -2.1962404071   -0.8410655467   -0.0911886985