22

 C    0.0557620075    1.5519512046   -0.0286789190
 C   -0.0019736366    0.0230181729   -0.0298970843
 C   -1.4254530001   -0.5335295742    0.0557672746
 C   -1.4974477688   -2.0868875213   -0.0297304139
 C   -2.6325924891   -2.4486721379    0.9457416885
 C   -2.6945603415   -1.1820345294    1.7673941542
 O   -3.4171963464   -1.2154381995    2.8922909151
 C   -3.4782137249    0.0108688204    3.6243709299
 N   -2.0753876307   -0.1626755281    1.3253931624
 H    1.0896432374    1.9097581620   -0.0618203048
 H   -0.4682297707    1.9675843561   -0.8970116767
 H   -0.4203375148    1.9518326599    0.8702863647
 H    0.4696717417   -0.3704392811   -0.9401631087
 H    0.5731812127   -0.3732640079    0.8172125526
 H   -2.0140547803   -0.0856094219   -0.7602076465
 H   -1.6657265597   -2.4480691142   -1.0468728373
 H   -0.5513010020   -2.5147835090    0.3192951925
 H   -3.5934129369   -2.6082989821    0.4410118932
 H   -2.4432021971   -3.3331014043    1.5596821678
 H   -4.0953407658   -0.1935473434    4.5001501494
 H   -2.4764265461    0.3300592058    3.9257784966
 H   -3.9239859076    0.8021389826    3.0149953595