25

 C    0.3739001953    1.5032453704    0.3210889785
 C   -0.1394810461    0.0858407348    0.0074471725
 C   -1.6703272275    0.0519567400    0.1708580405
 C    0.2781738964   -0.2745294472   -1.4431608266
 C   -0.2559943678   -1.6027048139   -2.0084532278
 C    0.4725027023   -2.8889196983   -1.5622568654
 C    1.0613515681   -2.8594149729   -0.1444735495
 O    0.2240602795   -2.2453030573    0.8208783988
 C    0.4937123799   -0.8725475319    1.0365508166
 H    1.4560310885    1.5802690039    0.1656431362
 H   -0.1095102950    2.2443650627   -0.3241580861
 H    0.1640665401    1.7823120915    1.3598796794
 H   -2.1712032138    0.6086222274   -0.6289230704
 H   -2.0483121791   -0.9732687639    0.1677483663
 H   -1.9618754658    0.5053964095    1.1247313915
 H   -0.0782714981    0.5367317866   -2.0908823931
 H    1.3746238680   -0.2504036161   -1.5169591034
 H   -1.3178456190   -1.6878819469   -1.7610143041
 H   -0.2160564062   -1.5548285742   -3.1027505254
 H   -0.2239381060   -3.7303922631   -1.6497524476
 H    1.3017174160   -3.1099282382   -2.2472697409
 H    1.2398563935   -3.8860991634    0.1968303201
 H    2.0375181552   -2.3512097263   -0.1536788672
 H    1.5839489710   -0.7096100399    1.0696120363
 H    0.0977604205   -0.6407331832    2.0327781608