23

 C    0.1431297811    1.6449641285    0.0792665628
 C    0.0032992478    0.1263608602    0.0080947210
 C    0.5973625292   -0.4363943789   -1.2985457455
 C    1.0046956855   -1.9100707298   -1.2541526640
 O   -0.0459499021   -2.8585216400   -1.2060020376
 C   -0.8582521265   -2.9408032672   -0.0450846831
 C   -0.1483067497   -2.7954919252    1.3118476631
 C   -0.0737361380   -1.3759913369    1.8936453277
 O    0.6643715336   -0.4279161520    1.1481301740
 H    1.2019891634    1.9199025396    0.1192277807
 H   -0.3034057534    2.1191925565   -0.8009134444
 H   -0.3470217601    2.0392420138    0.9738020767
 H   -1.0638019629   -0.1275588335    0.0588724193
 H   -0.1068849026   -0.2647941092   -2.1214044875
 H    1.5085061645    0.1293299971   -1.5371305290
 H    1.5417611563   -2.1523442546   -2.1769492143
 H    1.7056350723   -2.0516650354   -0.4215828016
 H   -1.6907435240   -2.2199117983   -0.1007671053
 H   -1.3081629760   -3.9373214738   -0.1076309875
 H   -0.7096606309   -3.3932943882    2.0420771250
 H    0.8499461152   -3.2436890473    1.2559677665
 H   -1.1001307255   -1.0058940773    2.0564394619
 H    0.4122712128   -1.4207562180    2.8747414409