22

 C    0.0515776461    1.5648719995    0.0076398623
 C   -0.0091020439    0.0358248401   -0.0420176706
 C    0.7308349942   -0.5473843235   -1.2504838835
 C    0.6696684195   -2.0669915226   -1.2983420107
 O    1.3871724489   -2.5032058156   -2.4451207964
 C    1.4782639411   -3.9071402492   -2.5791351055
 C    0.2490571205   -4.5214400957   -3.2655571412
 C    2.6995381312   -4.1942114974   -3.3545749804
 N    3.6455376178   -4.4528227690   -3.9642219700
 H    1.0870528806    1.9173443155    0.0661400564
 H   -0.3977056382    2.0074596612   -0.8880033276
 H   -0.4838710458    1.9561833952    0.8779378906
 H    0.4171305118   -0.3771404400    0.8817960233
 H   -1.0580439349   -0.2882208613   -0.0640256107
 H    0.3051675246   -0.1510070550   -2.1802104989
 H    1.7835833614   -0.2412346963   -1.2338248936
 H    1.1183498263   -2.5016140740   -0.3895623553
 H   -0.3778837628   -2.4046010087   -1.3396595828
 H    1.6124947820   -4.3726970567   -1.5890617492
 H    0.3742559097   -5.6013255744   -3.3824947400
 H   -0.6446015490   -4.3410827136   -2.6630555177
 H    0.1096331988   -4.0718269686   -4.2511908184