19

 C   -0.1829563187    1.5671865536   -0.2085143690
 C    0.0070169430    0.0756651746   -0.0257727890
 N    1.2220846837   -0.6102056304   -0.6991176401
 C    2.0708176353   -0.0826566980    0.4690619859
 C    0.7767975149   -0.5801203368    1.1542596397
 C    0.9087103586   -1.7949110774    0.2363324085
 O    0.4273288903   -0.6552510665    2.5098362227
 C    0.7029481868    0.4151385449    3.2870900617
 N    0.3050117997    0.4415306520    4.4836324529
 H    0.6766142577    2.1704497250    0.0920394170
 H   -0.3930978612    1.7860585515   -1.2603665991
 H   -1.0459451379    1.8989432775    0.3782464068
 H   -0.9157711102   -0.4476389359   -0.2965676240
 H    2.9818898934   -0.6614647821    0.6354848714
 H    2.2867892535    0.9834838104    0.4173799357
 H    0.0010134830   -2.3385526564   -0.0336298365
 H    1.7588440887   -2.4626622841    0.3879345095
 H    1.2878468735    1.1896304191    2.7752874285
 H    0.6123073659    1.3026213090    4.9316745272