15

 C   -0.2982728029    1.5303038471    0.0165094099
 C   -0.0054494537    0.0609593285   -0.0215642361
 C    0.1392925036   -0.6432622121   -1.1496623999
 O    0.4055375732   -1.9775136695   -1.2128756070
 C    0.5496709517   -2.7224945167   -0.0639992545
 N    0.7965997859   -3.9604548726   -0.0749275691
 N    0.4037332780   -2.0140658550    1.1111951152
 C    0.1324961057   -0.6564967672    1.2560572525
 O    0.0267517432   -0.1489164571    2.3530773689
 H    0.4895428254    2.0679190917    0.5534782590
 H   -0.3813085907    1.9445559455   -0.9914106343
 H   -1.2314336587    1.7245657184    0.5544459250
 H    0.0598083832   -0.2255808477   -2.1464312388
 H    0.8694703178   -4.3072261719   -1.0281085677
 H    0.5074923985   -2.5517622112    1.9608179269