16

 O   -0.0380093357    1.4378913374   -0.0473120294
 C    0.0382835554    0.0225620253    0.0540003472
 C   -1.3894676092   -0.5235432553   -0.0090543220
 C   -2.0974382106   -0.2221263692   -1.3194928416
 C   -2.5673815834   -1.3238167966   -1.9101990801
 C   -2.1981418521   -2.5313677071   -1.1119080061
 O   -0.7650427975   -2.7217827991   -0.9957630859
 C   -1.4539641893   -2.0490999605    0.0629015736
 H    0.8569855826    1.7829504046   -0.1124797726
 H    0.6215134522   -0.4150366636   -0.7671387954
 H    0.5069310492   -0.2833133592    1.0030621959
 H   -1.9470869732   -0.0891056262    0.8323576374
 H   -2.1501882672    0.7859072649   -1.7115294141
 H   -3.1058020376   -1.3679543527   -2.8487947035
 H   -2.7789168431   -3.4484206413   -1.1261026993
 H   -1.4472473406   -2.5610754312    1.0217419060