13

 O    0.0243678714   -0.0801383617   -0.0898903661
 C   -0.0581150475    1.1120243791    0.0595300000
 C   -1.3703483155    1.8784720910    0.0364747889
 N   -1.5476914900    2.7618688177    1.1775880993
 C   -0.7473431082    3.7100132009    1.3504094758
 O    0.3352638128    4.0786860680    0.5673022881
 C    1.3463071949    3.2410237331    0.1806054965
 O    2.3988929396    3.6957223954   -0.1578961847
 N    1.1054590497    1.8725756336    0.2416311940
 H   -1.4116099848    2.4505475283   -0.9025229837
 H   -2.1678486797    1.1365421682    0.0207320144
 H   -0.8767831862    4.4270045777    2.1566874358
 H    1.9503843035    1.3324800088    0.0955702816