21

 C   -0.8246808919    0.9907688555   -0.8585601331
 C   -0.0442634060   -0.1850371440   -0.2818787190
 N    0.8312788811   -0.8298995577   -1.2946031817
 H    0.3111507203   -1.2115779385   -2.1155109702
 H    1.4962911004   -0.1652773483   -1.6970086992
 C    1.7604363759   -2.0715746532   -0.8458108820
 C    2.1207261491   -2.7480568433   -2.0870857910
 C    1.0327040569   -3.4499876062   -2.8391955010
 O    0.2751153781   -2.4485355992   -3.5929183694
 N    3.0651720899   -2.0967032547   -2.7824314764
 O    3.0411665155   -2.2597932230   -4.0481057309
 H   -0.1536863477    1.7760141655   -1.2210619597
 H   -1.4637509992    0.6737541404   -1.6881331421
 H   -1.4642810629    1.4270782059   -0.0864855379
 H    0.5954225904    0.1273552926    0.5489310226
 H   -0.7170297630   -0.9620636348    0.0914292999
 H    2.6048171380   -1.6072032879   -0.3335242372
 H    1.1273503744   -2.6288393231   -0.1510978638
 H    1.4508130512   -4.1741485960   -3.5438135197
 H    0.3124135523   -3.9554394739   -2.1879624128
 H    0.9751162270   -2.1338386260   -4.1981598753