21

 C    0.0798195696    1.5074083837   -0.1010785057
 C    0.0352696474   -0.0173662022    0.0774217779
 C    0.7404611025   -0.4463462906    1.3711770433
 C   -1.4036462777   -0.5461878251    0.0283408358
 O   -2.2071537588   -0.0733098715    1.0956162028
 C   -2.1572192975   -0.4814128578   -1.3647621927
 C   -2.2814442499   -2.0071090615   -1.3086856125
 O   -0.9489003144   -2.5360640939   -1.2221506081
 C   -1.5788060829   -2.0809554176   -0.0223305321
 H    1.1144080105    1.8600969748   -0.1516385155
 H   -0.4254393103    1.8286101703   -1.0182488937
 H   -0.3885824865    2.0250065362    0.7455073034
 H    0.5521204255   -0.4780957214   -0.7721987121
 H    0.2054839562   -0.0687599733    2.2479324074
 H    0.7924135996   -1.5365887853    1.4534335988
 H    1.7646746330   -0.0616848096    1.4018630123
 H   -2.2944024828    0.8816411463    1.0067560291
 H   -3.1159313633    0.0310263926   -1.2555362000
 H   -1.6103027094   -0.0883738315   -2.2254859202
 H   -3.0400910259   -2.6527194516   -1.7348182795
 H   -1.6670548750   -2.7699992510    0.8093685813