15

 O   -0.0316719825    1.4307252671    0.0070976607
 C    0.0022547167    0.0114909235    0.0019135766
 C   -1.4068928834   -0.4861268983    0.0126370292
 C   -2.5619471836    0.2590537877    0.0236414515
 N   -3.5814364919   -0.6579201057    0.0301590855
 C   -3.0156714018   -1.9071139794    0.0228743174
 N   -1.6936334460   -1.8235957464    0.0123077916
 C   -3.7969935926   -3.0844282868    0.0268955658
 C   -4.4908967931   -4.0683081743    0.0306099935
 H    0.8743713214    1.7504737152    0.0012141683
 H    0.5208610444   -0.3790142066   -0.8881126136
 H    0.5364344867   -0.3852784058    0.8798456676
 H   -2.7318789696    1.3211656289    0.0273090897
 H   -4.5685791433   -0.4627473704    0.0387589933
 H   -5.0881540814   -4.9462884886    0.0337614529