14

 N    0.0645094654    1.4375575254    0.1173609960
 C   -0.0067862921    0.0224682264   -0.0146962748
 C   -1.3504020839   -0.6626406973    0.0017010405
 C   -2.5533276668    0.1123853412    0.0520826516
 C   -3.5544972178    0.7764226820    0.1013371041
 C   -0.5000302193   -0.6959565500   -1.2867788715
 C   -0.8811237313    0.0914867173   -2.4182841021
 N   -1.1569717945    0.7472243580   -3.3311214295
 H    0.7699943682    1.8361010203   -0.4930740765
 H   -0.8252568605    1.8753911346   -0.0982152818
 H    0.7907513411   -0.5083387779    0.4982625951
 H   -1.3962741335   -1.6149523528    0.5210160716
 H   -4.4460534527    1.3529530460    0.1345834410
 H   -0.0506150424   -1.6533215632   -1.5285601937