15

 C   -0.0128234509    1.3600493642   -0.0445994084
 N    0.0219314616   -0.0880258468    0.0414308341
 N    0.0460083196   -0.8102092985   -1.0950205919
 C    0.0761409107   -2.0842571121   -0.6956790884
 O    0.1061208328   -3.0950430349   -1.5842652564
 C    0.0720904826   -2.2041774448    0.6981785224
 C    0.0365004040   -0.8882352571    1.1484169910
 C    0.0161298435   -0.3791506911    2.5162455294
 O    0.0299298413   -1.0869886762    3.4986541116
 H    0.8657619188    1.8057405863    0.4308859251
 H   -0.0138423687    1.6133774537   -1.1039067593
 H   -0.9166215949    1.7624050066    0.4221989311
 H    0.1007798673   -2.7038714569   -2.4669978806
 H    0.0913700678   -3.0938869243    1.3032694154
 H   -0.0131318755    0.7283819318    2.6100705850