21

 O    0.2425760530    1.0170098049   -0.7489486004
 C    0.0328827908    0.0459495394    0.2926451206
 C   -1.3517500521   -0.5622450747    0.2393680297
 C   -1.8035231287   -1.1623436870   -1.0749359442
 O   -0.8858944857   -1.2020838081   -2.1264959837
 C   -1.5694202794   -2.0714427457    0.1042473848
 C   -0.4375010213   -3.0499168904    0.0938805008
 C    0.0576251711   -3.6728449105    1.3788161707
 C   -0.7069946831   -4.5068889778    0.3822769666
 H   -0.4240447191    1.7041566886   -0.6434550896
 H    0.8055035897   -0.7070799279    0.1318961834
 H    0.2185721456    0.4986285290    1.2757912059
 H   -2.1074256861   -0.0244481594    0.8070911292
 H   -2.8331745240   -0.9897119130   -1.3877792599
 H   -0.4249880559   -0.3500463912   -2.1222700681
 H   -2.4673433239   -2.4349553812    0.5982044418
 H    0.3053900072   -2.8572279599   -0.6716863061
 H    1.1220919896   -3.8478908227    1.4925856299
 H   -0.4468247461   -3.3979719107    2.2995763959
 H   -1.7226374138   -4.7937722517    0.6357254535
 H   -0.1681236878   -5.2515240499   -0.1929499809