17

 C   -0.0400714174    1.5188527532   -0.1169712691
 C    0.0014138908    0.0263955165    0.0807547354
 O    1.2419121702   -0.6480155622   -0.1105969064
 C    0.6798923048   -0.6575690035    1.2180218630
 C    1.4608097027    0.0781558608    2.2880791749
 C    0.1342188022   -1.9272993132    1.6349335824
 C   -0.3208000641   -2.9754837881    2.0296221071
 C   -0.8591506640   -4.2423693228    2.4506051862
 O   -1.2214941157   -4.4922791657    3.5776819425
 H    0.8168732929    2.0208363253    0.3339715562
 H   -0.0394513055    1.7453693060   -1.1883009223
 H   -0.9591314386    1.9315236177    0.3117341434
 H   -0.8492795148   -0.5076201013   -0.3467402647
 H    1.8642839518    1.0153813510    1.9040988991
 H    0.8209411547    0.2875248476    3.1502073641
 H    2.2960035440   -0.5403315120    2.6287810524
 H   -0.9196932739   -4.9974077392    1.6407309156