12

 O   -0.0382736125   -0.0492617161   -0.0018481313
 C   -0.0380026710    1.1420070696    0.0076810363
 N    1.1437955044    1.9327141828    0.0008523847
 N    2.3732019034    1.3482286672   -0.0170936982
 N    3.2577761709    2.2924507793   -0.0195889329
 C    2.6320171235    3.5053304742   -0.0031854426
 C    1.2728310376    3.3096772105    0.0103125133
 C    0.1928833691    4.3061538361    0.0299623526
 O    0.4152764327    5.4929556950    0.0368113280
 H   -0.9423584790    1.7709485128    0.0224447211
 H    3.1757281224    4.4355173878   -0.0019170470
 H   -0.8452593116    3.9171320009    0.0379657061