20

 C    0.9742600670    0.9971268877    1.0244054154
 C   -0.0148031889    0.1552345206    0.2162318125
 O   -1.2251034427    0.8869504955    0.0273699182
 C    0.6180638962   -0.2609874582   -1.1139825369
 C    0.7578771863   -1.5816707920   -1.7535255545
 C   -0.4445829683   -2.5418980243   -1.7439202966
 C   -1.7026908482   -1.9877904515   -1.1146310448
 C   -1.2267619851   -1.4425743876   -2.4217891166
 N   -0.0386626865   -0.4912647236   -2.4453301803
 H    1.8831429003    0.4273185293    1.2472573911
 H    1.2551606041    1.8994831249    0.4708126534
 H    0.5152779877    1.3026440680    1.9681080616
 H   -0.2616841767   -0.7320196788    0.8098304570
 H   -1.2801268997    1.1228408633   -0.9044097806
 H    1.4833546430    0.3657742323   -1.3357345380
 H    1.7056770443   -1.9060236466   -2.1756365424
 H   -0.3475161890   -3.5817232678   -2.0247477653
 H   -2.5449899980   -2.6647575487   -1.2359281603
 H   -1.7526023175   -1.3976159047   -0.2137704692
 H   -1.8160399685   -1.4546045477   -3.3295715837