17

 O    0.5326593866   -0.1499581954    0.6190785210
 C    0.3615233328    1.0431480663    0.4874877188
 N    1.1434766321    1.8681112794   -0.2596894515
 C    2.3468734962    1.3941879031   -0.9364770590
 C    3.5265228203    2.1891950335   -0.6140165896
 C    4.4904963557    2.8661235310   -0.3557758813
 C    5.6591030865    3.6449002260   -0.0603947930
 C    5.9579225058    4.0270705673    1.3544741289
 N    6.7930225224    3.0335902471    0.6777590089
 H   -0.4719230682    1.5929162457    0.9667093085
 H    0.9505321618    2.8568811499   -0.2613485339
 H    2.4728730551    0.3524510016   -0.6238598049
 H    2.1935245504    1.3844135199   -2.0240760755
 H    5.9823013237    4.3205879969   -0.8480999908
 H    6.4427170969    4.9792956366    1.5499972891
 H    5.2582620898    3.6988544212    2.1172694623
 H    6.5231380122    2.0987443899    0.9750712821