17

 C    0.0045646491    1.4451390402   -0.0183507096
 C   -0.0429252059   -0.0473133688    0.0672241001
 N    0.6282463694   -0.9754563606   -0.9793477825
 C   -0.0062098100   -1.9433341249    0.0342947834
 C    0.6286794645   -1.0101410110    1.1222805656
 O    2.0087285044   -0.9786005717    1.2416661891
 C   -1.2051863422   -1.0177498322    0.0568460352
 N   -2.4603125168   -0.9480409943   -0.0450639546
 O   -3.0396510423   -2.2379763603   -0.1169419105
 H    1.0409128411    1.7921178985    0.0298235949
 H   -0.4438729411    1.8060972334   -0.9490555347
 H   -0.5475446043    1.8864174363    0.8167687797
 H    0.0846656690   -0.9717227642   -1.8463674962
 H    0.0544888461   -3.0224252009   -0.0796868065
 H    0.1833477811   -1.0355921189    2.1168211852
 H    2.3422359015   -0.9738531620    0.3312060400
 H   -3.9781336935   -2.0296469386   -0.1770668186