18

 O   -0.0954307884    0.0488891935    0.5218305673
 C   -0.1023368720    1.1974974568    0.1530904387
 C   -1.3358959808    2.0914882241   -0.0719576530
 C   -0.8012798313    3.4642958152    0.3367630911
 C   -0.3008230604    3.6177257858    1.8217107844
 C    1.1961464815    3.6276666874    1.3622747155
 C    1.8426030879    2.2296821336    1.2490820653
 N    1.0482803062    1.9892362323   -0.0040721434
 C    0.6830104547    3.4302743838   -0.0944003643
 H   -1.6453930937    2.0812164323   -1.1242712703
 H   -2.1666842539    1.7139784265    0.5275544043
 H   -1.4001839335    4.3046980558   -0.0163063143
 H   -0.6047958019    4.5678871167    2.2647011461
 H   -0.5826694824    2.8156811988    2.5108023392
 H    1.8117026915    4.4639968011    1.6924409836
 H    2.9161287231    2.2609075401    1.0407824793
 H    1.6444874321    1.4910870254    2.0310256893
 H    1.0515052510    3.9476074408   -0.9816535187