18

 C   -0.0358582208    1.5847128666    0.0564227473
 C    1.4769109818    1.8241295403   -0.0126105769
 C    2.0211606671    0.9204953342   -1.1700640255
 C    1.0453778005   -0.2980391057   -1.1371767188
 C    0.0252841041    0.0556532389   -0.0173666605
 C    1.1559477493   -0.3944217860    0.9514993570
 C    2.1356662678    0.8206780903    0.9931694504
 C    2.9046920348    0.1230137159   -0.1666790380
 N    1.9506400117   -1.0636159206   -0.1709393008
 H   -0.4836533176    1.9479575588    0.9889776808
 H   -0.5776350788    2.0298794008   -0.7864478580
 H    1.8349822074    2.8533965425    0.0159281624
 H    2.3481484904    1.3461159773   -2.1174426602
 H    0.7384323810   -0.7853387327   -2.0636507099
 H   -0.9114593493   -0.4997944551    0.0065944946
 H    0.9459478871   -0.9662380027    1.8564616180
 H    2.5627039772    1.1590902216    1.9358869031
 H    3.9800394563   -0.0428390746   -0.2312513748