27

 C    0.1119543095    1.5694901686    0.1107169263
 C    0.0455888673    0.0402424964    0.1071253709
 C   -1.3804998693   -0.4966597025   -0.0626939628
 C   -1.4639256543   -2.0290058869   -0.0229693471
 O   -0.8646081479   -2.5303224933    1.1755167446
 C   -2.8931060226   -2.5943434156   -0.2001405319
 C   -3.5710870822   -2.0762358823   -1.4778845414
 C   -2.8655103012   -4.1362245947   -0.1618153216
 C   -4.2297695015   -4.7924872507    0.0720112793
 H    1.1409206289    1.9234061216    0.2292766583
 H   -0.2781115260    1.9891640799   -0.8236447081
 H   -0.4801336235    1.9909201859    0.9312523042
 H    0.6733122178   -0.3529696591   -0.7036520169
 H    0.4686444427   -0.3585943897    1.0345361877
 H   -2.0276158942   -0.0856871893    0.7287751251
 H   -1.7920243710   -0.1312490320   -1.0101980707
 H   -0.8320272767   -2.4354711871   -0.8255163488
 H   -1.3804244188   -2.1922527708    1.9167517711
 H   -3.4814333076   -2.2452900817    0.6653907192
 H   -4.5345030380   -2.5682643040   -1.6376238075
 H   -3.7605868227   -1.0005748266   -1.4423913750
 H   -2.9484030506   -2.2797677508   -2.3576849802
 H   -2.4370467743   -4.5039302629   -1.1049189359
 H   -2.1761651550   -4.4447658088    0.6290089876
 H   -4.6691354756   -4.4617284731    1.0203167757
 H   -4.9471879173   -4.5604493353   -0.7217779274
 H   -4.1350167059   -5.8821698854    0.1156433154