23

 C   -1.0215394477    0.9473934618    0.0311901586
 C    0.0990489774   -0.0820087231    0.0475484988
 C    1.3738343234    0.1789572529   -0.8035391784
 C    2.2119312448   -0.4443055539    0.3277353551
 C    2.8523055861   -1.8416533237    0.1727656143
 C    4.1563693209   -1.1325073528    0.5823617608
 O    3.4879859758    0.1437097477    0.6491571078
 C    1.0206311016   -0.2347171778    1.3074275859
 C    1.1741572741    1.0024510011    2.1885373496
 H   -0.6548076781    1.9491669088    0.2757954288
 H   -1.4850670934    0.9990744822   -0.9604041772
 H   -1.8088699859    0.6950856733    0.7504774857
 H   -0.3141622326   -1.0643959288   -0.2071694883
 H    1.4424200873   -0.2713598234   -1.7979668256
 H    1.5912445188    1.2488323016   -0.8863510622
 H    2.4876428746   -2.6049466771    0.8632803986
 H    2.8426542465   -2.2412196699   -0.8434615761
 H    4.5721381167   -1.4285154044    1.5534196421
 H    4.9615105700   -1.1328306316   -0.1617461274
 H    0.7932121894   -1.1023739056    1.9372180478
 H    1.4253028372    1.8950331278    1.6073838416
 H    0.2531677813    1.2074779086    2.7437171346
 H    1.9833965018    0.8546537365    2.9091645750