25

 C   -0.5381775903    1.4594148894    0.2367687708
 C   -0.0086508570    0.0613737814    0.0168807500
 C   -0.7842671259   -1.1148942443    0.5632095863
 C    0.5750961308   -0.7793360956    1.1335059895
 C    1.7856980364   -1.5357596553    0.6145648574
 C    1.7996393491   -1.3831669309   -0.9439550459
 C    3.2177046808   -1.0547117447   -1.4406342409
 C    1.3380988265   -2.6759426783   -1.6429783291
 C    0.8280555860   -0.1914614365   -1.2338082286
 H    0.2719057359    2.1987175552    0.2256669084
 H   -1.2538680875    1.7436327218   -0.5443731688
 H   -1.0534323777    1.5423688943    1.1993076975
 H   -1.6441157237   -0.8826650736    1.1841674430
 H   -0.9121151321   -2.0104233601   -0.0342713541
 H    0.6102148291   -0.3979209494    2.1494903338
 H    2.6931318503   -1.0916551909    1.0406246745
 H    1.7868620107   -2.5915994806    0.9111334434
 H    3.9165703887   -1.8662164005   -1.2073756200
 H    3.2319381753   -0.9072029677   -2.5266094087
 H    3.5976744175   -0.1400975089   -0.9728817463
 H    0.3331161256   -2.9826463211   -1.3418700743
 H    1.3304766271   -2.5470979916   -2.7313284042
 H    2.0170522995   -3.5045741603   -1.4116019583
 H    0.2107678115   -0.3843091712   -2.1199881236
 H    1.4068074834    0.7148440993   -1.4521636217