15

 C   -0.1224621980    1.4589526399   -0.0329813965
 N   -0.0268280463    0.0088530408    0.0607235905
 N    0.2393391487   -0.6170903605   -1.1435233099
 N    0.2977494467   -1.8647906714   -1.1792295363
 C   -0.0265146346   -2.6363677957    0.0078368378
 O   -0.3565682813   -3.7843676994   -0.1249280012
 N    0.0965403196   -1.9930516214    1.2338015754
 C    0.0564530409   -0.6994275871    1.2290171119
 C    0.1255309888    0.0606850290    2.5217087673
 H    0.7237516020    1.9505093279    0.4558459331
 H   -0.1155357621    1.7056325191   -1.0943768272
 H   -1.0532030548    1.8129804556    0.4173443171
 H    0.2246136356   -0.6605632725    3.3319153943
 H    0.9778853541    0.7477779689    2.5358839705
 H   -0.7805110893    0.6552309170    2.6794220330