19

 C   -0.1705299800    1.4591561631   -0.0446177112
 C    0.0419734203   -0.0501623676   -0.0390430391
 C    1.2792931409   -0.5747550500   -0.8228321965
 C    2.1171953333   -0.4051021870    0.4687966701
 C    0.7718840812   -0.6113109686    1.2368865716
 C    0.5048913741   -2.0949083887    1.2666209355
 O    0.1246188433   -2.7194045920    2.2259275838
 C    0.7674943486   -2.7950762581   -0.0792979228
 O    1.1214566694   -1.9421455217   -1.1647479668
 H    0.7385924326    2.0112681786    0.2129293244
 H   -0.4950880454    1.7966395879   -1.0348036021
 H   -0.9445919108    1.7432712203    0.6755446498
 H   -0.8930302313   -0.5541170896   -0.3054461944
 H    1.5859838767   -0.0675727562   -1.7396579121
 H    2.9279591902   -1.1179267664    0.6374652891
 H    2.4997077707    0.6090291872    0.5907834260
 H    0.6073251922   -0.1493903667    2.2109991075
 H    1.5667459917   -3.5304426808    0.0864427185
 H   -0.1336673277   -3.3600127239   -0.3460106112