19

 C    0.0999784913    1.5827418125   -0.2207652069
 C    0.0648383865    0.0875977115   -0.0126034203
 N    1.3453891004   -0.6336887932   -0.0591018892
 C    0.5806056573   -0.6168124314    1.1984147802
 C    1.2199059747    0.0893741646    2.3511139803
 N    0.5219983878    0.0471932428    3.6278801298
 C    1.8360283375   -0.6225472557    3.5306846530
 C    1.8164890753   -2.1043108578    3.6682830585
 O    2.7754212779   -2.7587861816    3.9930351410
 H    1.0012498036    2.0265670074    0.2078219077
 H    0.0966373528    1.8172061803   -1.2904664681
 H   -0.7755343762    2.0604787183    0.2318765867
 H   -0.7883939319   -0.4019365758   -0.4820216419
 H    1.2527764465   -1.5303628418   -0.5271524350
 H    0.0397533987   -1.5172514980    1.4797477439
 H    1.7418931764    1.0043054764    2.0809048932
 H    0.6090637280    0.9234665506    4.1341133429
 H    2.7122505700   -0.1518552966    3.9700394924
 H    0.8294382632   -2.5711997726    3.4583412821