13

 O    0.0100044784    0.0281551442    0.0501508572
 C    0.0020779682    1.2197310888   -0.0235683369
 C   -1.1005709251    2.3114899284    0.0382152274
 C   -0.0413274957    3.1228527543    0.8398392337
 C    1.0402998693    2.3479893640    0.0194158760
 N    1.0828790619    2.9233203804   -1.3482910801
 C   -0.0570293362    3.1569661350   -1.8513219183
 O   -1.2587235480    2.8993841959   -1.2770063132
 H   -2.0958145422    2.1043736824    0.4248731067
 H   -0.0577576570    4.2057877152    0.7083376034
 H   -0.0472679554    2.8536267305    1.8977706463
 H    2.0437452285    2.1872124475    0.4074401837
 H   -0.1737089868    3.6097124335   -2.8321379359