16

 O    0.1144308951    1.3679091907   -0.0878146752
 C    0.0091541256   -0.0175783116    0.0019022163
 C    0.3033303807   -0.6423494216    1.3896077646
 O   -0.8017954204   -0.0502593105    2.1729823666
 C   -1.9048899134   -0.0763292586    1.3515352113
 N   -3.0664322670    0.3091440912    1.6575343937
 C   -1.4398765369   -0.6370929576    0.0139326293
 C   -1.0783953923   -2.0865074137    0.2950575423
 C   -0.0260305784   -2.0913988162    1.1232277588
 H   -0.3422116907    1.7617033501    0.6659497060
 H    0.6221639366   -0.4436512853   -0.7924869009
 H    1.2326585672   -0.3861327812    1.8921337652
 H   -3.0954497487    0.6290092447    2.6279836068
 H   -2.1079319479   -0.4255448815   -0.8158427911
 H   -1.6298405739   -2.9341861536   -0.0886619829
 H    0.4761825345   -2.9400018552    1.5662562493