15

 O    0.0467500799    0.7704060755   -0.6586571865
 C   -0.3016997341   -0.4702686141   -0.1177695110
 C   -0.0117494756   -0.7020267937    1.3903957236
 O   -1.4153751848   -0.8422191884    1.6855676269
 C   -1.7907267228   -0.5511673328    0.3205676191
 C   -2.5564632568    0.7577479611    0.2042753853
 O   -3.3175409213    0.9968744153   -0.6935324184
 C    0.7865303605   -1.9335537758    1.7556396389
 O    1.8464407235   -2.1943007884    1.2466208453
 H    0.9279390460    0.7100220608   -1.0403920720
 H    0.0213630133   -1.3036780213   -0.7492907936
 H    0.4314164512    0.1808957406    1.8730872875
 H   -2.3762957781   -1.3568605832   -0.1333682008
 H   -2.3572725688    1.4712393544    1.0328993041
 H    0.3092734577   -2.5846910900    2.5203491416