17

 C   -0.2914235768    1.5318548334   -0.1404465717
 C    0.0458007149    0.0523690330   -0.0258763552
 O    1.0637123555   -0.2723969403   -1.0257823782
 C    2.0993485722   -0.7988061960   -0.3427156375
 N    2.0213865225   -0.9561860632    0.9120676228
 C    0.6851053679   -0.4558856118    1.3050871850
 C    0.8659094678    0.5508942194    2.4476958690
 O    1.5034588385   -0.0682950455    3.5432423767
 H    0.5823849872    2.1588939742    0.0534803034
 H   -0.6547536936    1.7541441404   -1.1472344828
 H   -1.0775153062    1.8008325444    0.5716731204
 H   -0.8337828830   -0.5454439595   -0.2819969074
 H    2.9567171135   -1.0560536991   -0.9556691311
 H    0.1127766453   -1.2984888401    1.7098734909
 H    1.4378058441    1.4210675265    2.0892568346
 H   -0.1052512650    0.9113124507    2.8039813816
 H    2.2628970852   -0.5363798365    3.1721754791