19

 C    0.0743238113    1.4964616559   -0.1826776373
 O    1.5286626505    1.4266743328    0.0774130188
 C    1.2969063946    0.2066983706    0.8420905306
 C    1.1118168088    0.3446538711    2.3494805328
 C    0.0256583328   -0.7497765821    2.5525650283
 C   -0.1420658962   -1.2330852968    1.1111098696
 C    1.3167649703   -1.3129751441    0.4370670309
 C    0.6975399215   -0.9425417342   -0.9129838355
 C   -0.0189253668   -0.0182071607    0.1106623594
 H   -0.4160751412    2.1654541506    0.5331311793
 H   -0.1353274099    1.8145503640   -1.2077106090
 H    2.0323215533    0.1443575160    2.9054709853
 H    0.7668180931    1.3440534268    2.6277582484
 H    0.3522350213   -1.5636352243    3.2071712847
 H   -0.9029990521   -0.3463290144    2.9671114956
 H   -0.8426048605   -2.0463028162    0.9081037965
 H    2.0588504029   -2.0890336403    0.6564753042
 H    1.3563084865   -0.4423143013   -1.6247701693
 H    0.0784629198   -1.7006323532   -1.3999614534