18

 O    0.2108591179    1.2969254749    0.2832078022
 C    0.1018290567   -0.0932419742    0.1018524127
 C   -1.3605521061   -0.5049169297   -0.1545052328
 C   -1.4855330131   -2.0163126805   -0.3227811111
 O   -2.8037048526   -2.4145084880   -0.6766951011
 C   -3.6796134955   -2.4348323973    0.3894224683
 O   -4.1843567973   -1.1604521108    0.7985021209
 C   -3.3418046108   -0.1836700389    1.2199072015
 N   -2.1585185382    0.1091711532    0.8972821971
 H   -0.5315290348    1.5257690754    0.8616544415
 H    0.7255371884   -0.3649923011   -0.7568293435
 H    0.4795503813   -0.6478163208    0.9789504679
 H   -1.6776304631   -0.0379779695   -1.0982114348
 H   -0.8376584948   -2.3497742108   -1.1388348074
 H   -1.1746877845   -2.5324347299    0.5992447455
 H   -4.5671656277   -2.9875514642    0.0792999748
 H   -3.2127631481   -2.9053095018    1.2698685055
 H   -3.8650814378    0.4493084141    1.9372358527