21

 C    0.8522479692    0.7257488549   -0.6791242034
 C   -0.0593805843   -0.0845147909    0.2263194527
 O    0.7254234639   -0.6863240469    1.2377682278
 C   -0.0225869832   -1.4695327758    2.1404086332
 C    0.9434748956   -2.0861073945    3.1589214436
 O    0.2240251866   -2.7705379091    4.1639646525
 C    1.9329245535   -3.0164799450    2.4755034097
 C    2.6063277876   -4.0870563890    3.2127203277
 O    1.4736932946   -4.3758747165    2.3741380160
 H    1.6058489054    0.0816306861   -1.1413148109
 H    0.2720107901    1.2054320590   -1.4729216068
 H    1.3687923633    1.5026913470   -0.1084093560
 H   -0.8285590754    0.5617080179    0.6812557204
 H   -0.5909855416   -0.8595713772   -0.3508066096
 H   -0.7672519580   -0.8619984961    2.6772653197
 H   -0.5651507644   -2.2725992677    1.6119968755
 H    1.4945029423   -1.2712914949    3.6440251033
 H    0.0497187676   -3.6506633544    3.7994281037
 H    2.3883364238   -2.6228115243    1.5695793987
 H    3.5554816319   -4.4772342203    2.8510185064
 H    2.4230496716   -4.1916738919    4.2793583557