16

 N   -0.0102062340   -1.0814341247   -0.4297645512
 C   -0.0038634156    0.0501299792   -0.1938421904
 C   -0.0464221053    1.4792043421    0.0973330057
 C   -0.4104574480    2.3689597060   -1.1346401411
 C    1.0657369531    2.8469000849   -1.1401347011
 N    1.3103723158    2.1269493513    0.1558680849
 C    1.2493942640    2.8993300346    1.3291801535
 N    0.2542929586    2.7595321196    2.1104053423
 C   -0.6698431859    1.8017633838    1.4919371159
 H   -0.7555294914    1.8393774811   -2.0226149093
 H   -1.1252706358    3.1520766506   -0.8742606318
 H    1.6723937205    2.4267289103   -1.9451219211
 H    1.2313997886    3.9255842673   -1.0864714619
 H    2.0727974211    3.5783031743    1.5350112597
 H   -1.6724163239    2.2359955627    1.4111486614
 H   -0.7483013918    0.9013234369    2.1085144846