16

 C   -0.2684376420    1.3485507821    0.0632850749
 N    0.0274307183   -0.0708075221   -0.0239845122
 C   -0.0658679746   -0.8386986162    1.2161812703
 C   -1.4349695171   -0.9486918544    1.7225285831
 C   -2.5596758775   -1.0149466248    2.1395738820
 C    0.1139411660   -0.7594257831   -1.2037365768
 N    0.1768217728   -2.0395377601   -1.2615237224
 C    0.1685015747    0.0529121017   -2.4112125671
 N    0.2187404583    0.6216188321   -3.4171828554
 H   -0.1370247150    1.8236211473   -0.9087595369
 H   -1.2976836961    1.5163641199    0.4032653826
 H    0.4133022022    1.8256626067    0.7764006874
 H    0.3429998915   -1.8320569882    1.0181683808
 H    0.5673270956   -0.3506516663    1.9680003498
 H   -3.5534895916   -1.0925303545    2.5064291400
 H    0.2917026644   -2.3605189701   -2.2183500900