19

 C    0.0499022955    1.5312905111    0.0000956687
 C   -0.0476514063    0.0384963019    0.0860650499
 C   -1.3542038779   -0.7859292908    0.0324565570
 C   -0.7019828775   -1.7899660443    1.0098071640
 C   -1.3619340052   -2.4448919762    2.1827069821
 C   -0.8152022551   -3.2880353443    1.0487359279
 C    0.5644443586   -0.9559482685    1.0378732321
 N    1.0964393887   -0.7781445205   -0.3156053100
 H    1.0675952213    1.8590502346    0.2273317518
 H   -0.1979151752    1.8828410859   -1.0089286969
 H   -0.6402191512    2.0138343019    0.7004942643
 H   -2.2081312730   -0.2650916105    0.4763196322
 H   -1.6414962243   -1.1557341529   -0.9589300796
 H   -0.8280007694   -2.4581551098    3.1279655426
 H   -2.4391682572   -2.3566048279    2.2836435633
 H   -1.5280137083   -3.7651307466    0.3834881757
 H    0.0824797635   -3.8705255928    1.2310666153
 H    1.2344216970   -0.8138518462    1.8797077235
 H    0.8407720460   -1.5515155841   -0.9282241639