16

 C    0.0455506543    0.9610313473   -1.2885673513
 C   -0.0253021267    0.0457859956   -0.0896043691
 C    1.1714832513   -0.6001888441    0.4690249054
 O    0.5717195185    0.5315189431    1.1106458179
 C   -1.3621966761   -0.6358568896    0.1187273423
 C   -1.9713963691   -0.7313903022    1.4592532321
 O   -2.4422000844    0.2187804520    0.5040351697
 C   -1.6957067397   -1.6362077844   -0.8823488423
 N   -1.9175491050   -2.4315516731   -1.6910240671
 H    1.0326310016    1.4235162899   -1.3520410014
 H   -0.1459368892    0.4064038896   -2.2124624950
 H   -0.7072750135    1.7497509500   -1.1998007939
 H    1.0818315771   -1.5426095638    1.0067688385
 H    2.1383106895   -0.4158030390    0.0048379394
 H   -2.6510091173   -1.5528497913    1.6752367596
 H   -1.4098968815   -0.3163490800    2.2912641554