16

 O   -0.0452748078    1.3257388544    0.2407325080
 C    0.0206535145   -0.0333993470   -0.0473285169
 C    1.3945092490   -0.7364274639    0.2400709296
 O    1.5713027429   -1.7404865518   -0.8188993801
 C    0.2237917786   -1.9756457633   -0.9951987365
 N   -0.4038098045   -2.8440888088   -0.3156106037
 C   -1.6626408536   -2.1845847984    0.1100857954
 C   -1.4002026007   -0.6935550888   -0.1421258309
 C   -0.4713151323   -0.6547962348   -1.3111527839
 H    0.5869215662    1.7899818752   -0.3209759677
 H    2.2025718600   -0.0047575815    0.1415998087
 H    1.4510535796   -1.2359258261    1.2113386947
 H   -2.5514084615   -2.5250114930   -0.4388924061
 H   -1.8080878087   -2.4431578436    1.1643175743
 H   -2.2013415582    0.0307879088   -0.0403363787
 H   -0.5823743035   -0.2231680073   -2.2974820563