18

 C    0.0566541797    1.5648811163   -0.0249161367
 C    0.0161823755    0.0332591754    0.0585157168
 N    0.6786538548   -0.5299997322    1.2289933567
 C   -1.4530737248   -0.5348799752    0.0166852222
 C   -2.2547444872   -0.0435232521   -1.2170996522
 C   -1.3815406606   -2.0073878360   -0.0311396567
 N   -1.3490315150   -3.1550254325   -0.1525091804
 C   -2.1536592872   -0.1257957745    1.2487222734
 N   -2.6805874042    0.2535871070    2.2041377006
 H    1.0966401554    1.8962197937    0.0467467532
 H   -0.3487559470    1.9500395840   -0.9647765861
 H   -0.4988242601    2.0181482829    0.8033088856
 H    0.5065693586   -0.3891690060   -0.8256150764
 H    1.6851287651   -0.4427654388    1.1443343992
 H    0.4030697554   -0.0320276711    2.0711346684
 H   -1.6971702802   -0.2740062623   -2.1282298505
 H   -3.2225197968   -0.5456565216   -1.2638518132
 H   -2.4235181116    1.0323186131   -1.1581722239