27

 C    0.0367204589    1.4099172948    0.4279589304
 C   -0.1170300696   -0.0540117395   -0.0015970533
 C    0.6494161789   -0.4537273098   -1.2793976600
 C    2.1519875805   -0.1579344010   -1.1473601583
 O    2.4022501678    1.2040106066   -1.4364842333
 C    3.7617523235    1.5439366255   -1.3217301566
 C    0.4436052494   -1.9446949928   -1.6799258399
 C   -0.9857816761   -2.4623685570   -1.4558214538
 C    0.8317993218   -2.1852080908   -3.1489554913
 H    1.0704681799    1.6626065089    0.6720975548
 H   -0.2789020911    2.0899433197   -0.3700269385
 H   -0.5821095668    1.6129966183    1.3083809359
 H    0.2010517554   -0.7109732681    0.8210700071
 H   -1.1826503047   -0.2535943137   -0.1511742034
 H    0.2818331542    0.1703832620   -2.1064844663
 H    2.4929323814   -0.4001564014   -0.1243541748
 H    2.7424022822   -0.7879107559   -1.8308728612
 H    4.3902454730    0.9514929840   -2.0065012625
 H    3.8599063625    2.6014667159   -1.5795316707
 H    4.1396264048    1.3917348023   -0.2977060021
 H    1.1114966966   -2.5493711445   -1.0469447833
 H   -1.7172795155   -1.8561804520   -2.0039209501
 H   -1.0742987211   -3.4909400317   -1.8210700916
 H   -1.2724795795   -2.4629544426   -0.4016429970
 H    0.7867602094   -3.2515702008   -3.3933785073
 H    0.1370194755   -1.6630393530   -3.8175358524
 H    1.8403794186   -1.8360537934   -3.3863164306