23

 C   -0.4664891790    1.4924423639    0.3960004346
 C    0.0751725403    0.1085725245    0.0283249713
 C    0.7379382966   -0.6087913369    1.2085177152
 C    1.2813621890   -1.9985305831    0.8466523534
 C    1.9318303786   -2.6736157399    2.0307154450
 O    1.0705220460   -3.2067405039    3.0470273131
 C    1.9189340910   -4.1167969231    2.3235443397
 C    1.1966165302   -5.1690697716    1.5197489790
 O    0.6026823914   -6.1324066890    2.3752207678
 H    0.3345450111    2.1492781623    0.7531071332
 H   -0.9369040547    1.9790289573   -0.4640600615
 H   -1.2162073443    1.4247910630    1.1920172967
 H   -0.7419621260   -0.5137994259   -0.3601027437
 H    0.7991359166    0.2031190434   -0.7921876951
 H    1.5563164934    0.0117671343    1.5995919510
 H    0.0168114738   -0.7150122152    2.0288338307
 H    0.4679948025   -2.6183526630    0.4574501444
 H    2.0267484472   -1.9084893899    0.0444692808
 H    2.7767315074   -2.1150105198    2.4429269757
 H    2.7378982240   -4.5148013518    2.9262709100
 H    0.4502913447   -4.7081537307    0.8591986384
 H    1.9106367246   -5.7141314918    0.8923970115
 H    0.0286621154   -5.6467124430    2.9786384987