21

 C    0.1844178015    1.6509241485    0.0154635960
 C    0.2180025800    0.1137517627   -0.0144250532
 C    0.9126845390   -0.3891737554   -1.2870644619
 O    1.0592027709    0.3149179065   -2.2596769915
 C    1.3965004278   -1.8243321239   -1.2410359448
 C    2.3407645277   -2.0234265396   -0.0418856640
 C    1.7515804417   -1.4453482482    1.2161371179
 C    0.7961107388   -0.5121165205    1.2510162334
 C    0.2236971799   -0.0258205331    2.5577375035
 H    1.1834127071    2.0582291000    0.2007545848
 H   -0.1538024125    2.0286858291   -0.9504718110
 H   -0.4872407350    2.0197530363    0.7938837178
 H   -0.8264340329   -0.2358831942   -0.1023931879
 H    0.5227007807   -2.4760184841   -1.1086503137
 H    1.8720720667   -2.0693852171   -2.1930088953
 H    2.5425702489   -3.0920393561    0.0954315501
 H    3.3166312330   -1.5636245224   -0.2549100463
 H    2.1340123979   -1.8370329752    2.1563790064
 H    0.6243653497   -0.5952138068    3.4002532866
 H    0.4434842512    1.0335823603    2.7319857517
 H   -0.8699093420   -0.1229351868    2.5699768011