19

 C   -0.5585651839    1.2672241189   -0.9555378772
 C   -0.0970798668   -0.1253085739   -0.4885628343
 C    0.9808550932   -0.6782078069   -1.3033533825
 C    1.8859291175   -1.1028717633   -1.9780826729
 C    2.9612288026   -1.6439233959   -2.8167117377
 N    2.5782090286   -2.5657473013   -3.8957431752
 C    1.4778283025   -3.4932239407   -3.6620239177
 C    1.3166583387   -2.3391659008   -4.5908379938
 H    0.2681679056    1.9817778743   -0.9208570058
 H   -0.9279473240    1.2295037303   -1.9839915415
 H   -1.3629425082    1.6383279923   -0.3134375344
 H    0.2320961305   -0.0716320305    0.5572128833
 H   -0.9496425949   -0.8164080103   -0.4976769336
 H    3.5086137091   -0.8155272858   -3.2834974688
 H    3.6840390497   -2.1743678552   -2.1843630367
 H    1.6292325178   -4.4986198951   -4.0447325071
 H    0.9464881902   -3.4307910091   -2.7149373584
 H    0.6814439976   -1.5262184406   -4.2462955936
 H    1.3474079341   -2.4822960267   -5.6672964121