14

 N    0.0629034556    1.3517055294   -0.0093058622
 C   -0.0906547613   -0.0239849107    0.0111571453
 C   -1.1594987896   -0.8443725845    0.0951286278
 N   -0.7534089698   -2.1795027769    0.0741209020
 C    0.5317541898   -2.0904193104   -0.0208807381
 O    1.4523917711   -3.0623502519   -0.0820688591
 C    1.0045235691   -4.3629389750   -0.0393238274
 N    1.8649578812   -5.2755621449   -0.0972294561
 O    1.0440844544   -0.8591852764   -0.0666965811
 H    0.6019711451    1.7043380985    0.7747854306
 H    0.4805311959    1.6934580996   -0.8686881400
 H   -2.1985172979   -0.5672595480    0.1696423846
 H   -0.0808031521   -4.4327196959    0.0421127945
 H    1.4071139085   -6.1843461029   -0.0566566209