17

 O    0.1318396622    1.3781604858   -0.1019944857
 C    0.0249333960   -0.0260571971   -0.0158155243
 C    0.7361159919   -0.5234933890    1.2470478112
 O    0.5993649250   -1.9328379455    1.4928926309
 C   -0.5379608715   -2.6054388634    1.2016693402
 O   -0.7281003629   -3.6860230677    1.6877837561
 C   -1.4773570176   -2.0062169581    0.1589521860
 C   -1.4300993030   -0.4876445754    0.0170767994
 O   -2.0048330880    0.1818089132    1.1404929286
 H   -0.5242770598    1.7319241662    0.5129686835
 H    0.5096800093   -0.4400285808   -0.9066419408
 H    1.8088584159   -0.3358891171    1.1773149816
 H    0.3429084783    0.0188658414    2.1133864572
 H   -1.1966511398   -2.4648167445   -0.7983831804
 H   -2.4865040629   -2.3616030660    0.3841674450
 H   -1.9343684604   -0.1738392355   -0.9073428887
 H   -2.9531604327    0.0223362236    1.1492490601