20

 C   -0.4370397022    1.4545541730   -0.1023248535
 C   -0.0680119175   -0.0249098504   -0.0139020621
 C    1.1269924169   -0.4450089023   -0.9188290573
 C    2.0573147520   -0.4629924674    0.3387500923
 O    2.8569952203   -1.6038585969    0.5601101769
 C    2.8708413986    0.7565576905    0.4538583706
 N    3.5318669590    1.7031037645    0.5247500664
 C    0.7769592596   -0.4601189621    1.2309918310
 C    0.7466173980    0.3274980605    2.5299544089
 H    0.4371213169    2.1061236512   -0.0052146657
 H   -0.9027019722    1.6708066443   -1.0697066409
 H   -1.1503043512    1.7333771830    0.6800933559
 H   -0.9680830709   -0.6283881754   -0.1569431109
 H    1.0355370213   -1.4639570843   -1.3015546895
 H    1.4029787234    0.2298462861   -1.7319691518
 H    3.6354766050   -1.5567046668   -0.0070234410
 H    0.5845113471   -1.5185942948    1.4333671100
 H    0.9721258240    1.3860420463    2.3748261406
 H   -0.2407676913    0.2570366920    2.9980791834
 H    1.4803522130   -0.0703190911    3.2383944369