17

 O    0.1327175226    0.1362498025   -0.7009479910
 C   -0.0294359810    1.1658895880   -0.1303027856
 C   -1.1894155654    2.0742507333    0.2747457139
 C   -0.0778406755    2.9436403720    0.8738538976
 O    0.9288553986    1.9794295564    0.4210811535
 C    0.1702301749    4.4474807085    0.6554736268
 C   -0.8918264205    4.6675564883    1.7762868263
 C    0.0146581946    3.5122268066    2.3017580605
 C    1.2338778657    4.3462165707    1.7946096221
 H   -1.7410094400    2.4990235133   -0.5661048106
 H   -1.8880605858    1.6210698579    0.9805946325
 H    0.2543546593    4.9712922472   -0.2961969130
 H   -0.8132399227    5.6109092706    2.3196314534
 H   -1.9314720759    4.4263942544    1.5410367359
 H   -0.0796456928    2.9633769608    3.2382420485
 H    2.1467196851    3.7956007742    1.5680654515
 H    1.4370581588    5.2710687955    2.3392140276