20

 C    0.0593498497    1.5652913139    0.1279642390
 C   -0.0310941132    0.0440452353   -0.0085096076
 C    0.6525379082   -0.5031575758   -1.2732158880
 O    2.0158049446   -0.1307679737   -1.2300596744
 C    0.5447526161   -2.0361766643   -1.3423259642
 O    1.3553939812   -2.4476903354   -2.4186829110
 C    1.4102434627   -3.8484833698   -2.5876564399
 C    0.0089618321    0.0713438742   -2.4877541271
 N   -0.4977903755    0.5258594568   -3.4214656874
 H    1.1022113619    1.8901865808    0.1324786463
 H   -0.4514445789    2.0682405817   -0.6983561822
 H   -0.4076102073    1.8896746002    1.0619873787
 H    0.4588277660   -0.4397071867    0.8435350008
 H   -1.0781614431   -0.2794071017   -0.0133647360
 H    2.4631794241   -0.6772789055   -1.8908352855
 H    0.9120197008   -2.4557654512   -0.3926054731
 H   -0.5004889133   -2.3488491346   -1.4850008144
 H    1.8150936115   -4.3472749979   -1.6944029764
 H    0.4153623294   -4.2651352801   -2.8007685886
 H    2.0676501531   -4.0459066460   -3.4366946389