12

 O   -0.1211065056   -0.0173502172   -0.0019489574
 C   -0.0260198652    1.1786897121    0.0068206210
 C    1.2655399224    1.9461325506   -0.0008809801
 N    2.3569579225    1.2431156107   -0.0181532198
 O    3.5401407564    1.9162910903   -0.0253689106
 C    3.6671073206    3.3244536786   -0.0155279561
 O    4.7758875180    3.7730526145   -0.0233165685
 C    2.4103829925    4.0557450937    0.0039020156
 C    1.2451821359    3.3850569038    0.0109373797
 H   -0.9212332032    1.8397820230    0.0215675973
 H    2.4820688072    5.1363430514    0.0119162383
 H    0.2887830485    3.8993245787    0.0253400706