16

 C   -0.0180534786    1.4144690558    0.0257231199
 C    1.4227130047    1.9313047236   -0.0114387791
 N    2.1073703259    1.2349095571   -1.0865391535
 N    3.2715110616    1.6534377976   -1.6219810834
 N    3.6219381851    0.7679549597   -2.5127903404
 C    2.6913407601   -0.2253822944   -2.5478788932
 C    1.7074586373    0.0590085884   -1.6275138143
 C    0.4123699920   -0.5577390375   -1.1871989715
 O   -0.0384172485   -0.0021823422    0.0391113818
 H   -0.5141363037    1.7471263818    0.9401923762
 H   -0.5814028267    1.8023837372   -0.8377870795
 H    1.4630574853    3.0066147229   -0.2014279785
 H    1.9279647554    1.7234634233    0.9374431596
 H    2.7825709744   -1.0640480056   -3.2190450897
 H   -0.3543880857   -0.4214431993   -1.9683943695
 H    0.5254127315   -1.6320735584   -1.0187731650