18

 C    0.3350304953    1.2843143480    0.2448083788
 C    0.0008606931   -0.1804415638   -0.0023299168
 C    0.5366025567   -0.8389756369   -1.3068907691
 C    1.2649789174   -1.8108356412   -0.3598527951
 C    2.7811566806   -1.8523174040   -0.3833129577
 O    3.2845432519   -2.4961250692    0.7673927071
 O    0.8026599846   -1.0716440530    0.8105742795
 C   -1.4345605857   -0.4307274550    0.2256550743
 N   -2.5622089886   -0.6225796996    0.3901306710
 H    1.3987733804    1.4517181585    0.0592458714
 H   -0.2511754874    1.9285082801   -0.4172972704
 H    0.1107362946    1.5538288553    1.2802643077
 H   -0.2138870657   -1.2714725704   -1.9664743141
 H    1.1948644371   -0.1795396633   -1.8764109431
 H    0.8599642689   -2.8290435003   -0.3448793067
 H    3.1259483206   -2.4257149537   -1.2515399630
 H    3.1719739759   -0.8256694048   -0.4804645773
 H    2.9080105202   -2.0358071466    1.5271143235