19

 O   -0.0118666816    1.4221414712   -0.2472037850
 C    0.0113884918    0.0216945279   -0.0239047246
 C   -1.4160416727   -0.4937742017   -0.1851003875
 C   -1.4963665041   -2.0102144963   -0.0556533468
 C   -1.3865730260   -2.7184931144    1.3544489446
 C   -2.8640621985   -2.2645599667    1.6177264596
 C   -2.8912751838   -2.7244545021    0.1184722940
 C   -2.0472830370   -3.9024896604    0.6312509648
 O   -1.9572356880   -5.0860407383    0.5288893896
 H    0.8833957513    1.7589355694   -0.1490849904
 H    0.6751974123   -0.4874952869   -0.7419149023
 H    0.3815940613   -0.2168466600    0.9862968660
 H   -2.0519215171    0.0295057141    0.5333685020
 H   -1.7717481164   -0.2053218983   -1.1815994495
 H   -0.8638543800   -2.4702762880   -0.8228893358
 H   -0.5489991174   -2.7118539164    2.0488281220
 H   -3.4450722134   -2.8546556969    2.3286804623
 H   -3.0064755324   -1.1985979673    1.7849923942
 H   -3.7331572083   -2.7184805990   -0.5707371872