18

 C   -0.3188145645    1.4607773687   -0.1407504313
 C    0.0240439988   -0.0151165223    0.0424436493
 C   -1.2098520151   -0.8494604053    0.4062824081
 C    0.9311979249   -0.6529106590   -1.0965724205
 C    1.9597780801   -1.1432206059   -0.0222344130
 C    1.1961620396   -0.2987452106    1.0081768353
 O    1.4344566862    0.0622396604    2.1222769528
 C    0.3342819166   -1.6637185307   -1.9491306721
 N   -0.1525317996   -2.4714132364   -2.6186134673
 H    0.5646893149    2.0530323365   -0.3991287921
 H   -1.0625051964    1.5900659908   -0.9339952835
 H   -0.7330565666    1.8669919523    0.7866695071
 H   -1.9623922194   -0.7853060377   -0.3855312946
 H   -0.9673358007   -1.9065552769    0.5491192013
 H   -1.6467890025   -0.4727120654    1.3353440334
 H    1.3616824127    0.1299216004   -1.7261818036
 H    1.8926580542   -2.2147105224    0.1860635638
 H    3.0068850266   -0.8818749263   -0.1861245332