17

 C    0.1137892140    1.6589671998   -0.3021443914
 C    0.0372536421    0.1442324167   -0.1516391031
 C   -1.3906110121   -0.3443318855   -0.0632142095
 O   -1.7650368288   -1.2563774811    0.6325368198
 C    0.8135482669   -0.7441896394   -1.1473846371
 C    2.2301048273   -0.8550769818   -0.5349997163
 O    2.2670992966   -0.0532981136    0.6419944132
 C    0.9349122002   -0.5621523499    0.9216243575
 C    1.1507421966   -1.7625797361   -0.0654934261
 H    1.1563803078    1.9787336473   -0.3260897425
 H   -0.3719583027    1.9827806743   -1.2294832326
 H   -0.3840525996    2.1695284005    0.5303128021
 H   -2.1088803551    0.2109829515   -0.7103422598
 H    0.6105426045   -0.9129171545   -2.1977624719
 H    3.1364761399   -1.0078010158   -1.1053145399
 H    0.6711215636   -0.5855576436    1.9752727078
 H    1.0267622788   -2.8324144889    0.0063771098