21

 C    0.1731803601    1.4979163322    0.0550137593
 C    0.0145246882   -0.0153367135    0.0005215682
 C   -1.4420027356   -0.4278856921   -0.1855560572
 O   -1.8760501871    0.0198420875   -1.4615982310
 C    0.9530610433   -0.7942927817   -0.9883180698
 C    1.4660337704   -1.6844215814    0.1762657765
 C    2.6814250596   -1.1110991953    0.9193429125
 O    1.8423200074   -0.2405594198    1.7175503214
 C    0.6409619978   -0.8249266565    1.1745221358
 H    1.2102138985    1.7672554407    0.2674525403
 H   -0.1277165466    1.9453669936   -0.8962377526
 H   -0.4519182075    1.9314553749    0.8447788476
 H   -1.5328601133   -1.5244067069   -0.1027385415
 H   -2.0497166220    0.0133602790    0.6216888585
 H   -2.7879951372   -0.2581445545   -1.5856673006
 H    0.4096000903   -1.3224960209   -1.7737613821
 H    1.7289115675   -0.1848675893   -1.4603595590
 H    1.3876291761   -2.7657481938    0.0749741658
 H    3.2147613633   -1.8315160723    1.5533971264
 H    3.4106165592   -0.5530616426    0.3183193082
 H   -0.0235801323   -1.2008978773    1.9605753034