16

 C    0.0625237176    1.4836389412   -0.1742684101
 O    1.5209388231    1.4455828127    0.0855859804
 C    1.3456357270    0.2166091509    0.8284434582
 C    1.1498697297    0.2336422518    2.3326104268
 O    0.1811719551   -0.8365467862    2.4612200074
 C   -0.0365432908   -1.2445450703    1.1442828525
 C    1.3338927764   -1.2741403204    0.3284516296
 N    0.5893531654   -0.9204499009   -0.9128213285
 C   -0.0057863864   -0.0221385447    0.1476939337
 H   -0.4415059647    2.1488492090    0.5336438764
 H   -0.1585914715    1.7784368533   -1.2036250247
 H    2.0421726279   -0.0112182451    2.9178157992
 H    0.7222334771    1.1717290725    2.7032657305
 H   -0.7565882034   -2.0577370283    1.0796352122
 H    2.0941891698   -2.0600000758    0.3642766713
 H    1.2083528477   -0.3502911495   -1.4957923848