15

 O   -0.1002333976   -0.0052766514    0.0586632255
 C   -0.0491212244    1.1895732520    0.0168859263
 C   -1.2650607568    2.1729796640    0.0622292578
 C   -0.6535940191    3.4194636144    0.6765685222
 C    0.6684886768    3.3865015805    0.5209647269
 C    1.9863236296    3.6184345611    1.2244495845
 N    2.2593236965    2.1483267717    1.0023875065
 C    1.1936922049    2.1100075148   -0.0499268110
 H   -1.6484113192    2.3085645928   -0.9587733415
 H   -2.0840485591    1.7492486012    0.6519942593
 H   -1.2215692722    4.1171322299    1.2808011750
 H    2.6791156109    4.2743781534    0.6797307903
 H    1.9522531077    3.9235552890    2.2746656192
 H    3.1892406458    1.9612356533    0.6397054050
 H    1.5753756063    2.1332554932   -1.0815575959