21

 C   -0.1440217184    1.5593277422    0.1176010602
 N    0.0023218783    0.1205191431    0.1135748970
 C   -1.2080144711   -0.6919128999    0.3813663618
 C   -0.3868913957   -1.5493475702    1.3510081757
 C   -0.8474389335   -2.3568493859    2.4955308557
 N   -0.1969976617   -2.9934931915    1.3287550863
 C    0.7331303819   -0.5422798881    1.2051608149
 C    2.2035930762   -0.7775842710    1.2751192518
 C    1.5236730510    0.1087682869    2.3056104543
 H    0.8336921551    2.0367363675   -0.0064063402
 H   -0.7659225139    1.8626279659   -0.7312193918
 H   -0.6056785109    1.9565133050    1.0408537697
 H   -2.0172148423   -0.1328520648    0.8767395165
 H   -1.6136600440   -1.1937402599   -0.5058663150
 H   -0.2677358562   -2.3941256752    3.4145870500
 H   -1.9195131105   -2.4783320910    2.6353447009
 H   -0.8917769869   -3.4356010085    0.7309759700
 H    2.5326080588   -1.7678562533    1.5720482167
 H    2.8259885904   -0.2943321097    0.5288188411
 H    1.7039058945    1.1771902433    2.2449023008
 H    1.4026954290   -0.2627657749    3.3186604136