20

 C   -0.0198153229    1.5399761338    0.2103310561
 C    0.0140654621    0.0326608196    0.0163662717
 C    1.1237674424   -0.6169347574   -0.9022581950
 C    1.2384473740   -1.8110010801    0.1126748102
 C    2.4861132480   -2.2823422672    0.8358578432
 N    3.4375843531   -1.2219019164    1.2208027632
 C    2.4291379244   -1.6961490302    2.2189775286
 C    1.2613329267   -0.7566995697    2.2534261212
 C    0.6039096520   -0.8518379350    1.0942799005
 H    0.9613374447    1.9099729160    0.5242848346
 H   -0.2977185453    2.0501764029   -0.7183082289
 H   -0.7495402136    1.8245711243    0.9761652202
 H   -0.9671662585   -0.3360228231   -0.3091099045
 H    0.8321637669   -0.8613216318   -1.9264295882
 H    2.0355991311   -0.0165813547   -0.8944365528
 H    0.6022336707   -2.6496576824   -0.1906990892
 H    2.8697661526   -3.2835703479    0.6713765833
 H    4.3313920473   -1.6653781405    1.4265066327
 H    2.7886273131   -2.2269301814    3.0948662149
 H    1.1426209013    0.0089805712    3.0108396882