21

 C    0.0304111276    1.5328188640   -0.4013181136
 C    0.0401735767    0.0453890472   -0.0383936663
 C   -1.3566195536   -0.4830955144    0.2446536159
 O   -2.2358912050   -0.4103147391   -0.9135304437
 C   -2.3937233352   -1.8446216352   -0.9779926393
 C   -1.5386769831   -2.0031264727    0.2722334387
 O   -0.4855372548   -2.9344209794    0.4152442960
 C   -1.5679903024   -2.9665797978    1.3704772631
 C   -1.2350982575   -2.5988625585    2.7923973283
 H    1.0377238416    1.8874568191   -0.6381378210
 H   -0.6081876963    1.7082734484   -1.2715914677
 H   -0.3538365621    2.1412882871    0.4251125954
 H    0.4822091031   -0.5429085245   -0.8503965522
 H    0.6612575064   -0.1325896339    0.8484941609
 H   -1.8063880080    0.0490835534    1.0958671263
 H   -3.4440362206   -2.1507777104   -0.8976959518
 H   -1.9556477395   -2.2770086539   -1.8864333970
 H   -2.2172275347   -3.8365914436    1.2527934318
 H   -0.6093048994   -1.7034603273    2.8313968487
 H   -2.1517447959   -2.4091835120    3.3613592265
 H   -0.6965801073   -3.4147393264    3.2851447510