15

 N   -0.1169847661    1.2801066875   -0.3717704086
 C   -0.1329235558   -0.0832873727   -0.1520387224
 C   -1.1360277921   -1.0107728927   -0.0440553998
 C   -2.6195030811   -0.7956677708   -0.1864772078
 C   -2.9460994569    0.2069503779   -1.2040495002
 N   -3.1490191708    1.0295944669   -1.9909926183
 C   -0.4776609893   -2.2516669618    0.2719618449
 C    0.8467996659   -1.9896965913    0.3336888150
 O    1.0706138902   -0.6576781436    0.0714052157
 H    0.7740240778    1.6074887443   -0.7209941674
 H   -0.8847279131    1.6094859417   -0.9445639639
 H   -3.1080659387   -1.7356928694   -0.4665435574
 H   -3.0884500129   -0.4771624449    0.7554994956
 H   -0.9507947144   -3.2093634169    0.4280550293
 H    1.7254912873   -2.5764197243    0.5357406355