20

 C   -0.5235541743    1.2687912966    0.1196818407
 C   -0.1565764655   -0.1661736930   -0.1700017994
 C    0.6115837748   -0.6186527298   -1.3685802709
 C    1.3721885015    0.3769690320   -2.2526035298
 C    2.6718817435    0.6496097023   -1.4576117337
 C    3.3105050208    2.0244891575   -1.6127699249
 C    2.2537337166    0.3378526266   -0.0100636273
 O    2.7009206116    0.8327930792    0.9905712346
 N    1.2357383914   -0.6562396704   -0.0327991833
 H    0.1274476975    1.9872934162   -0.3840466090
 H   -1.5523872125    1.4579532983   -0.2033373270
 H   -0.4620472555    1.4676504252    1.1940605713
 H   -0.8696897384   -0.8821861879    0.2360584472
 H    0.3716971610   -1.5890048450   -1.7953137184
 H    1.5691042935   -0.0499655160   -3.2379392476
 H    0.8097167252    1.3036680119   -2.4116010000
 H    3.4056387441   -0.1236918306   -1.7266375073
 H    2.5872981542    2.8199893395   -1.4030601046
 H    4.1373063876    2.1371619557   -0.9068884033
 H    3.6917355028    2.1729105119   -2.6273215473