23

 C   -0.9552071136    1.1870934351    0.4867804852
 C   -0.3615335455   -0.2145723321    0.5558430838
 C    0.4812864514   -0.7356379853   -0.6443823550
 C    1.5509393331   -1.2847388313    0.3354099866
 C    2.7263571491   -0.3508489865    0.5642893093
 C    3.1999284553   -0.5084261242    1.9803873299
 C    1.9836120211    0.3496337383    1.7180383647
 C    1.9659075452    1.7911193307    2.1532564445
 C    0.7855826795   -0.5932977494    1.5447265031
 H   -0.2198683440    1.9245077959    0.1527886867
 H   -1.7863741522    1.2135981151   -0.2274680113
 H   -1.3443840670    1.5121962603    1.4582732515
 H   -1.1771775576   -0.9226307653    0.7431437369
 H   -0.0168287491   -1.4866519668   -1.2623006632
 H    0.8609912368    0.0494416034   -1.3063698823
 H    1.7532387327   -2.3579592379    0.2953810431
 H    3.3475476935    0.0827043997   -0.2131945352
 H    3.1096358554   -1.4705636126    2.4814770556
 H    4.0969801999    0.0444501446    2.2422042188
 H    1.3044719374    2.4122807605    1.5445753661
 H    1.6314595967    1.8785574003    3.1948222342
 H    2.9703773086    2.2242536940    2.0981488201
 H    0.4665957633   -1.1235912865    2.4477888370