16

 O    0.3721770918    1.5704055338   -0.0868321593
 C    0.1107725234    0.1856397243    0.0082956425
 C    0.4836267922   -0.5518404723   -1.2088933586
 C    0.7906258992   -1.1569539735   -2.2005951606
 C    0.7861609458   -0.4281904455    1.2392111533
 C    0.0101741537   -0.5148191648    2.5185071450
 N    0.3323851859   -1.7258674269    1.7738028418
 C    2.2611675236   -0.2290746077    1.3487328423
 O    2.8902158855    0.5716072134    0.6958956428
 H    1.3362679899    1.6528413289   -0.1423484403
 H   -0.9756205137    0.0963951064    0.1430683594
 H    1.0639701358   -1.6841176536   -3.0814699952
 H    0.5177403090   -0.4124441897    3.4737158432
 H   -0.9989507941   -0.1118999068    2.4917525804
 H   -0.4646347262   -2.0558369209    1.2335762759
 H    2.7487372080   -0.8831450750    2.1012344076