20

 C   -0.0222333780    1.7234607053   -0.2572216568
 C   -0.3218484563    0.2230746377   -0.2937098601
 C    0.7001886581   -0.5583687471   -1.1120704695
 N    2.0743475985   -0.6404522852   -0.5010828816
 C    2.0400819277   -2.1148901242   -0.5334213670
 C    3.1441305629   -3.0679224345   -0.9173221848
 C    2.6254160700   -3.0487451732    0.4943150620
 C    0.6303109712   -2.0987511483   -1.0451887034
 O   -0.2040416448   -2.9266670976   -1.2755046020
 H    0.9709902924    1.9048313428    0.1648471311
 H   -0.0486005986    2.1592882568   -1.2625659456
 H   -0.7536200392    2.2570791272    0.3571232349
 H   -0.3330208289   -0.1783946444    0.7261457099
 H   -1.3142356790    0.0364299759   -0.7217419129
 H    0.7090615084   -0.2036478867   -2.1525587636
 H    2.7859338471   -0.2603200424   -1.1172599255
 H    2.8827001796   -3.9000146065   -1.5627135429
 H    4.1209375212   -2.6327433277   -1.1044485919
 H    3.2441132388   -2.5907132899    1.2581527222
 H    1.9986460090   -3.8687875180    0.8285394275