19

 C    0.0095564959    1.5826621491   -0.0916276299
 C    0.0322288702    0.0580207301    0.1136371768
 C   -1.3272084261   -0.5736098164    0.0596511806
 C   -2.1629156341   -0.8430591453   -1.0149781464
 C   -2.6684623184   -0.9717303604   -2.4496284915
 C   -3.9587990936   -1.6202518747   -1.7991223366
 N   -3.2814232618   -1.3895496680   -0.5168563047
 N   -3.3167292651   -1.5397733171    0.8100261799
 C   -2.1192003047   -1.0314848788    1.1548547453
 H    1.0191353188    2.0029279781   -0.0357055228
 H   -0.4100582214    1.8404987428   -1.0695230284
 H   -0.6065934463    2.0692530254    0.6707634199
 H    0.6870367949   -0.3951845113   -0.6409894191
 H    0.4887285739   -0.1680676137    1.0840873669
 H   -2.8525456918   -0.0350188194   -2.9808145224
 H   -2.1037784009   -1.6472061014   -3.0965165233
 H   -4.8879994602   -1.0576855232   -1.9209674051
 H   -4.1251149836   -2.6753228065   -2.0314179809
 H   -1.8414505757   -1.0067913594    2.2000364317