18

 O   -0.1232809745    1.5416989290   -0.1651567116
 C    0.0291976585    0.1471648487    0.0505070671
 C   -1.3682900360   -0.4665059193    0.0696194796
 C   -2.0549288166   -0.3733642031   -1.3545656991
 N   -1.6625103623   -1.6091243249   -2.1044668268
 C   -1.3725608976   -2.4061558123   -1.1732974465
 O   -0.6003205999   -3.5303591301   -1.0445639779
 C   -0.2522062693   -3.0703163996    0.3238528850
 C   -1.3872274028   -1.9983915284    0.2576722358
 H    0.7428027311    1.9178074008   -0.3456051795
 H    0.6306678025   -0.3144870770   -0.7478508094
 H    0.5352636376   -0.0526194671    1.0087911332
 H   -1.9542605763    0.0555445534    0.8308764924
 H   -3.1460795467   -0.2975026947   -1.2703104190
 H   -1.7020877591    0.5056075496   -1.8978824103
 H   -0.3852435881   -3.8749158100    1.0482010784
 H    0.7744045333   -2.6975374763    0.3328781308
 H   -2.2646565538   -2.3357530186    0.8142465779