14

 C   -0.0161640935    1.5404581543    0.0172729899
 C   -0.0057350363    0.0440899431    0.0315645517
 C   -0.0331424910   -0.8044088986   -1.0673333089
 N   -0.0127923830   -2.1348136485   -0.6917073032
 C    0.0284970319   -2.1440557796    0.6765090966
 C    0.0336242536   -0.8457032993    1.1385900007
 O    0.0738617637   -0.8801808796    2.4666373685
 N    0.0937498613   -2.3307404286    2.8019122139
 N    0.0659032693   -2.9939073623    1.7265177612
 H    0.8777927561    1.9544182146    0.4964478937
 H   -0.0513668821    1.9188442586   -1.0079047557
 H   -0.8832465031    1.9425980784    0.5525788344
 H   -0.0665193408   -0.5401991341   -2.1136038453
 H   -0.0261876961   -2.9253123382   -1.3105625875