19

 C   -0.3939107498    1.3230977293   -0.0340835738
 O   -0.2381379773   -0.0739820680   -0.1145963610
 C    0.7892055773   -0.4610357104   -0.9991314860
 C    0.8470620563   -1.9668105844   -1.0011436724
 N    0.0664624607   -2.6767677276   -2.0242000707
 C    1.5264304309   -2.7833579795   -2.0425217971
 C    2.2397098060   -2.1826356520   -3.2473451209
 C    2.3628687753   -3.1481957427   -4.3401265501
 N    2.4639989914   -3.9270677155   -5.1874656084
 H    0.5236421864    1.8168736403    0.3242845580
 H   -0.6608055848    1.7610891151   -1.0086379317
 H   -1.2012441857    1.5208062662    0.6747637256
 H    0.5903398034   -0.0839623143   -2.0142208444
 H    1.7575785671   -0.0438500173   -0.6684558971
 H    0.8578117984   -2.3843635515    0.0044390621
 H   -0.3632428778   -3.5178912876   -1.6512348218
 H    1.9737897465   -3.7143499034   -1.6997356976
 H    1.6901295313   -1.3109131999   -3.6122225918
 H    3.2455591645   -1.8480715668   -2.9669013509