21

 C    0.1298092548    1.5849455573    0.0610061066
 C    0.1446636861    0.0471215600   -0.0025427509
 C    0.7213154280   -0.4800614785   -1.2317495860
 C    1.1983009979   -0.9163464154   -2.2524062809
 C    1.7524220867   -1.4456215417   -3.4855949720
 O    1.7181616637   -2.6328105381   -3.7366077825
 C    2.3738080184   -0.4144085060   -4.4283472526
 C    3.6222588123    0.2091626381   -3.7721112875
 C    2.6856498079   -1.0302308713   -5.7928318365
 H    1.1442253332    1.9871361989   -0.0048671417
 H   -0.4544403438    2.0026693511   -0.7630844771
 H   -0.3136362092    1.9202090032    1.0027983912
 H    0.7064383233   -0.3566271703    0.8497451838
 H   -0.8761850488   -0.3418978926    0.1035812541
 H    1.6283013593    0.3851140925   -4.5433143224
 H    3.3872344630    0.6441356007   -2.7970579170
 H    4.4024900655   -0.5463680729   -3.6308916375
 H    4.0288530279    0.9988853864   -4.4107589519
 H    1.7891121968   -1.4546085152   -6.2518771860
 H    3.0952920719   -0.2714458169   -6.4665792319
 H    3.4160203852   -1.8380838992   -5.6956955615