23

 C   -0.9399959130    1.1197552050    0.0242862247
 C    0.0301977191   -0.0474134575   -0.0848412619
 C    1.4229507333    0.1730930314   -0.7402299709
 C    1.9963387808   -0.8597318845    0.2647611202
 O    3.2968513899   -0.7231844958    0.7747449964
 C    0.7583870470   -0.6060466798    1.1869524865
 C    1.0199405652    0.4036763105    2.2804067608
 C    0.1694307332    0.4225923254    3.5272687089
 C    1.5956702305   -0.0570183654    3.6023950913
 H   -0.4848731842    1.9845495167    0.5174065006
 H   -1.2676143494    1.4427533257   -0.9701903106
 H   -1.8340097425    0.8455538609    0.5950315491
 H   -0.4709953793   -0.8828781404   -0.5866105664
 H    1.5376418853   -0.0250498012   -1.8087901528
 H    1.8068827953    1.1781495117   -0.5296524302
 H    1.9502228562   -1.8664890557   -0.1618624372
 H    3.3096169609    0.0501454597    1.3483752977
 H    0.3151492224   -1.5027017108    1.6336219974
 H    1.3568803479    1.3812469042    1.9423855598
 H   -0.0751237547    1.3816186057    3.9701728862
 H   -0.6202223091   -0.3172743902    3.6073291483
 H    1.7707922106   -1.1200498114    3.7277663316
 H    2.3233089347    0.5732399758    4.1022487005