23

 C   -0.3633380434    1.8385523557    0.7383164648
 C   -0.0708571908    0.3528731058    0.5025736884
 C   -1.2744637209   -0.4306657489   -0.0516267830
 C   -1.6659773594   -0.1032144548   -1.4828247561
 C   -1.9527968804   -1.1861669593   -2.2065123783
 C   -1.7984596432   -2.4646534793   -1.4248215045
 C   -0.5428513089   -3.3193942834   -1.7642610406
 C    0.2447299804   -2.5470182623   -0.6696454349
 C   -1.0968823123   -1.9656603262   -0.1178922553
 H    0.5087080980    2.3509802348    1.1566883027
 H   -0.6305601391    2.3520207359   -0.1912331067
 H   -1.1953883874    1.9714478676    1.4390215011
 H    0.7827456895    0.2540371536   -0.1779673036
 H    0.2374821794   -0.1062346569    1.4507533870
 H   -2.1280630240   -0.2013705160    0.6077795351
 H   -1.7242525161    0.9161534520   -1.8507478387
 H   -2.2705773056   -1.1742172169   -3.2447376680
 H   -2.7411715553   -3.0170240149   -1.3415299633
 H   -0.6857375212   -4.3742196481   -1.5131602881
 H   -0.1622649444   -3.2558221575   -2.7875733426
 H    0.8319427919   -3.1514827290    0.0254851929
 H    0.8988400499   -1.7814069936   -1.0912980715
 H   -1.4148493065   -2.4655846182    0.7995958431