19

 C   -0.3350030907    1.4377380679   -0.0959270970
 C   -0.0083051891   -0.0490329880   -0.0447802977
 C    1.2275280676   -0.5199506491   -0.7815528833
 N    1.6400715800   -0.4015083543   -1.9614959138
 O    1.7969722774   -1.1317165376    0.3097138919
 C    0.6886957930   -0.6949055301    1.1971468021
 C    1.2293070708    0.2408952971    2.2647126168
 C   -0.0137824757   -1.9087191895    1.7807629398
 H    0.5258186854    2.0572935344    0.1678699672
 H   -0.6356911346    1.7093520215   -1.1115488836
 H   -1.1589995842    1.6857738755    0.5807972985
 H   -0.8868733300   -0.6303701121   -0.3427295430
 H    2.5492342030   -0.8520769942   -2.0817297790
 H    1.7996924491    1.0624310405    1.8256736412
 H    0.4111447746    0.6633200507    2.8568745819
 H    1.8913627199   -0.3073716072    2.9419049761
 H    0.6570636768   -2.4600781921    2.4469219076
 H   -0.8906860312   -1.5995616936    2.3595938883
 H   -0.3439645121   -2.5859153498    0.9881944261