15

 O   -0.4513168135    0.1250998426    0.0069169073
 C   -0.1244254830    1.2769110652    0.0096933068
 N    1.1834156337    1.7686215464   -0.0004944163
 C    2.3756393852    1.0340292341   -0.0158485583
 O    2.4257172737   -0.1684413606   -0.0223431597
 C    3.6189240424    1.9226062845   -0.0225017438
 C    4.8960213964    1.0689422896   -0.0394724220
 C    6.0990765759    1.8965851672   -0.0459748956
 N    7.0389245485    2.5685809335   -0.0508134993
 H   -0.8442498244    2.1203593270    0.0208893284
 H    1.2679050289    2.7753169861    0.0039406504
 H    3.5888790113    2.5845355371   -0.8960495285
 H    3.6054531936    2.5744044498    0.8590462064
 H    4.9141672082    0.4061945749    0.8305993765
 H    4.8977702332    0.4163816626   -0.9173948124