15

 C    0.0445428371    1.3472624823    0.0066857539
 O    0.0377558036   -0.0809733116    0.0020701338
 C   -1.1628415042   -0.6567846926    0.0091058636
 N   -1.2471695621   -1.9261592246    0.0054995702
 C   -2.5050780648   -2.4707255203    0.0128156102
 N   -3.6846205671   -1.9104780263    0.0247378898
 C   -4.5706118320   -2.9738219094    0.0268363727
 C   -3.8745206087   -4.1354549080    0.0160657039
 O   -2.5444540904   -3.8264177321    0.0069745897
 H    1.0928939422    1.6449166319   -0.0018517130
 H   -0.4545552636    1.7470110563   -0.8826885647
 H   -0.4382957132    1.7410666925    0.9076139548
 H   -2.0260703273    0.0179516161    0.0172653005
 H   -5.6390419722   -2.8255619786    0.0359798462
 H   -4.1281918273   -5.1809495454    0.0133352785