18

 C   -0.7121676250    1.2895738114    0.0111351958
 C    0.1814297989    0.0517965386    0.0054001040
 C    1.1379452869   -0.0261847371   -1.2442835560
 C    2.3225496588   -0.7061327173   -0.6437535410
 C    2.3038014380   -0.7475933136    0.7229014036
 C    1.0791383593   -0.0949768849    1.2869127694
 N    3.4376929968   -1.3371989992    1.1791312354
 N    4.1668561444   -1.6709192838    0.1473425607
 N    3.4959483247   -1.2794789220   -0.9744284507
 H   -0.1130175698    2.2064752300    0.0526190647
 H   -1.3351796112    1.3373369362   -0.8884556599
 H   -1.3803768911    1.2894630983    0.8784476855
 H   -0.4553758885   -0.8393343864   -0.0377208281
 H    0.6728704200   -0.5628859997   -2.0774972708
 H    1.3931392083    0.9770819839   -1.6120843371
 H    1.3094597643    0.8868422268    1.7215223610
 H    0.5771935950   -0.6772880163    2.0651344860
 H    3.9086223401   -1.4687664450   -1.8731415424