20

 O    0.0253208116   -0.1129443983    0.0336274323
 C    0.0322189701    1.0959789259    0.0365780130
 C   -1.2552823313    1.9130703167    0.0197426953
 C   -1.4333091690    2.8599254083   -1.1885241690
 C   -0.3143714287    3.8899083444   -1.3839006220
 N    0.8283748950    3.3011049579   -2.0833425599
 C    2.1725553674    3.6991697525   -1.6794516738
 C    1.6664315756    2.3304068556   -1.3773995054
 C    1.3415822089    1.8873577442    0.0423170613
 H   -2.0882176260    1.2071646075    0.0695580883
 H   -1.2724190976    2.5159598001    0.9391711809
 H   -1.5280405113    2.2760215263   -2.1107540803
 H   -2.3813957629    3.3909676396   -1.0515811737
 H   -0.6780764479    4.7101224751   -2.0128314809
 H   -0.0445985813    4.3393808753   -0.4123967181
 H    2.8847212164    3.8675485003   -2.4832338156
 H    2.2700327013    4.3837703274   -0.8368088977
 H    1.9877726056    1.5085465393   -2.0149198180
 H    1.2602520777    2.7501258420    0.7099734823
 H    2.1360406765    1.2343928499    0.4125869311