16

 C    0.0107378778    1.4513445497   -0.0718118898
 N   -0.0200276430    0.0275058553    0.2026081114
 C   -1.2074132557   -0.6857192973    0.0827351160
 C   -2.4759955719   -0.0986222426    0.0365018605
 N   -3.5992364413   -0.8191285217   -0.0250431712
 C   -3.4598319190   -2.1404706775   -0.0513909863
 O   -4.5814767432   -2.8845635854   -0.1124494924
 N   -2.3150854237   -2.8209785522   -0.0279048619
 C   -1.2118733876   -2.0896768197    0.0406298957
 H    1.0437480168    1.7995222141   -0.0092976405
 H   -0.3886251282    1.7173841335   -1.0637115701
 H   -0.5668236942    1.9987042682    0.6813708873
 H    0.7868319782   -0.4739221600   -0.1371374827
 H   -2.5998347599    0.9800521265    0.0519512196
 H   -5.3156532867   -2.2567283149   -0.1237630037
 H   -0.2683164782   -2.6354401060    0.0632612081