19

 C    0.1472473605   -1.4623325375   -0.3246101166
 C    0.0916767188   -0.2714419945   -0.1710892827
 C    0.0333745301    1.1840785133   -0.0291938599
 C    1.4282361867    1.7924387143    0.0836848869
 C    1.5973702483    3.1550311111    0.7026995313
 C    2.0884464437    1.9270924708    1.4300898800
 C   -0.7422006196    1.7915247799   -1.1937397135
 C   -2.1942317490    1.9770932517   -1.1409499307
 O   -1.3002553156    3.0830951648   -0.9675871906
 H    0.1936095042   -2.5166149692   -0.4427878516
 H   -0.5228588232    1.4325069211    0.8851666182
 H    2.0775434484    1.5473864232   -0.7520915722
 H    2.3294948542    3.8258890478    0.2676997284
 H    0.7067555921    3.6501815115    1.0724782629
 H    1.5334320978    1.5949172245    2.3014690026
 H    3.1569064298    1.7554950906    1.4954006440
 H   -0.2710873540    1.6659444379   -2.1695220175
 H   -2.7752801396    1.9851614519   -2.0614171764
 H   -2.7405653236    1.6741849669   -0.2486552826