16

 C   -0.0403790710    1.5686391751    0.0333353775
 C   -0.0217546662    0.0402236898   -0.0074511955
 C    0.7402952992   -0.5140269470   -1.2197776287
 N    2.1800558967   -0.2094794208   -1.1800263971
 C    2.7798301213   -1.3327290228   -1.2577630080
 N    1.9631350481   -2.4541554545   -1.3592537077
 C    0.6321540121   -2.0443975023   -1.3244870345
 O   -0.3423664554   -2.7538248184   -1.3591135465
 H    0.9769796132    1.9679476319    0.0500143183
 H   -0.5485739391    1.9804009985   -0.8456868546
 H   -0.5671954992    1.9275223464    0.9225266703
 H    0.4405216913   -0.3555001898    0.9047927085
 H   -1.0388553672   -0.3648466313   -0.0486346355
 H    0.3160168665   -0.0770259395   -2.1341599699
 H    3.8584778799   -1.4545861147   -1.2501226133
 H    2.2591585097   -3.4160340107   -1.3989349235