24

 C   -0.4170890018    1.3792862879    0.1383278449
 C    0.1441404179   -0.0201213929   -0.1517504901
 C    1.0558568802   -0.0051079482   -1.3874038270
 C    0.8820467710   -0.5677161420    1.0581269700
 C    0.1261295487   -1.1620209961    2.2254147572
 C    0.9675371518   -2.0484076312    1.3437890594
 N    0.2773981108   -2.9635832693    0.4755150646
 C    1.1048676773   -3.8928200359   -0.2879773335
 C    0.2953432337   -4.3692161749    0.8679841089
 H    0.3900025403    2.0904191148    0.3536442025
 H   -0.9768350233    1.7653381215   -0.7203892149
 H   -1.0878825361    1.3672411829    1.0030973375
 H   -0.6935225751   -0.6956410285   -0.3587003898
 H    1.9260806942    0.6431930604   -1.2258897430
 H    1.4240712494   -1.0089626184   -1.6188671066
 H    0.5228796282    0.3718019925   -2.2669369816
 H    1.7770193684   -0.0039205290    1.3175006046
 H    0.4596461681   -0.9612292288    3.2375780182
 H   -0.9484328279   -1.2628593697    2.1122981781
 H    1.9091064008   -2.4132331406    1.7660223571
 H    0.7833748181   -4.0883404901   -1.3071122916
 H    2.1840939323   -3.8422684253   -0.1521919745
 H    0.8334836496   -4.6360796296    1.7759972236
 H   -0.6286766365   -4.9177386595    0.7081076362