16

 O    0.0512223217    1.5535872323    0.0340042071
 C    0.0275317681    0.1648849309    0.0385808401
 C   -1.3363604391   -0.6125945692   -0.1277184291
 C   -1.8312459711    0.0086460731   -1.4317546902
 O   -0.5874512972    0.0299973627   -2.1946948559
 C    0.3373924082   -0.5761951341   -1.2824444818
 C   -0.4736845430   -1.7884039711   -0.7171084197
 C    0.2081159549   -2.6253951461    0.2494538738
 N    0.7512899675   -3.3046719951    1.0118578179
 H   -0.0994587052    1.8364907520   -0.8773619905
 H    0.5989008516   -0.1972949284    0.8934817465
 H   -2.0439217187   -0.7613479805    0.6844086780
 H   -2.5781550813   -0.5898452944   -1.9616434511
 H   -2.2083675263    1.0277596236   -1.3011352016
 H    1.3193894836   -0.6656410240   -1.7414154536
 H   -0.9571232738   -2.4032614417   -1.4791422998