19

 C   -0.5265548571    1.4232820113   -0.0068412102
 C   -0.0240742220   -0.0109466718   -0.0558748389
 C    1.1587301110   -0.3156594871   -1.0739980523
 C    2.0469482270   -0.7018444347    0.1366358873
 C    2.8350576607    0.3425078432    0.9541983858
 O    1.6729126727    0.5409803684    1.8382642406
 C    0.9369191541   -0.4525155691    1.0955716240
 C    1.1121191132   -1.9299874795    1.5044624712
 O    2.1863202960   -2.0880276663    0.5091025466
 H    0.2908535136    2.1205310886    0.1983416925
 H   -0.9869579375    1.7021826227   -0.9603938297
 H   -1.2742906802    1.5526827944    0.7823948047
 H   -0.8639195104   -0.7020831688   -0.1752385838
 H    0.9730992712   -1.1483283313   -1.7542124387
 H    1.5025540795    0.5480705873   -1.6501365089
 H    3.6978646784   -0.0548324281    1.4981018349
 H    3.1080160503    1.2706061398    0.4390747161
 H    1.4743550181   -2.0855495143    2.5257391781
 H    0.2720712215   -2.6027980645    1.2964008707