16

 N    0.0302871276    1.4433163817    0.1277789411
 C   -0.0005481427   -0.0158868391    0.0017186634
 C   -1.4373533765   -0.5011094680   -0.0895500435
 O   -2.0392944312   -0.1022448589   -1.3379241348
 C   -1.3795408727   -0.3671359508   -2.4843557072
 O   -1.9220588396   -0.3235746594   -3.5544362361
 N   -0.0266089729   -0.6735638590   -2.3469307473
 C    0.7649805283   -0.5346527392   -1.2056602730
 N    2.0143634665   -0.7583842010   -1.1324657925
 H    0.9929469971    1.7639838103    0.0825818447
 H   -0.4636753001    1.8745391066   -0.6488800729
 H    0.4706727729   -0.4460291808    0.8893758973
 H   -1.4905513560   -1.5921505219   -0.0007515470
 H   -2.0520033640   -0.0410462998    0.6844548470
 H    0.4204997937   -0.8881664055   -3.2278637515
 H    2.4098501295   -1.0504065154   -2.0292685177