12

 O   -0.4801129037    0.6016228894    0.8558026868
 C    0.2270817414    0.9007381886   -0.0630530640
 C    1.3231236086    1.9469743039    0.0287544036
 O    2.4062245723    1.7036647297   -0.8930698698
 C    1.5685756669    2.8048190189   -1.1795023554
 C    0.7384890104    2.7254480448   -2.3638350178
 N    0.0787681938    2.6965467527   -3.3120770853
 C    1.6587469268    2.4566436000    1.3270665644
 C    1.9318667865    2.8775058212    2.4175325261
 H    0.1605007940    0.4335890167   -1.0661932921
 H    2.0008331881    3.7860902899   -0.9940928429
 H    2.1699317451    3.2430356743    3.3869377363