21

 C   -0.0661215831    1.6138079311    0.2603482328
 C   -0.0215478131    0.0836481018    0.0503204833
 C    0.7848183199   -0.5662686823    1.0830201140
 C    1.4404112521   -1.0940140646    1.9420569567
 C   -1.4215985155   -0.4988745985   -0.0292332001
 C   -2.2455767921   -0.8721329427    1.1715700337
 C   -1.9276841412   -1.9317331198    0.1484878071
 C   -2.8527227996   -1.7811557657   -1.0642360264
 C   -2.3462707710   -0.3116095756   -1.2443902273
 H    0.9414442236    2.0376921976    0.2576683155
 H   -0.6437778695    2.0871196182   -0.5395341301
 H   -0.5394044226    1.8536001709    1.2163578812
 H    0.4682013804   -0.1053203274   -0.9168891086
 H    2.0293398712   -1.5611917268    2.6920077812
 H   -1.6906729726   -0.9544295899    2.1002098389
 H   -3.2629392064   -0.5009165632    1.2813957066
 H   -1.3647516490   -2.8181771209    0.4152183063
 H   -2.5730673537   -2.4192063476   -1.9054434167
 H   -3.9223176095   -1.9124231055   -0.8689332358
 H   -3.0929494351    0.4855766250   -1.1651600423
 H   -1.7952909034   -0.1779805340   -2.1797136503