17

 O   -0.0226897551    1.4551920362    0.0079066985
 C   -0.0120310940    0.0483051277    0.0021898898
 C   -1.4311932904   -0.4479165403    0.0124618420
 N   -2.4636874574    0.2921600436    0.0234632919
 C   -3.6528245802   -0.5656999865    0.0308827056
 C   -3.1491015411   -2.0357773616    0.0235067847
 N   -1.6892385142   -1.8440317368    0.0106823497
 C   -0.7900030004   -2.8733410412   -0.0022332135
 O    0.4177843649   -2.7633439858   -0.0147477355
 H    0.8936745627    1.7465523657   -0.0049667410
 H    0.4938217552   -0.3731493643   -0.8793168724
 H    0.5088018885   -0.3799948232    0.8716506653
 H   -4.2578722152   -0.3432617996    0.9158292867
 H   -4.2717673767   -0.3391178725   -0.8433667582
 H   -3.4582290771   -2.5935331800    0.9123593032
 H   -3.4743229165   -2.5903303580   -0.8615745952
 H   -1.3005910430   -3.8557619535   -0.0017613015