21

 C    0.0894539815    1.4222169644   -0.3708895494
 O    1.2126470259    0.5253453690   -0.3483633431
 C   -0.0782019872   -0.0087165385   -0.1105820706
 C   -0.5191798193   -0.7023878989    1.1793167776
 C   -1.4984326263   -1.5467008770    0.3089182211
 C   -0.7517303078   -1.0879960343   -0.9717360990
 C   -1.4037118666   -0.7480228513   -2.3322608859
 C   -0.1397279652   -1.3054450464   -3.0411125377
 C    0.2323972220   -2.0334920673   -1.7218117322
 H    0.0427915481    2.1305629616    0.4560518542
 H   -0.1531018657    1.8366678938   -1.3484118629
 H    0.2888136586   -1.3030456800    1.6063016048
 H   -0.9477219284   -0.0767548975    1.9655955847
 H   -1.5170481905   -2.6232932737    0.4938392961
 H   -2.5232148288   -1.1659553565    0.3467973102
 H   -2.2836086502   -1.3738750142   -2.5142770390
 H   -1.6810839600    0.2949534930   -2.5111512031
 H   -0.2886168004   -1.9174849759   -3.9334295700
 H    0.5771691187   -0.5137841877   -3.2731011728
 H    1.2786403980   -2.0065576638   -1.4096880634
 H   -0.1224398962   -3.0688348188   -1.7066774997