25

 C   -1.1211937708    1.3100396876   -0.4493322798
 C   -0.7445732778   -0.1743272353   -0.4854441080
 C    0.4745884670   -0.4989642526   -1.3714744750
 C    1.7761832728    0.1090583378   -0.8271348384
 C    0.6243290806   -2.0107118587   -1.5034378837
 O   -0.5879935315   -2.6727794818   -1.9437917894
 C    0.1525661412   -3.5100503910   -2.8516176915
 C    1.4333535288   -2.6681698354   -2.6645020846
 C    1.8051868402   -1.8095756377   -3.8684650064
 H   -0.3296512373    1.9276659822   -0.0133870505
 H   -1.3223238188    1.6908789101   -1.4571923359
 H   -2.0243130651    1.4672011177    0.1488239501
 H   -0.5471418229   -0.5295270858    0.5358097495
 H   -1.5949513908   -0.7559679801   -0.8546962282
 H    0.2800991166   -0.0849300471   -2.3697072234
 H    2.6393229719   -0.1600055233   -1.4440896777
 H    1.7257670257    1.2005300053   -0.7947478323
 H    1.9740582842   -0.2454248456    0.1916009773
 H    0.9334934980   -2.4192958585   -0.5265246589
 H    0.2224766356   -4.5448785960   -2.4890510731
 H   -0.2862080259   -3.5141434796   -3.8571241432
 H    2.3041602691   -3.2351777990   -2.3254692466
 H    0.9419685586   -1.2533968252   -4.2472151054
 H    2.5960392851   -1.0901565136   -3.6349669965
 H    2.1695427758   -2.4455366843   -4.6828191484