17

 O    0.0014228671   -0.0474653508    0.1353938175
 C    0.0329876947    1.1477157057   -0.0440369985
 C    1.2920439243    1.9389152413   -0.0446830844
 C    2.6067663662    1.2040279447    0.1936365150
 O    3.5468784155    2.2899265228    0.1172098699
 C    2.7154108471    3.3947403615   -0.1316070442
 C    1.5867799567    3.0388300503   -1.1481380406
 C    0.6582686302    4.0391878831   -0.4271393242
 C    1.4083335345    3.3246270226    0.7171934306
 H   -0.9040520012    1.7183331825   -0.2207214018
 H    2.6572227449    0.7238262547    1.1764219226
 H    2.8247486473    0.4554892390   -0.5752419200
 H    3.2906927277    4.3159913633   -0.2177275540
 H    1.6894515019    2.8486073920   -2.2169575628
 H    0.8896455318    5.0987228368   -0.5673412084
 H   -0.4163665293    3.8718889817   -0.5043141517
 H    1.3057696405    3.4631909486    1.7939402649