23

 C   -0.5310854321    1.3647506355   -0.0508626582
 C    0.2807808706    0.0655214791    0.0270636804
 C    0.8545332864   -0.3661151589   -1.3067623763
 C   -0.1019518539   -0.9010975464   -2.3828997893
 C    0.5409503534   -2.2458844180   -2.7796026699
 O    1.9380209414   -2.1233083311   -2.4951011854
 C    2.0868538985   -1.2233869783   -1.4262507753
 C    2.1698587318    0.2425724910   -1.7903698247
 C    2.4299860230    0.6970587236   -3.2082216521
 H    0.0874082927    2.1919894646   -0.4145537074
 H   -1.3813223910    1.2627337527   -0.7337585220
 H   -0.9255260088    1.6441962521    0.9310430136
 H    1.0999042016    0.1937760351    0.7456964999
 H   -0.3515938143   -0.7389155166    0.4278027049
 H   -1.1082367768   -1.0428891483   -1.9773907274
 H   -0.1888260034   -0.2286916783   -3.2420341410
 H    0.1102392631   -3.0688844505   -2.1885470465
 H    0.4369644177   -2.4934087937   -3.8401501236
 H    2.6181787217   -1.6276012380   -0.5682982613
 H    2.6524291585    0.8569213625   -1.0314922988
 H    1.8945431660    1.6240913664   -3.4414182203
 H    3.4987671475    0.8849895777   -3.3563346665
 H    2.1337887165   -0.0653289422   -3.9319109127