21

 O   -0.0717925790    1.4489549120    0.0296509538
 C   -0.0242112126    0.0324596333    0.1169813554
 C    0.5163314445   -0.5458288258    1.4347185801
 C   -0.0420960956   -1.9839809521    1.4369420109
 C   -1.4581929816   -1.8379388887    0.8536188461
 C   -2.5079494446   -1.1740596955    1.7950291696
 C   -2.5172028165    0.1010786908    0.9052149448
 C   -1.4430143266   -0.5434740256   -0.0206692705
 O   -1.8256093451   -0.7342720305   -1.3650085055
 H    0.8292196723    1.7844644653    0.0601795402
 H    0.5568509697   -0.3823961980   -0.7226550704
 H    1.6081796774   -0.5060029332    1.5029946961
 H    0.1131191652    0.0357291433    2.2722082626
 H    0.5685556653   -2.6205700727    0.7858410490
 H   -0.0382176102   -2.4409733139    2.4315461156
 H   -1.8136459054   -2.7324639529    0.3402166306
 H   -3.4637020596   -1.6995189396    1.8471258121
 H   -2.1522220552   -1.0175983678    2.8176474141
 H   -3.4571096040    0.2602415867    0.3726459928
 H   -2.2173836746    1.0340471459    1.3860779053
 H   -1.8039909038    0.1311965790   -1.7904177426