16

 C   -0.3138375527    1.2871945762   -0.4417329808
 N   -0.1293793305   -0.0475706494    0.0888938593
 C   -1.0635441322   -1.1695747258    0.1467669767
 C   -0.9566876282   -2.1106437075   -1.0242010243
 C   -0.6090037834   -1.7675628195   -2.4384319514
 O   -0.4086426103   -0.6631837832   -2.8777020992
 C    0.0998447346   -2.1327946263    0.1040757968
 C    0.9818201670   -0.8755977896   -0.0107348351
 O    2.1511964231   -0.6470412743   -0.1430998327
 H    0.6705402415    1.7602319358   -0.4767346279
 H   -0.7317619181    1.2623283365   -1.4524058328
 H   -0.9592977994    1.8749445019    0.2183514206
 H   -1.9043658662   -1.1645585296    0.8292365994
 H   -1.6073148145   -2.9829748983   -0.9584735094
 H   -0.5360242044   -2.6614330478   -3.0972014419
 H    0.2862374938   -3.0204580990    0.6910588626