18

 C    0.0961474087    1.5339441760    0.2060716864
 C   -0.0652810258    0.0543403193   -0.1529586131
 N   -1.4300314205   -0.4130482685   -0.0547326289
 C   -2.3280437273   -0.6002641711    1.0864660890
 C   -3.3882093145   -1.1641758064    0.0804291056
 C   -4.6477134594   -0.4664570662   -0.0313602110
 C   -5.6872047567    0.1291406361   -0.1293954958
 C   -2.2986383874   -0.8648093588   -1.0114860955
 O   -2.2104760028   -0.9852169046   -2.2024020163
 H    1.1439618065    1.8337591976    0.1089020147
 H   -0.5061078673    2.1618702788   -0.4564820135
 H   -0.2128570240    1.7297234038    1.2378534342
 H    0.2388375660   -0.1259438243   -1.1885615103
 H    0.5774827708   -0.5627527397    0.4896421145
 H   -1.9655244459   -1.3209421517    1.8278155269
 H   -2.6299020752    0.3259322721    1.5833270131
 H   -3.5392537074   -2.2420926238    0.1922574464
 H   -6.6084229579    0.6485679012   -0.2244735064