20

 C    0.1299673284    1.3953376544   -0.0786642628
 C   -0.0948340804   -0.1220072905   -0.0909621978
 C    0.4169334134   -0.7761331777    1.1971970452
 C   -1.5865038725   -0.4206889869   -0.3318338647
 N   -1.8776264486   -1.8325893486   -0.5059668258
 C   -2.6244625106   -2.5611320289    0.3506710751
 O   -3.1623563902   -2.1724522059    1.3732820917
 C   -2.7650113807   -4.0248419001   -0.0804433811
 O   -2.2572352641   -4.4815220027   -1.0725635742
 H    1.1898144623    1.6322231973    0.0546228682
 H   -0.2029880097    1.8609496374   -1.0124727874
 H   -0.4208338412    1.8659290216    0.7442048966
 H    0.4671456365   -0.5422485285   -0.9383266859
 H    0.2698094780   -1.8596842440    1.1826057356
 H    1.4859831258   -0.5846535247    1.3328288071
 H   -0.1102140736   -0.3791894242    2.0720801662
 H   -2.1846566418   -0.0861579997    0.5209666756
 H   -1.9316057133    0.1271880473   -1.2178377875
 H   -1.5121918361   -2.3345444815   -1.3038285853
 H   -3.3842407315   -4.6186002840    0.6203786414