19

 C    0.0517883221    1.4949054654    0.0588344061
 C   -0.0082664037   -0.0020912234    0.0071724760
 C   -0.0258612356   -0.7259790607   -1.1171442347
 C   -0.0155830284   -2.2367833622   -1.0710559640
 C   -0.0148791288   -2.7175162754    0.3984135652
 C   -1.0850369912   -1.9200394838    1.2148247145
 C   -0.0405509049   -0.7659980804    1.3326586310
 C    1.0126238358   -1.8835630828    1.1864133542
 O    2.1117983433   -2.0779210027    1.6147623502
 H    0.9503502352    1.8323295836    0.5909206876
 H    0.0653507653    1.9314689282   -0.9434172206
 H   -0.8064702987    1.9074785678    0.6044839101
 H   -0.0288447261   -0.2423648310   -2.0902416183
 H   -0.8777944660   -2.6551440339   -1.6092364294
 H    0.8769724230   -2.6255682360   -1.5799719710
 H    0.0295907136   -3.8046216495    0.4831539226
 H   -2.0118604584   -1.6735482012    0.6932617410
 H   -1.2991340847   -2.3880615808    2.1782690052
 H   -0.0258495617   -0.1203368511    2.2107374344