20

 O    0.0757481785    1.3979444452    0.1038336055
 C    0.0125843313   -0.0237627198    0.0411616046
 C   -1.4253269782   -0.5617494602    0.0690513012
 C   -2.1664403703   -0.2891711527   -1.2225120099
 N   -2.0052319544    1.0764939731   -1.7634762886
 C   -1.4116810533   -0.0711747503   -2.4879483855
 C    0.1084042931   -0.1107871138   -2.5268558826
 C    0.7820917886   -0.5208548113   -1.1942154130
 O    2.1148900711   -0.0462325534   -1.1460117271
 H   -0.5986894640    1.7188189999   -0.5221777306
 H    0.5489616386   -0.3837318981    0.9261383996
 H   -1.3986723923   -1.6450293362    0.2422202265
 H   -1.9609406493   -0.1122735329    0.9132985490
 H   -3.1550926124   -0.7361890410   -1.3024154673
 H   -2.8542341064    1.4002876692   -2.2161761260
 H   -1.9130479223   -0.3564798006   -3.4097047736
 H    0.4401693108   -0.7961532557   -3.3127398384
 H    0.4783633034    0.8814021097   -2.8074826150
 H    0.8412548925   -1.6155992468   -1.1434243727
 H    2.0360703146    0.8708117959   -0.8462368463