12

 N    0.0708611604    1.3945553470    0.1618466847
 C    0.0000467269    0.0227327743    0.0384939874
 C   -1.0903433172   -0.8390537704    0.0014840786
 N   -0.6117092654   -2.1288507631   -0.0432675850
 N    0.6765293609   -2.1165533522   -0.0431785397
 N    1.0657554544   -0.8041355456    0.0116955524
 C   -2.4515325367   -0.4737338108    0.0046051402
 C   -3.6003274697   -0.1097110529    0.0032580633
 H    0.7701587023    1.8466008642   -0.4122713742
 H   -0.8347554323    1.8303803832    0.0426297351
 H    2.0461294914   -0.5789006096    0.0608162194
 H   -4.6193865548    0.1881700858    0.0086042377