23

 C   -0.2228592450    1.7985591531   -0.3030414027
 C   -0.2542986814    0.2734045044   -0.1469655339
 C    0.6331391999   -0.4550605033   -1.1556976788
 C    2.1937606835   -0.5877662596   -0.9156590665
 C    2.8383946622   -0.0394991305    0.3504235270
 C    2.0494743823   -2.1289338493   -1.0009039561
 O    1.8101285199   -2.7559512288    0.2784526908
 C    0.3814606590   -2.7838691241    0.0471613486
 C    0.5247654795   -2.0064426208   -1.2707667860
 H    0.7879719902    2.1972239448   -0.1718821755
 H   -0.5675717209    2.0981896655   -1.2991888407
 H   -0.8690301518    2.2860554922    0.4337232690
 H    0.0295569277    0.0065040981    0.8774093829
 H   -1.2875983856   -0.0770765273   -0.2748710300
 H    0.4548112088   -0.0118533214   -2.1417683582
 H    2.7354492871   -0.2145615502   -1.7917566132
 H    2.3813274631   -0.4670306757    1.2456158117
 H    3.9029490871   -0.2980396893    0.3758074758
 H    2.7628651140    1.0509807708    0.4027895946
 H    2.7661566090   -2.6926679507   -1.6055251458
 H    0.0236180778   -3.8142181109   -0.0791902583
 H   -0.1838292791   -2.3124758228    0.8593544998
 H    0.0139872126   -2.4078924241   -2.1455536046