20

 C   -0.0555675099    1.5390575729    0.0587909579
 C    0.0427073389    0.0134588433    0.0383729279
 C    0.7376936397   -0.5152514667   -1.2242064182
 C    1.0431338725   -1.9955058116   -1.0468830959
 O    1.8110494102   -2.2256242129    0.1470103143
 C    1.5178952770   -1.4322943083    1.1998966089
 C    2.2686033464   -1.8466471460    2.4459780937
 O    2.0018411614   -0.9854876900    3.5157147329
 N    0.7301904669   -0.4401770925    1.2487048901
 H    0.9427528628    1.9881923742    0.0371283377
 H   -0.6189321429    1.9060009132   -0.8053256568
 H   -0.5560756397    1.8737435853    0.9710413982
 H   -0.9794226154   -0.3921847606    0.0716991557
 H    0.1132573389   -0.3687049331   -2.1114912077
 H    1.6738952594    0.0327928126   -1.3857728449
 H    0.1172554050   -2.5809707491   -0.9766535799
 H    1.6436397126   -2.3995936402   -1.8648083822
 H    1.9853431657   -2.8839972454    2.6862218715
 H    3.3434822647   -1.8658933943    2.2076759492
 H    1.3577499258   -0.3485035907    3.1629854776