23

 C   -0.1291268458    1.6138453367    0.0105213895
 C   -0.0123169254    0.0814277244   -0.0065876050
 C   -1.4077068352   -0.5645884732    0.0275751003
 C    0.6968286459   -0.3687638331   -1.3062238885
 O    1.8937923338    0.3388206135   -1.5657725073
 C    3.0879575797   -0.1459606246   -0.9836113126
 C    2.9463377214   -0.7666442595    0.4121051499
 O    2.1257311450   -0.0179357680    1.2831701427
 C    0.7601520491   -0.3958751867    1.2399328713
 H    0.8595654350    2.0735850394    0.0519921072
 H   -0.6375587271    1.9802827925   -0.8878603402
 H   -0.7040781854    1.9459223685    0.8819472367
 H   -2.0256346740   -0.2037225995   -0.8011156280
 H   -1.3497551879   -1.6568408228   -0.0473431222
 H   -1.9306294626   -0.3227864096    0.9591328547
 H    0.8612987988   -1.4579237110   -1.2996101179
 H    0.0387592109   -0.1507137982   -2.1557032207
 H    3.5674573326   -0.8958250023   -1.6370182875
 H    3.7530622993    0.7227421269   -0.9346881023
 H    2.5716076981   -1.7991483683    0.3406647555
 H    3.9466017209   -0.8189983998    0.8596078755
 H    0.3042990972    0.0365346941    2.1375152878
 H    0.6809949159   -1.4934552493    1.3234113612