16

 O    0.1841668708    1.3897580330    0.1947115069
 C    0.1382494959   -0.0104658295    0.1065503523
 C   -1.2668254979   -0.6618744095    0.2127785305
 C   -2.4557789243    0.2899937211    0.2507556042
 C   -3.7313453038   -0.4009165038    0.1148608732
 C   -4.7737566030   -0.9884371418    0.0092391288
 O   -1.0713883086   -1.2616617097   -1.1197255344
 C    0.1215755828   -0.6030687539   -1.2887456733
 N    0.8846103659   -0.4807383404   -2.2756492300
 H    0.7208995753    1.7048243461   -0.5419400081
 H    0.8764401785   -0.4785740502    0.7701395523
 H   -1.3628371045   -1.4546139916    0.9575320058
 H   -2.4171496768    0.8349128392    1.2026838146
 H   -2.3343972210    1.0436043006   -0.5340205912
 H   -5.7001340241   -1.4976867552   -0.0900730469
 H    0.5336603849   -0.9751520643   -3.0974333447