17

 O   -0.0858069225    1.4401207482   -0.0483598998
 C   -0.0161731894    0.0370439028    0.0119435749
 C    0.9026193575   -0.5190864242   -1.0982978322
 C    2.2593347258    0.0039994096   -0.9568243148
 N    3.3079646787    0.4640101520   -0.7979678446
 C    0.2080433630   -0.6420459724    1.3984209584
 N   -1.0940274069   -1.3932093015    1.2930557746
 C   -2.1309263597   -0.3487138761    1.2372609638
 C   -1.3814779600   -0.6357648982    0.0011774846
 H    0.8044139609    1.7987734477    0.0600352676
 H    0.9252204308   -1.6130378439   -1.0675080237
 H    0.5063721547   -0.2173596660   -2.0741512289
 H    1.0532296029   -1.3321265715    1.4381324307
 H    0.2533822518    0.0434279819    2.2496370724
 H   -3.1381459080   -0.7477998443    1.3029226597
 H   -1.9697641720    0.5912000806    1.7584942382
 H   -1.8278699877   -1.1194665648   -0.8622445807