18

 N   -0.1254233179   -1.1823112251   -0.2074679079
 C   -0.0693395306   -0.0311343103   -0.1158614818
 C    0.0047600018    1.4235649965    0.0106552338
 C   -0.6794600090    1.9565070598    1.3275330613
 C    0.1354691379    3.2229144647    1.6434489153
 C    0.9845847711    3.4918730601    2.9390433465
 C    2.2479777436    3.7064940460    2.0204854166
 C    1.4535852488    2.9765297222    0.9637921801
 C    1.4487333394    1.9455259445    0.1293170945
 H   -0.4969132496    1.8458596050   -0.8719319141
 H   -1.7509314280    2.1216596945    1.1918575105
 H   -0.5498405261    1.2079918255    2.1150780908
 H   -0.3689145747    4.1405590179    1.3182106767
 H    0.6836944417    4.3327876408    3.5672406953
 H    1.0850705696    2.5929877409    3.5519233366
 H    2.3969734811    4.7674307267    1.7951383022
 H    3.2005437674    3.2729069877    2.3315337549
 H    2.2827132933    1.4549507226   -0.3552974812