19

 C   -0.1466926887    1.4248827891   -0.0612995991
 C    1.2655043642    0.8645300481    0.0165441426
 C    0.0788446109   -0.0484918880   -0.0646500267
 O   -0.2936189012   -0.9019289587    1.0445359626
 C   -0.3224502555   -2.0670522978    0.1402785495
 C   -1.5852636523   -2.8993944864   -0.1161950068
 C   -1.6826695684   -2.8589240274   -1.6825386649
 C   -1.0757668363   -1.4952999125   -2.0241444942
 C   -0.2900491903   -1.1250335253   -1.0196579742
 H   -0.5666816109    1.8470702172    0.8451975711
 H   -0.4757592651    1.8981157707   -0.9804006242
 H    1.9116550901    0.9529222723   -0.8500507037
 H    1.7699966696    0.9180234735    0.9751106664
 H    0.5710091408   -2.6780297206    0.3220333013
 H   -1.5501100325   -3.9136175783    0.2913032022
 H   -2.4474796550   -2.3802105848    0.3139388685
 H   -1.1348014821   -3.6954944712   -2.1376228862
 H   -2.7163400023   -2.9392973531   -2.0343496295
 H   -1.3690100551   -0.9140949668   -2.8899557346