17

 C   -0.4219477458    1.3350896026    0.0067469208
 N    1.0095385245    0.9805220927   -0.0306198500
 C    0.0087682654   -0.0789731745    0.0330561129
 C   -0.0821100402   -1.1255690083    1.1570837333
 C   -0.5518773599   -2.1665402334    0.1005589866
 N   -2.0046239553   -2.3852684547    0.0593425982
 C   -2.4371912466   -1.7095714283   -0.9224223226
 O   -1.5784021710   -0.9846083672   -1.6916207696
 C   -0.2987419102   -1.1288757395   -1.0405820414
 H   -0.7482625862    1.8135938260    0.9262434124
 H   -0.9019767480    1.7004914737   -0.8971477554
 H    1.3681158682    1.0717078975   -0.9790076136
 H    0.8902559887   -1.3573068626    1.5996332298
 H   -0.8048264961   -0.9257137336    1.9509454509
 H   -0.0206602370   -3.1200672236    0.0908629550
 H   -3.4725276353   -1.6524504918   -1.2397113521
 H    0.4616095149   -1.3050133349   -1.8040349553