13

 O   -0.0036364183    1.3927715008   -0.0358173089
 C   -0.1067537740    0.0137020040   -0.0269612946
 C   -0.5062716019   -0.7708970269    1.1701103386
 O   -1.4905787063    0.0198453793    1.8969778307
 C   -2.4116919518   -0.1261544640    0.8419809674
 N   -3.6197143832    0.1824027967    0.7723701856
 C   -1.4208425352   -0.8021878877   -0.0545920446
 O   -1.6732552999   -1.8210615899   -0.9338678741
 H   -0.4309887052    1.7157041026    0.7682550103
 H    0.6483709858   -0.4547876599   -0.6536284569
 H    0.0193906325   -1.5388313747    1.7216547177
 H   -3.9535428193    0.6168181612    1.6339146910
 H   -1.8624712132   -1.4399518514   -1.7990698719