18

 C    0.0477283830    1.4951116630   -0.0642368180
 C   -0.0658180358    0.0046627254    0.0929068469
 C   -1.3260289796   -0.7325897785   -0.3377733612
 C   -1.1310984489   -2.1740997591    0.1789707201
 C   -0.2377724896   -2.0235982395    1.4466361878
 C    0.5510631040   -3.2148147701    1.7518680641
 N    1.1733134861   -4.1571377451    1.9978056195
 C    0.5972790323   -0.7795405842    1.1446683424
 O    1.1272857438   -0.7612544152   -0.1795894763
 H    1.0024594621    1.8534275758    0.3276997336
 H   -0.0131205748    1.7755714953   -1.1212544270
 H   -0.7644213121    2.0048987497    0.4646256172
 H   -2.1952424711   -0.2534899234    0.1292872505
 H   -1.4773984060   -0.7004159813   -1.4211284306
 H   -2.0697036116   -2.6834015218    0.4034541333
 H   -0.5937796873   -2.7675269317   -0.5613585302
 H   -0.8591052537   -1.8019445100    2.3243939190
 H    1.2245785092   -0.3467664694    1.9195625689