21

 C   -0.9588429930   -0.6521304150   -0.9553284628
 C   -0.4241047900    0.2673567887   -0.3928692138
 C    0.2363857300    1.3531189255    0.3003480395
 C    0.2612206565    1.3417000028    1.8644550326
 C    1.7463047208    1.8131579435    1.8235070766
 C    1.8001386991    1.3885895630    0.3247518803
 C    1.9404562578    3.2904137261    2.0625470923
 C    2.2423320357    3.8043378574    3.4478046512
 C    3.3097274127    3.8368615534    2.3798430024
 H   -1.4346352982   -1.4586254201   -1.4554488949
 H   -0.1543472765    2.3101462832   -0.0610413794
 H   -0.4555194538    1.9924141452    2.3709411003
 H    0.1565567256    0.3263041129    2.2526555476
 H    2.4202387061    1.2541489153    2.4800741954
 H    2.2189664753    0.3891449212    0.1891926701
 H    2.2858835058    2.0759438319   -0.3718611986
 H    1.3092346244    3.9327333477    1.4512223812
 H    1.7986724121    4.7425728742    3.7621720144
 H    2.3472140344    3.0754503978    4.2450984825
 H    4.1289425890    3.1297396772    2.4624250762
 H    3.5949487160    4.7973052883    1.9649427068