19

 C   -0.0454458223    1.5130702910   -0.4633329634
 C    0.0026630065    0.1251072268    0.1872219869
 C   -1.3621803945   -0.5339935665    0.2334768390
 C   -1.8805267936   -1.3487191122   -0.9287037706
 C   -1.5735516506   -2.0234063267    0.3853753504
 C   -0.4090846074   -2.9962801105    0.5100992465
 C   -0.7823947189   -4.3556824053    0.1131110629
 N   -1.0901125866   -5.4254164514   -0.1970946423
 H    0.9464234673    1.9744833381   -0.4850349632
 H   -0.4136734415    1.4516027003   -1.4924886704
 H   -0.7136757305    2.1833190833    0.0881301539
 H    0.7097111777   -0.5034583546   -0.3670124051
 H    0.4036575070    0.2134613055    1.2056376180
 H   -2.1087005922    0.0699300082    0.7453078417
 H   -2.9160328333   -1.2500395523   -1.2336551274
 H   -1.1938443840   -1.5302498413   -1.7508008253
 H   -2.4319832327   -2.3174951626    0.9818027626
 H    0.4352312407   -2.6814260040   -0.1108646427
 H   -0.0416270212   -3.0304669759    1.5430654384