17

 O   -0.0467667853    1.4951478655   -0.0155348661
 C   -0.0381351822    0.0910597427    0.0118908519
 C   -1.3974907659   -0.5723650692    0.0236287330
 C   -2.1918989320   -0.5384364442   -1.2687955270
 C   -1.3704041494   -1.7477794606   -0.9508452651
 O   -2.0732466928   -2.9247144175   -0.7177179847
 C    0.0124622591   -1.8326978189   -1.5873575687
 C    0.6284658648   -0.4809359177   -1.2527460074
 O    1.4390290504    0.1409285910   -1.8927613086
 H    0.6714281214    1.7494402714   -0.6140384756
 H    0.5433137058   -0.2757779663    0.8795413267
 H   -1.9436339887   -0.6533155869    0.9555351181
 H   -3.2632506426   -0.6658260745   -1.1710973080
 H   -1.8845325126    0.1362072296   -2.0620606464
 H   -1.5844680537   -3.4507296818   -0.0741510740
 H    0.6037278439   -2.6272237067   -1.1093350445
 H    0.0180866696   -2.0179247259   -2.6646637534