18

 C    0.0529589821    1.3012111840    0.2270245108
 N   -0.0803955289   -0.0325994340   -0.3460804839
 C   -1.3898289958   -0.5878711717   -0.2863492712
 C   -1.6593396422   -1.8774282845   -0.9839925488
 O   -0.6035428590   -2.4053867042   -1.7152928254
 C   -1.5566672874   -1.8840150627    0.5617221090
 N   -0.3805082392   -2.3797983589    1.2087228667
 C   -2.7978694652   -2.0407681292    1.2764538285
 N   -3.8214233210   -2.1636394816    1.8037583617
 H    1.0871082939    1.6381174710    0.1191624415
 H   -0.6076486820    2.0516082120   -0.2372367396
 H   -0.1783396107    1.2652265523    1.2960846824
 H    0.3011684402   -0.0943866196   -1.2814546390
 H   -2.2237304112    0.1115875895   -0.2328159181
 H   -2.6510520992   -2.0134050004   -1.4125459013
 H   -0.7513934261   -3.3496178123   -1.8341511032
 H   -0.1399260842   -3.3064856975    0.8718341490
 H    0.3866519659   -1.7568128521    0.9583560009