23

 C   -0.1548509395    1.5672776447    0.0884465446
 C    0.0314259534    0.0444443838    0.0041384244
 C    0.5308526079   -0.4142366593   -1.3847390890
 C    1.9517434468    0.0462655279   -1.7647303820
 C    3.0446258985   -0.7444905921   -1.0631187631
 C    4.1814433748   -0.0343542062   -0.3495714686
 C    3.1176179602   -0.7279666260    0.4425000752
 O    2.2230454987    0.0707561193    1.1552241899
 C    0.8976565536   -0.4565746882    1.1702186708
 H    0.8071204730    2.0865119086    0.0853544865
 H   -0.7503427173    1.9413364180   -0.7507133049
 H   -0.6700783824    1.8440145262    1.0144432245
 H   -0.9556463205   -0.4189350127    0.1509645648
 H    0.4864793728   -1.5102279227   -1.4399330180
 H   -0.1781491286   -0.0429569150   -2.1356353183
 H    2.0860947145   -0.0538039150   -2.8482005325
 H    2.0628201769    1.1133599881   -1.5487472068
 H    3.2879014938   -1.6950160968   -1.5318018831
 H    5.1767331010   -0.4643457967   -0.3692473992
 H    4.1549546528    1.0501154698   -0.3457419286
 H    3.3796287325   -1.6566749704    0.9523377612
 H    0.4529982162   -0.1300933489    2.1178189527
 H    0.9305789009   -1.5560414661    1.1806092095