18

 C    0.4410312201    0.9527303979    0.8068029771
 C   -0.0286845125   -0.0737315348   -0.2035281900
 C    0.4312167216    0.0006892778   -1.6069690183
 O    1.0047463621   -0.9445634828   -0.7120310518
 C   -1.2923593754   -0.7120725580    0.0822126964
 C   -2.3482818317   -1.2283648647    0.3544827378
 C   -3.6096509733   -1.8314351132    0.6768486377
 C   -3.6548019365   -3.2521741173    1.1405313561
 N   -3.9371488237   -2.1692601960    2.0853467286
 H    1.4068189239    1.3638465024    0.5030677794
 H   -0.2843903200    1.7672346668    0.8924513092
 H    0.5525608030    0.4921469255    1.7927364585
 H   -0.1916106735   -0.4154615101   -2.3966098713
 H    1.0788712770    0.8256620360   -1.9034325705
 H   -4.4639777902   -1.4507368283    0.1228383977
 H   -4.5112767847   -3.8645106290    0.8733957573
 H   -2.7099312660   -3.7824521905    1.2099628223
 H   -3.1162803402   -1.9962841616    2.6611353537