21

 O   -0.8082669414    1.3274751105    0.7079140158
 C   -0.1690589360    0.1892745975    0.1264772273
 C    0.7344445615   -0.5326282365    1.1352022753
 C   -0.2558474351   -1.2451836883    2.0795693260
 C   -1.5280658144   -1.5332700529    1.2237340773
 C   -2.8179749804   -1.0008334668    1.8904190199
 C   -3.0951461180   -1.6126415030    3.1847562168
 C   -3.3039903377   -2.1322542517    4.2490584724
 C   -1.2656477681   -0.8431059280   -0.1440411044
 H   -0.1235567317    1.9142474052    1.0445378954
 H    0.3663570512    0.4814954642   -0.7881936029
 H    1.3570072701   -1.2588584968    0.5984708931
 H    1.4161672883    0.1498975302    1.6552762246
 H    0.1673285150   -2.1553903470    2.5103401834
 H   -0.5150511299   -0.5932154729    2.9182784200
 H   -1.6500681908   -2.6108444094    1.0806309201
 H   -2.7247736910    0.0862777751    2.0008415058
 H   -3.6701801243   -1.1735553803    1.2203589416
 H   -3.4989905687   -2.5828006079    5.1902365661
 H   -2.1581460705   -0.3719473802   -0.5651388152
 H   -0.8983129983   -1.5696976709   -0.8758331883