19

 O    0.0154519266    1.4259327159   -0.0986378066
 C    0.0114134915    0.0123494237   -0.0049419311
 C    0.6391842726   -0.5433571710    1.3274350422
 C   -0.5059397655   -1.3532290351    1.9792778833
 C   -1.5802542522   -0.3622484994    2.4838342861
 C   -2.2055127035    0.2198694084    1.1639692363
 C   -1.4388292002   -0.5095557675    0.0342229356
 C   -1.2028558608   -1.8701047512    0.7107128768
 O   -1.4841906280   -2.9812198190    0.3608276286
 H    0.9312407925    1.7217596640   -0.1095595514
 H    0.5288450661   -0.4217417538   -0.8720002980
 H    1.5099104092   -1.1728372768    1.1225424559
 H    0.9590510986    0.2872048225    1.9648018396
 H   -0.1970510323   -2.1160340675    2.6920658132
 H   -2.3346286421   -0.8790671460    3.0833834980
 H   -1.1390655820    0.4185233497    3.1095545067
 H   -3.2734205067   -0.0034594843    1.1019093743
 H   -2.0785070028    1.2992559109    1.0850693973
 H   -1.9395805008   -0.5400132734   -0.9312921071