16

 C   -0.0313775318    1.5652240175   -0.0049126277
 C    0.0539353200    0.0608121602   -0.0714812097
 O   -1.0228918832   -0.5884558524   -0.6742956157
 C    1.3484974907   -0.6604475246   -0.3168787822
 O    2.5544167163    0.0073609718   -0.4278607260
 C    0.7128960820   -0.7191988568    1.0860279387
 O    1.3627415073    0.0691461893    2.0518448674
 C    0.0859802917   -1.9157494350    1.5739940208
 N   -0.4056206252   -2.8764124183    1.9928855535
 H    0.8707649502    2.0089159137    0.4169601731
 H   -0.1747391205    1.9571264465   -1.0158317400
 H   -0.8807567473    1.8772140712    0.6123208320
 H   -1.7956401836   -0.5120461860   -0.1009256493
 H    1.2919831809   -1.5493918246   -0.9362209797
 H    2.7057289869    0.4619975020    0.4126767645
 H    1.9690845555   -0.4990233546    2.5436770102