24

 C   -0.0471609055    1.6036984220    0.0600193529
 C   -0.0077468920    0.0738052173    0.0181211114
 C    0.6999201020   -0.4774012880   -1.2245073700
 C    0.7429378536   -2.0083710606   -1.2726026129
 C    1.4507801317   -2.5580428252   -2.5157529358
 C    1.4889549946   -4.0884283588   -2.5552929231
 C    2.2050552612   -4.6190246313   -3.8136374722
 C    2.2496197153   -6.0785574875   -3.8661929239
 N    2.2753235573   -7.2336798400   -3.8905163729
 H    0.9638566887    2.0261944371    0.0593691422
 H   -0.5744062838    2.0103663666   -0.8102102843
 H   -0.5581763108    1.9661033453    0.9573901052
 H    0.4947850458   -0.3051297507    0.9179428440
 H   -1.0317832161   -0.3208544009    0.0555430957
 H    0.1976726232   -0.0989244863   -2.1259291260
 H    1.7251561027   -0.0831154620   -1.2630664869
 H    1.2457446009   -2.3870591248   -0.3720657566
 H   -0.2818225462   -2.4028709753   -1.2348444111
 H    0.9482650740   -2.1823996066   -3.4179678516
 H    2.4768738670   -2.1665817367   -2.5546019860
 H    1.9985268770   -4.4751240969   -1.6653984547
 H    0.4699401361   -4.4909261165   -2.5286790708
 H    1.7026391581   -4.2548376583   -4.7176993550
 H    3.2329297851   -4.2391436018   -3.8534657677