13

 N    0.0979596502   -1.1991161666    0.3921668582
 C    0.0675607493   -0.0727225839    0.1394030697
 C    0.0524650534    1.3618148142   -0.2103584177
 O   -0.7682787087    2.0825552866    0.7091039708
 C   -0.0026212997    3.0955722982    1.3618252899
 C    1.3915238408    2.9711625943    0.7905451717
 C    1.4215107499    1.9938119762   -0.1020930269
 C   -0.5963236495    4.4235264328    1.1077156724
 N   -1.0391954792    5.4740805229    0.9239182898
 H   -0.3675573882    1.4544716886   -1.2222483863
 H   -0.0223600024    2.9228814418    2.4474995086
 H    2.2031211698    3.6182779271    1.0922634001
 H    2.2672365044    1.6513117579   -0.6816895503