18

 C   -0.1677041794    1.5177875684    0.1014921689
 C   -0.0276135916    0.0376477012   -0.0397674256
 C    0.1133491979   -0.7739164236   -1.1413869543
 C    0.2667142191   -0.7825735016   -2.6352427619
 C    0.1365883479   -2.3143432067   -2.9139174482
 O    0.3906018565   -3.0249802669   -1.6768923184
 C    0.2149335569   -2.1054307557   -0.6851845126
 C    0.1338605994   -2.1348844088    0.6793599143
 N   -0.0068276301   -0.8001168506    1.0563411485
 H    0.6913416042    1.9707747435    0.6128768474
 H   -0.2432744497    1.9807822255   -0.8850948122
 H   -1.0666227634    1.7964347814    0.6658571703
 H   -0.4975948952   -0.2228560028   -3.1834120163
 H    1.2438542272   -0.4013902658   -2.9583636489
 H   -0.8814006276   -2.5571906335   -3.2443008238
 H    0.8447086167   -2.6843307654   -3.6588638644
 H    0.1620176283   -2.9290199318    1.4045970363
 H   -0.1491610771   -0.4951972570    2.0028969608