19

 C   -0.0489014812    1.4924140844    0.0021023847
 C    0.0014937550   -0.0033246922    0.0046638891
 C    0.0804537847   -0.8300471482   -1.0713868957
 O    0.1002904183   -2.1330987346   -0.6862690852
 C    0.0418461749   -2.1443360960    0.6797917962
 C    0.0486911970   -3.4887983775    1.3340698970
 O   -0.9704886664   -3.6405721611    2.3178358774
 C   -0.0246247707   -0.8680904087    1.1601333001
 C   -0.0958279047   -0.4422885652    2.5950014762
 H    0.7942434010    1.9258077705    0.5527496870
 H   -0.0187158476    1.8876646881   -1.0170125017
 H   -0.9637830245    1.8662754018    0.4770299443
 H    0.1254217817   -0.6523229154   -2.1339588102
 H   -0.0211180369   -4.2529376083    0.5460489759
 H    0.9863352350   -3.6642630927    1.8737843955
 H   -1.8026669923   -3.3805253375    1.9082002614
 H    0.8302142448    0.0498636303    2.9171762866
 H   -0.9077852320    0.2762793190    2.7573205182
 H   -0.2728924860   -1.3015526066    3.2449174532