17

 N   -0.1723461150    1.2913107076   -0.0926430114
 C    0.0752994671   -0.0488162167   -0.0577543167
 O    1.1682912909   -0.5618827005   -0.0967129381
 O   -1.1048722293   -0.7307123680   -0.0035006628
 C   -1.0035324024   -2.1369078206   -0.0112481166
 C   -0.3490303728   -3.0885308263    1.0062556943
 N   -0.9994419135   -4.0385646706   -0.0166659842
 C   -2.2053120312   -3.0789109650    0.0378942093
 C   -0.4388650106   -3.0823785726   -1.0863980880
 H    0.6152499624    1.8995607912    0.0483860530
 H   -1.0901603366    1.6304500015    0.1379449793
 H    0.7390597961   -3.1403138537    1.0275690933
 H   -0.7909303247   -3.1594802167    2.0031749740
 H   -2.7732598745   -3.1455445933    0.9687767931
 H   -2.8510610582   -3.1401592664   -0.8411150383
 H   -0.9645398334   -3.1474779638   -2.0420918118
 H    0.6433764857   -3.1336226561   -1.2011766684