19

 C   -0.0652033292    1.3375260726   -0.1247500131
 N    0.0388067138   -0.0529316986    0.2565964974
 C   -1.1495609313   -0.9015464866    0.1055572059
 C   -0.5699399858   -2.3038920317    0.0102433963
 C    0.8622679169   -2.1494897920   -0.1098176808
 C    1.1620513175   -0.8293725465    0.0121139364
 C    2.5188691365   -0.2065624296   -0.0430280067
 N   -1.3300030087   -3.3350197580    0.0592278354
 O   -0.5616199423   -4.5183924367   -0.0556198654
 H    0.8563678840    1.8684422433    0.1224619683
 H   -0.2682160421    1.4757795408   -1.2006494385
 H   -0.8802485797    1.8090734598    0.4333389935
 H   -1.8403562757   -0.7792868446    0.9456501583
 H   -1.6903967816   -0.6365454295   -0.8158232006
 H    1.5693360264   -2.9566693286   -0.2013178274
 H    3.2835907005   -0.9807222501   -0.1229406975
 H    2.6231481538    0.4630393318   -0.9049743640
 H    2.7197406073    0.3878322053    0.8557223526
 H   -1.2389218205   -5.1988316310    0.0066625897