22

 C    0.0428730131    1.3482510421    0.0995716953
 O    0.1841342746   -0.0512776643    0.1023455287
 C    0.4220578577   -0.5812873351   -1.1842953289
 C    0.5722510548   -2.0681105980   -1.0886738604
 C    0.2752410279   -2.9669656423   -2.2218824420
 N   -0.6223305796   -3.0122589415   -1.0525131144
 C    0.1182370920   -3.8289827483   -0.0245076890
 C    1.2868033726   -2.8064116573    0.0511157389
 C    2.7293717264   -3.2619122559   -0.1291085621
 H    0.9459550467    1.8506194528   -0.2836195505
 H   -0.8133189219    1.6715346423   -0.5134861043
 H   -0.1245325506    1.6628117189    1.1324669740
 H   -0.4105225858   -0.3412666766   -1.8665468591
 H    1.3372764170   -0.1351109031   -1.6155739117
 H   -0.1944644962   -2.5329378466   -3.1000653720
 H    0.9161227686   -3.8205263700   -2.4337859351
 H   -0.4703172288   -3.9087973414    0.8911958664
 H    0.3723854402   -4.8359412256   -0.3756697739
 H    1.1970880818   -2.2111299860    0.9621590447
 H    2.8628158193   -3.8500840005   -1.0429039008
 H    3.4097532240   -2.4046309001   -0.1807324107
 H    3.0482803761   -3.8848676936    0.7139371968