15

 O    0.3533872330    0.9727424006   -0.5932840128
 C   -0.0851050089   -0.2796346300   -0.1898895669
 C   -0.1102020559   -0.6252244229    1.3419436243
 C   -1.4980371792   -1.2948209683    1.1090505341
 C   -1.6322367770   -0.4818497517   -0.2217493264
 C   -2.3873317509    0.7524502193   -0.0620518317
 N   -3.0093090013    1.7156821384    0.0822272899
 C    0.9751857392   -1.4195069188    1.8827759759
 N    1.8498566611   -2.0664007105    2.2751221591
 H    1.3108176038    0.9607341926   -0.6956733348
 H    0.3924481428   -1.0974323279   -0.7436801374
 H   -0.2218772122    0.3033361638    1.9085832208
 H   -1.4089682994   -2.3632179355    0.9096075186
 H   -2.2567293793   -1.1229459124    1.8702047036
 H   -2.0142794459   -1.0263638667   -1.0871611964