17

 C   -0.7189986126    1.1357838470    0.1917944957
 N    0.0086994304   -0.1307862732    0.1256055699
 C    1.3127488032   -0.1508786666   -0.4807292953
 C    1.1733302364   -0.3748064913    1.0010053364
 C    1.7051849931    0.6755189699    1.9217523564
 O    1.8236912135    1.8413201522    1.6286561061
 C    2.0823422231    0.1439833703    3.3191268765
 C    2.6467048012    1.1574967919    4.1997421617
 N    3.0971783375    1.9446402765    4.9138661526
 H   -0.0830794363    2.0156279803    0.3374607919
 H   -1.2714003519    1.2421133769   -0.7463912536
 H   -1.4453751754    1.0828379674    1.0082551581
 H    1.5396696704   -1.0038648675   -1.1151387705
 H    1.7644870377    0.7960019729   -0.7716136495
 H    1.2117607316   -1.3908807509    1.3872349888
 H    1.1870008763   -0.2920053294    3.7806126240
 H    2.7923052818   -0.6848756364    3.2039606507