20

 C   -1.1109117735    0.9562873896   -0.3554878136
 C   -0.1715105489   -0.2430245207   -0.4303948474
 C    0.8827230283   -0.2993169186   -1.5867805122
 O    1.0571013590    0.9908784650   -2.1324924889
 C    1.9906108001   -0.7178679680   -0.5485232774
 C    3.3353607759   -0.0038882050   -0.5811585006
 C    0.9959221814   -0.3564389500    0.5398927746
 N    1.2081292321   -0.1760603283    1.7744363644
 O    0.0250730069    0.1684297784    2.4620791652
 H   -0.5512791894    1.8922545998   -0.3984526843
 H   -1.8118319017    0.9440895202   -1.1961504275
 H   -1.6775878272    0.9318932846    0.5772296436
 H   -0.7515427657   -1.1745351271   -0.4139332017
 H    0.6795673710   -1.0353988809   -2.3750055707
 H    1.8070914104    0.9634471318   -2.7349159059
 H    2.1372361685   -1.8052604514   -0.5787236363
 H    3.1960783197    1.0791041956   -0.6289222805
 H    3.9086226139   -0.2317048263    0.3214959974
 H    3.9312311130   -0.3183696319   -1.4458836982
 H    0.3466935060    0.3012783331    3.3599569602