17

 C    0.0281529166    1.5749470133   -0.0893536011
 C    0.0302058702    0.0331288359   -0.0420962467
 C    0.7105333341   -0.4994558568   -1.2280483531
 N    1.2534343326   -0.8681967228   -2.1787167060
 C    0.6834547944   -0.4945244556    1.2469006421
 C   -0.0577946653   -0.2267889079    2.5770115652
 O   -0.1740666964   -1.6620851738    2.8100411757
 C    0.4473522491   -1.9523167565    1.6100839176
 N    0.6896537227   -3.0447975710    1.0527368153
 H    1.0498648790    1.9639826947   -0.0658143484
 H   -0.4520241965    1.9326331763   -1.0028351583
 H   -0.5178476242    1.9789734873    0.7677328450
 H   -1.0064285418   -0.3257748902   -0.0741945848
 H    1.7409340105   -0.2197607334    1.2707523587
 H    0.5173002126    0.2577608104    3.3686563954
 H   -1.0462226615    0.2335568036    2.4892300826
 H    0.3600815040   -3.8376635337    1.6053550506