21

 C   -0.9535489963    1.2313021809   -0.1001868853
 C   -0.1029914328   -0.0454571185   -0.0675430265
 C    0.8951762990   -0.1438381561   -1.1981622048
 C    2.0994335988   -0.5422250164   -0.7976532889
 C    2.1794616041   -0.7769860419    0.6907561130
 C    3.2779847320    0.0591189260    1.4105796101
 C    2.5018687630    1.1862908687    2.0420361708
 C    1.1845779128    1.0254144527    1.9369362572
 C    0.7958981028   -0.2366907975    1.2028969617
 H   -0.3268134425    2.1273604322   -0.0616497477
 H   -1.5450512164    1.2749129156   -1.0209312220
 H   -1.6523495318    1.2682923900    0.7425632098
 H   -0.7958864114   -0.8977689695   -0.1353180522
 H    0.6185329984    0.0725623155   -2.2256166601
 H    2.9541816353   -0.7002313914   -1.4481583512
 H    2.3146410548   -1.8441244718    0.9026111059
 H    3.8054946341   -0.5302553286    2.1727919311
 H    4.0475465745    0.4161451600    0.7143496152
 H    2.9885471818    2.0137171280    2.5479535377
 H    0.4464527044    1.7035604118    2.3510313468
 H    0.3060966056   -0.9328430997    1.8947757496