15

 C    0.1066769371    1.5232685660    0.1379069883
 C   -0.0614961699    0.0182241234   -0.0960357000
 N    0.6568623492   -0.4843271048   -1.2550556073
 C    2.1071865502   -0.5495019389   -1.2114475231
 C   -0.0035466527   -0.9220727427   -2.3651387451
 O    0.5132852771   -1.3562512420   -3.3735231479
 H    1.1515182059    1.7895807814    0.3214286824
 H   -0.2431784772    2.0922862574   -0.7286392255
 H   -0.4734990230    1.8341210302    1.0122472931
 H    0.2680530904   -0.5352647900    0.7941265528
 H   -1.1218890665   -0.2153962705   -0.2384348081
 H    2.4387242762   -1.1171420660   -0.3334985187
 H    2.4425317014   -1.0501093975   -2.1198407627
 H    2.5573711091    0.4486835536   -1.1680537826
 H   -1.1019274475   -0.8385908295   -2.2432422455