15

 N   -0.5731477741   -0.9494727243   -0.8522756212
 C   -0.3315349096    0.0935932172   -0.4185000416
 C   -0.0425086564    1.4155041642    0.1180120666
 C   -0.2763049381    1.5708214486    1.6404534899
 C    0.6871047812    2.7196975594    2.0206071770
 O    1.4917151529    2.9957449006    0.8591011949
 C    1.4327110954    1.8927072254   -0.0102976696
 C    2.4027158780    0.8415669054    0.3710371977
 N    3.1692502886    0.0425342873    0.6999108589
 H   -0.6459550918    2.1491077278   -0.4261083216
 H   -1.3190026035    1.7974822297    1.8659513390
 H   -0.0106343199    0.6448111189    2.1540010630
 H    0.1689999727    3.6484909593    2.2712285092
 H    1.3309292053    2.4388525159    2.8608369554
 H    1.6704976393    2.2397394646   -1.0190186676