17

 C   -0.2363307161    1.5645422945    0.0682060893
 C    0.0234225723    0.0608146654   -0.0032712533
 N    0.6718757894   -0.3666383021   -1.2673392546
 C    2.0317409529    0.1278374313   -1.4910151865
 C    1.8179164342   -1.2319170704   -0.9054659329
 C    1.8881997966   -1.2758468720    0.5752624828
 C    0.9194822607   -0.5118304793    1.1016972462
 C    0.7060078144   -0.2468815134    2.4778904715
 N    0.4858748507   -0.0046031019    3.5899552268
 H    0.6933417774    2.1396276116    0.0400482364
 H   -0.8612673519    1.8732107400   -0.7736543995
 H   -0.7585818684    1.8126955619    0.9963622007
 H   -0.9477469894   -0.4504333066    0.0400064461
 H    2.2984134679    0.2271086322   -2.5393264186
 H    2.4469923650    0.8859867849   -0.8324974433
 H    1.9939510953   -2.1296140261   -1.4906264851
 H    2.6304623591   -1.8318905498    1.1333164840