17

 O    0.1693120395    1.4259142973    0.3196954920
 C    0.0178555667    0.0576751135    0.0556874929
 C   -1.4116858237   -0.5510583248    0.0455820476
 C   -2.5898359810    0.2228010767   -0.5867970209
 C   -2.1965309863    1.0317552830   -1.7891976169
 C   -2.3415587352   -0.4570508844   -1.9392637779
 C   -1.1319956384   -1.2277622896   -1.3418412049
 C    0.2103751004   -0.4683361717   -1.3935757189
 O    1.0591668585   -0.2783150676   -2.2167061874
 H    1.0210075004    1.6978121279   -0.0425683284
 H    0.6533856455   -0.5630715776    0.7146343764
 H   -1.6816907274   -1.1527488734    0.9112027574
 H   -3.5292591049    0.3915321725   -0.0756192086
 H   -3.0109497594    1.6022363169   -2.2249488822
 H   -1.2356768378    1.5312515481   -1.8468232198
 H   -3.0465906993   -0.8995080440   -2.6314442687
 H   -1.1278742578   -2.3072487730   -1.4868613516