18

 C   -0.3169098809    1.2963902991   -0.8732736885
 C   -0.0748054510    0.0340596527   -0.0750626792
 C    1.0879238074   -0.8370740416   -0.4268203791
 N    1.0914042962   -0.0665435553    0.8283019235
 C   -1.2935927929   -0.5924318383    0.4955955540
 N   -2.4981341475   -0.6078555142   -0.0369655172
 C   -3.2773028266   -1.3165753126    0.8495660270
 C   -2.5342437472   -1.7283381161    1.9249163804
 N   -1.2636379426   -1.2590620175    1.6827115620
 H    0.6111670205    1.6539712505   -1.3306024208
 H   -1.0486591781    1.1048643884   -1.6619775568
 H   -0.7217628825    2.0884688948   -0.2349501044
 H    1.0155249710   -1.9135345303   -0.3024841962
 H    1.7328469408   -0.5134284326   -1.2396790117
 H    1.6761630258    0.7599894069    0.7363911758
 H   -4.3267866513   -1.4874140075    0.6632045959
 H   -2.7793704013   -2.2881023998    2.8119323684
 H   -0.4456486898   -1.3104325466    2.2688650269