19

 N    0.0988385324    1.3760710104    0.3185172620
 C    0.0098379880    0.0211940254    0.0283735448
 C   -1.1818724152   -0.6097327002    0.1299014896
 C   -1.6208105836   -2.0093898656    0.0122242450
 O   -2.8202091646   -2.2666212180    0.0413372976
 N   -0.7212197749   -3.0397588092   -0.1411568252
 C    0.7172069905   -3.0209460164    0.0193645725
 C    1.4020898794   -1.9806666446   -0.8700338236
 C    1.3627951535   -0.5666138151   -0.2954889192
 H    0.8048772429    1.8976803766   -0.1787344183
 H   -0.7772932706    1.8716486251    0.3937706097
 H   -2.0449519813    0.0143588057    0.3477180950
 H   -1.1831539980   -3.9361690209   -0.1256274546
 H    1.0131631701   -2.8575540122    1.0688456666
 H    1.0737796220   -4.0185394750   -0.2532690380
 H    2.4541749466   -2.2589813240   -0.9980775745
 H    0.9380686169   -2.0081951682   -1.8616504373
 H    1.8647206344    0.1137370615   -0.9981974247
 H    1.9652381914   -0.5265286851    0.6227494527