15

 O    0.0435063234    1.4253554886   -0.0123980203
 C   -0.0263507050    0.0438674082   -0.0000442272
 C   -1.3720641396   -0.6837126567   -0.0847698072
 C   -1.7034230780   -0.7698887609   -1.5714603718
 N   -0.6437503726    0.0011707017   -2.2743713562
 C    0.3137238533   -0.7043645863   -1.3397499860
 C    1.6587016233   -0.9334268406   -1.7873092012
 N    2.7404447387   -1.1397110313   -2.1406256526
 C   -0.7813480960   -1.7817079982   -0.9596696175
 H   -0.3231393519    1.6980763908   -0.8676008012
 H    0.5809249725   -0.3342639538    0.8246969407
 H   -2.1292619301   -0.7791104452    0.6812933712
 H   -2.7111709466   -0.8635197126   -1.9511494090
 H   -0.5226575798   -0.3981850757   -3.2042199661
 H   -0.7654496417   -2.8580058581   -0.8712228653