19

 C    0.0002229474    1.5025490276   -0.0164385550
 C    0.0105919066    0.0059060250   -0.0174184374
 C   -0.0942985601   -0.7899610081   -1.0878010432
 C   -0.0793076769   -2.2550268139   -0.7476668220
 C    0.1477540581   -2.2431817066    0.7654928347
 O    0.3828757999   -3.2083528888    1.4562176678
 C    0.1114596664   -0.7936044728    1.2647796427
 C    1.3296249434   -0.5123321667    2.1748955670
 O    1.2776637863   -1.2720435476    3.3583122568
 H    0.9325459719    1.9136544829    0.3892777584
 H   -0.1313814219    1.8996171938   -1.0265548380
 H   -0.8106655688    1.8912122933    0.6126060012
 H   -0.1986035574   -0.4304459268   -2.1058168627
 H   -1.0228349551   -2.7691316040   -0.9795649646
 H    0.7093882102   -2.8337475065   -1.2443104586
 H   -0.7808062667   -0.6584279951    1.8951196519
 H    2.2556413885   -0.6964537954    1.6038841772
 H    1.3347201734    0.5420731740    2.4705108545
 H    1.1300196050   -2.1901135442    3.0877021392