18

 C   -0.0656986752    1.5639075002   -0.1481725863
 C    1.4822070225    1.5930543181    0.0100855729
 C    1.4018775245    0.1574846371    0.5806931110
 C   -0.0425241560    0.0217976982    0.0623708276
 C    2.4686152204   -0.9599985969    0.5433768616
 C    3.2765822033   -0.2265194198    1.6397060606
 C    1.7804999249   -0.2419779577    2.0307069184
 O    1.7128939650   -1.6630335911    1.6125718155
 H   -0.5719187513    2.0850890578    0.6685722896
 H   -0.4709486481    1.9299619170   -1.0936174244
 H    1.9980197628    1.6239600456   -0.9549555438
 H    1.9075700624    2.3694088683    0.6514383134
 H   -0.7749734173   -0.4104281215    0.7465022098
 H   -0.0901138336   -0.5271842696   -0.8831922562
 H    2.8196042457   -1.5579153911   -0.2993694169
 H    3.9162796439   -0.8688076254    2.2459430932
 H    3.7402679982    0.7311137491    1.3912775958
 H    1.3034261378    0.0267372617    2.9747274182