21

 C    0.1341852966    1.4870983414    0.1040717481
 C    0.0719531107   -0.0154083024    0.0473813096
 C    0.6490062770   -0.9495989765   -1.0584346680
 C   -0.0351469891   -1.9113852713   -0.0378794597
 C   -0.1243002592   -3.4123012998   -0.0917953812
 C    0.6229725694   -1.0399545769    1.0813189704
 C   -1.2342130967   -0.9123849584   -0.0407238284
 C   -2.2386367386   -0.8915670817    1.0714025657
 O   -2.2261190390   -1.5990862437    2.0512916713
 H    1.1756819132    1.8270908236    0.1169486877
 H   -0.3542285600    1.9384332225   -0.7665288915
 H   -0.3532025500    1.8745856515    1.0051785373
 H    0.1973372591   -0.8763851202   -2.0529505911
 H    1.7404127168   -1.0036923637   -1.1168605920
 H    0.8735298480   -3.8639460714   -0.0710440035
 H   -0.6900994622   -3.7910324405    0.7646143375
 H   -0.6249999856   -3.7470668166   -1.0072067566
 H    1.7137058365   -1.0984699788    1.1492720067
 H    0.1592303296   -1.0684262361    2.0668273328
 H   -1.7636328234   -0.7973674890   -0.9967116334
 H   -3.0569738631   -0.1459592520    0.9293561581