25

 C   -0.1329768040    1.5762150730   -0.0253733161
 C   -0.0696375706    0.0473338794   -0.0759819577
 C    0.7679965371   -0.4850405211   -1.2461631045
 C    0.8242721500   -2.0069436721   -1.2996945933
 C   -0.4533024507   -2.8166915679   -1.6922014206
 C    0.4035971384   -3.7206751067   -2.6271450343
 C    0.3410221990   -3.3450301973   -4.1248863518
 C    1.4084517491   -2.2343553396   -3.8836774170
 C    1.6122702277   -2.7368175095   -2.4205530873
 H    0.8685394657    2.0100831275    0.0723718940
 H   -0.5802537587    1.9847610082   -0.9385244710
 H   -0.7310137284    1.9252370100    0.8224687743
 H    0.3454017722   -0.3339081579    0.8666833126
 H   -1.0870823250   -0.3594717603   -0.1439377554
 H    0.3570632553   -0.0916830892   -2.1857512910
 H    1.7899718482   -0.0862286702   -1.1712155138
 H    1.1930055310   -2.3759746168   -0.3341270795
 H   -0.9582387885   -3.3269461449   -0.8685592861
 H   -1.2034678704   -2.2286059049   -2.2331992375
 H    0.4426850039   -4.7787407031   -2.3636293744
 H    0.7121206698   -4.1415924825   -4.7760563475
 H   -0.6351607178   -3.0239932323   -4.5025622968
 H    2.2972097190   -2.3199753195   -4.5131990049
 H    1.0391771119   -1.2095044797   -3.9724548155
 H    2.6237424758   -3.0687296225   -2.1780766550