16

 O   -0.2354492804    0.0113170702    0.0622762032
 C   -0.0337350250    1.1972298127    0.0583800194
 C    1.3259761589    1.8461564406   -0.0598357914
 C    1.3675746029    2.8851225526   -1.1978315305
 C    2.6098485187    3.7160425447   -1.1499085865
 N    3.1150493420    4.3113885609   -0.0822609931
 C    4.2190746503    4.9407000391   -0.5716756833
 N    4.4356580213    4.7769352810   -1.8653369894
 N    3.3915267312    3.9864680603   -2.2175216470
 H   -0.8776306544    1.9226214900    0.1498837883
 H    1.5359455772    2.3719096633    0.8808255000
 H    2.0838584527    1.0702265583   -0.1932960602
 H    1.2899646667    2.3884331067   -2.1711953015
 H    0.4962116848    3.5482414410   -1.1141707508
 H    4.8810040476    5.5326519306    0.0424543648
 H    3.2924140654    3.6864537779   -3.1738435021