17

 C    0.0062094846   -1.1422343920   -0.0547893525
 C    0.0398024345    0.0588846722   -0.0062541484
 C    0.0249255463    1.4834940082    0.0813750072
 O    0.3552724787    2.2427138169   -1.1063213231
 C    1.1879369126    2.3895360845    0.0481741680
 C    0.7551030508    3.4711473096    1.0603235845
 C   -0.7319617161    3.7084156361    0.6771065066
 C   -0.8801953631    2.2237009441    1.1052280431
 C    0.1953984666    2.5471486243    2.2007186982
 H   -0.0098112942   -2.2027558913   -0.1068034576
 H    2.2165945424    2.0612320923   -0.0552309139
 H    1.4489154418    4.2878130234    1.2559473299
 H   -1.2258087459    4.3768232331    1.3843006198
 H   -0.9664291159    3.9781155226   -0.3504025139
 H   -1.8403771382    1.7668973360    1.3378913784
 H    0.8268160761    1.7249886509    2.5496719278
 H   -0.2069411310    3.1053137991    3.0496681658