18

 N    0.3148012409    0.7633388911   -1.0304142770
 C    0.0387051548    0.1173864072    0.0279652018
 O    0.9111629230    0.0628006902    1.1076057079
 C    1.6773904774   -1.1293209403    1.2521216251
 O    0.9211196089   -2.2898610614    1.3283929555
 C    0.1010512140   -2.4210439403    2.4805341914
 C   -1.0202545217   -1.3620282399    2.5835093228
 C   -1.7437546499   -1.1452864281    1.2793396293
 C   -1.2701232916   -0.5253052506    0.1911714046
 H    1.2551799602    1.1578003989   -0.9586226700
 H    2.3329252031   -1.2600750108    0.3830250513
 H    2.2701593907   -0.9577954999    2.1612867844
 H   -0.3310899773   -3.4221492809    2.3988885576
 H    0.7187102682   -2.3884190159    3.3913366072
 H   -1.7245326477   -1.7036705437    3.3496091754
 H   -0.5906859001   -0.4214546258    2.9343506678
 H   -2.7484317832   -1.5557993636    1.2120326236
 H   -1.8950626498   -0.4347800164   -0.6910657886