16

 C   -0.3478073274    1.3849484872    0.4046336749
 C    0.3258247240    0.1421448953   -0.1805146826
 N    1.1195297759   -0.5777563285    0.8008259419
 C    0.8209635575   -1.8199059193    1.2347376337
 O   -0.1071757137   -2.5183221264    0.8714863271
 C    1.8280518630   -2.3079399344    2.2998055571
 O    2.7479244954   -1.6078816937    2.6704744054
 C    1.5921535336   -3.6356223416    2.8102102126
 C    1.4295841328   -4.7395407275    3.2607467008
 H    0.3915938407    2.0893815536    0.8003730897
 H   -0.9229426762    1.9026109691   -0.3691311541
 H   -1.0279952642    1.1126105543    1.2165454977
 H   -0.4190741444   -0.5668872776   -0.5489024236
 H    0.9666595010    0.4215982173   -1.0258269204
 H    1.9261918808   -0.1441410559    1.2285513492
 H    1.2771567410   -5.7162771820    3.6522362907