17

 C   -0.0779947000    1.4389835497   -0.2965404458
 C   -0.0377175382   -0.0726442189   -0.0552800154
 C   -1.3896071312   -0.6367429605    0.3237786886
 O   -2.3828111391   -0.4914684978   -0.7694486036
 C   -2.4650335109   -1.8503239631   -0.9295275695
 N   -3.0193785749   -2.5645106948   -1.7993291303
 C   -1.5789424804   -2.1768610366    0.2554899863
 O   -0.4354994762   -2.9467949156   -0.0083023402
 H    0.9080845292    1.8135460945   -0.5851982292
 H   -0.7827814799    1.6843609887   -1.0961289010
 H   -0.3909791872    1.9790881874    0.6038003000
 H    0.3280207636   -0.5982019898   -0.9428341195
 H    0.6610355453   -0.3162969220    0.7545153752
 H   -1.7914151694   -0.1674540820    1.2268081775
 H   -3.4941809873   -2.0045213154   -2.5092907985
 H   -2.1372557540   -2.5743837017    1.1130780651
 H   -0.6569313293   -3.5414178421   -0.7343415697