25

 C    0.0292570896    1.5549632264    0.0269783866
 C   -0.0446451334    0.0322769340    0.1614657814
 C   -1.4603021085   -0.5259064996   -0.0343051814
 O   -1.9952006418   -0.1518406135   -1.3060347511
 C   -1.5249144345   -2.0433272134    0.1770871716
 C   -2.9422297791   -2.6188991637    0.0635272345
 C   -2.9883458616   -4.1239767571    0.2189441805
 C   -3.0381255610   -4.7516214342    1.5905957795
 C   -4.2455491512   -4.8111184187    0.6852641504
 H    1.0593680887    1.9129313214    0.1160059298
 H   -0.3666167092    1.8753300389   -0.9402370089
 H   -0.5641903689    2.0470101078    0.8056191729
 H    0.6219674748   -0.4419248110   -0.5744290195
 H    0.3239315690   -0.2787213223    1.1471264712
 H   -2.1320990925   -0.0399345807    0.6869369355
 H   -1.4352904690   -0.5511623908   -1.9820219167
 H   -0.8683798324   -2.5295668579   -0.5611846695
 H   -1.1041819037   -2.2863697419    1.1610926324
 H   -3.5810881275   -2.1586161300    0.8299341141
 H   -3.3681906725   -2.3241907123   -0.9023345648
 H   -2.4047711210   -4.6668482169   -0.5218483906
 H   -2.4813714194   -5.6651281455    1.7687031277
 H   -3.0837556406   -4.0875268478    2.4482748732
 H   -5.0977587119   -4.1879828897    0.9371711592
 H   -4.5112024327   -5.7650309916    0.2428948719