17

 N    0.0173303116    1.4559798888    0.0476356781
 C    0.0233601640    0.0282743631    0.0077215628
 C   -0.2584089602   -0.8553372185   -1.1805705601
 C   -1.1566305699   -0.9376297338    0.0323437254
 C   -0.4945379953   -1.7909788106    1.1040236570
 O   -0.2743279288   -3.1140471725    0.7044443082
 C    0.7409008625   -0.7866289987    1.1054043208
 C    2.0478074232   -1.3509671530    0.8176131451
 N    3.0743973128   -1.8352451385    0.5946046520
 H    0.7465375913    1.8400618728   -0.5471416197
 H   -0.8658895907    1.8229302216   -0.2907790898
 H   -0.6938087725   -0.3345572814   -2.0272504357
 H    0.3815723326   -1.6928066440   -1.4394848192
 H   -2.2169483871   -0.7220321934   -0.0165170920
 H   -1.0129239467   -1.7354025480    2.0690702642
 H    0.2954515759   -3.5471783132    1.3496445529
 H    0.7808920573   -0.2187288606    2.0375847600