24

 C   -0.1397787266    1.8187826777    0.0683889231
 C   -0.0193846580    0.2888806196    0.0820796370
 N    0.7999556528   -0.1096035993    1.2278486685
 C    1.9365613956   -0.8480788627    1.1235407269
 O    2.3730542310   -1.3313716575    0.0996197916
 C   -1.3756174248   -0.4880697124    0.0305682773
 C   -2.1486011750   -0.0821726924   -1.2392955752
 C   -1.0811877144   -1.9986728287   -0.0404535218
 C   -2.2416280766   -0.2014101231    1.2709848529
 H    0.8578032762    2.2666591619    0.0600541773
 H   -0.6739971055    2.1728555481   -0.8156589764
 H   -0.6680468670    2.1950072541    0.9514748555
 H    0.5606334942   -0.0233185381   -0.7914815912
 H    0.5772244336    0.2766667794    2.1320732523
 H    2.4359134173   -0.9695558355    2.1062459401
 H   -1.5310700980   -0.2044980914   -2.1362668489
 H   -3.0342258834   -0.7145739804   -1.3602031299
 H   -2.4924426211    0.9555478741   -1.2029907091
 H   -0.5675842791   -2.3499990242    0.8581872345
 H   -2.0147089992   -2.5633685794   -0.1350657073
 H   -0.4472974871   -2.2407505016   -0.8990154210
 H   -2.5174069288    0.8551858416    1.3481578641
 H   -3.1715503774   -0.7776804098    1.2251625440
 H   -1.7289043286   -0.4904574001    2.1949517656