14

 C   -0.2148329622    1.4782736720    0.0376963482
 C   -0.0362682061    0.0008941474   -0.0662886985
 N    0.2939932004   -0.5279847630   -1.1769279966
 O    0.4447758835   -1.9288651616   -1.1997836631
 C    0.2502186623   -2.7095284760   -0.0867430380
 N    0.3937631995   -3.9609539833   -0.1387319696
 C   -0.1359963706   -2.0237493040    1.1806653651
 N   -0.3396223233   -2.6399689165    2.2565428905
 O   -0.2605957258   -0.6477594265    1.1084583586
 H    0.4738303926    1.8883571459    0.7830342968
 H   -0.0236505055    1.9384194198   -0.9309643683
 H   -1.2337476470    1.7115687231    0.3622010050
 H    0.6583433879   -4.2472828958   -1.0843036030
 H   -0.5925113857   -1.9876183516    3.0017290829