17

 C   -0.0322599824    1.4960413513    0.0441772461
 C   -0.0345266811   -0.0017604558   -0.0085698068
 C   -0.0723927617   -0.7087103929   -1.1547074771
 C   -0.0117802308   -2.1871476248   -1.2236586768
 O   -0.1701401870   -2.7714929459   -2.2760186883
 C    0.3123019039   -2.9121035329    0.0730841529
 C   -0.2692682150   -2.2028698487    1.3034855112
 C    0.0080841368   -0.7092882618    1.3127052406
 O    0.2072676817   -0.0924154958    2.3383639314
 H    0.8491931901    1.8512298446    0.5873786389
 H   -0.0413008701    1.9318385660   -0.9567519950
 H   -0.8985251071    1.8641231449    0.6043387043
 H   -0.1413791074   -0.2108038545   -2.1187965031
 H   -0.0313574389   -3.9456104674   -0.0085661230
 H    1.4077219036   -2.9438586081    0.1522175930
 H   -1.3621893815   -2.3185507099    1.3080860043
 H    0.1002304267   -2.6272648183    2.2395838175