18

 C   -0.1124220381    1.6660047093   -0.2361472628
 C   -0.1158625772    0.1438409854   -0.0753146789
 C    0.6560852701   -0.5718793659   -1.1901663400
 C    0.6616564297   -2.0920697787   -1.0419026677
 C    1.0969802904   -2.8295798371   -2.3143676845
 O    1.3465306330   -2.2867913423   -3.3562439106
 C    1.5422980172   -2.6019000631    0.0957788495
 O    1.5046701824   -3.7285102907    0.5166663317
 H    0.9079011837    2.0641689653   -0.2151221877
 H   -0.5624382885    1.9618782184   -1.1899640003
 H   -0.6767448430    2.1519598139    0.5653088159
 H    0.3077546044   -0.1215938537    0.9028434504
 H   -1.1507969410   -0.2232143258   -0.0629521956
 H    0.2342743535   -0.3165724451   -2.1672239598
 H    1.6938209135   -0.2127155319   -1.2161375988
 H   -0.3453488670   -2.4833955597   -0.8297645756
 H    1.1590764659   -3.9308571182   -2.1897855421
 H    2.2702609210   -1.8572044601    0.4895419170