16

 C   -0.2409273946    1.2358798217    0.7601249085
 O    0.2472203454   -0.0529368439    1.0654541087
 C    0.5695373529   -0.8123347953   -0.0825009605
 C    0.9766848137   -2.2186061855    0.3251542861
 N    1.6894943597   -2.9135357529   -0.4578327035
 N    0.4402137600   -2.5976919836    1.5679106991
 C    0.5784555004   -3.8153184362    2.1805023635
 O    1.1551437215   -4.7768747387    1.7226829544
 H    0.5074345086    1.8296728407    0.2158406959
 H   -1.1559616727    1.1868066327    0.1507213756
 H   -0.4673922381    1.7308065003    1.7068778108
 H   -0.3021104301   -0.8765764010   -0.7553673782
 H    1.3954500091   -0.3661727638   -0.6504333836
 H    1.8336884464   -3.8495029234   -0.0777618628
 H   -0.0289180023   -1.8556514448    2.0701673455
 H    0.0853219801   -3.8281592963    3.1715046005