16

 C   -0.0226085477    1.5762861410    0.0168654477
 C   -0.0053988786    0.0469862624    0.0147803571
 C    0.7059349787   -0.5204239568   -1.2347676528
 C    0.7395465037   -1.9711157491   -1.2673503538
 C    0.7577762385   -3.1841241286   -1.2772510808
 C    0.7789580011   -4.5341636495   -1.2898349569
 C    0.7981158801   -5.7503827132   -1.3013816633
 C    0.8194408012   -7.1088592815   -1.3141287608
 N    0.8376725947   -8.2725625747   -1.3251338078
 H    0.9931587289    1.9862829096    0.0093839716
 H   -0.5474916100    1.9701340531   -0.8602422326
 H   -0.5293667034    1.9581122485    0.9075615548
 H    0.5009493435   -0.3284166392    0.9103665818
 H   -1.0277039375   -0.3444412882    0.0474324964
 H    0.2063040334   -0.1536290012   -2.1418529891
 H    1.7347453734   -0.1375940227   -1.2790239916