13

 N   -0.1080655260    1.2478047506    0.0082963527
 C   -0.0415251953   -0.0031887887    0.0009606413
 C   -1.2183820698   -0.9519673963    0.0021249539
 N   -0.5557159916   -2.2501483353   -0.0089867972
 C   -1.2520939944   -3.4607908330   -0.0125871260
 O   -0.7614477957   -4.5528784836   -0.0216519650
 C    0.8373924822   -2.1151657121   -0.0154324610
 O    1.6816848187   -2.9466773687   -0.0257329969
 O    1.1151941144   -0.7525353224   -0.0097967789
 H    0.8184329735    1.6754408658    0.0054814972
 H   -1.8337767508   -0.8049372880    0.8948728251
 H   -1.8436285032   -0.7947657199   -0.8820036128
 H   -2.3437084720   -3.2733957085   -0.0057346625