17

 C   -0.1249799044    1.5920490072   -0.1026795372
 C    0.0287323546    0.0817455970   -0.0430977073
 O   -1.2111052936   -0.5567168729    0.1698186140
 C    0.7297871985   -0.6476878764   -1.1881281186
 C    2.1650283639   -0.3260539389   -1.2701803084
 N    1.7382739538   -1.3302695089   -0.2757477333
 C    1.1497231707   -0.5551190735    0.8823557553
 C    2.0653433519    0.3239997178    1.5933855302
 N    2.7737762781    1.0587660587    2.1379561218
 H    0.8231976313    2.0978295505   -0.2954883664
 H   -0.8339759242    1.8573365248   -0.8924796030
 H   -0.5080372938    1.9756856000    0.8509143422
 H   -1.6809148973   -0.0853038678    0.8666885935
 H    0.1897263721   -1.2005990889   -1.9484837158
 H    2.7262925027   -0.7719892861   -2.0848254539
 H    2.5508322837    0.6314095411   -0.9306385784
 H    0.6890726921   -1.2597798536    1.5768833154