13

 C   -0.0159978637    1.4524951708   -0.0480845434
 O    0.0256013588    0.0297804497    0.0259627569
 C    0.6050354747   -0.5834575536   -1.0136086030
 N    1.1261734055    0.0210420776   -2.0739932738
 N    1.5721557684   -0.9949977585   -2.8152739570
 N    1.3792431484   -2.2182054548   -2.3141469456
 C    0.7646685843   -1.9816752313   -1.1666449353
 O    0.3675497638   -2.9359453945   -0.3050054366
 H    0.9945802059    1.8714682905   -0.1020815212
 H   -0.5788666357    1.7825051457   -0.9278333143
 H   -0.5132064114    1.7852375372    0.8635420228
 H    2.0267376927   -0.8484794512   -3.6984318232
 H    0.6146478483   -3.7887711476   -0.6831890462