17

 C   -0.4787250807    1.3588725257    0.0035830487
 C    0.0844614850   -0.0449192778   -0.1058741738
 C    1.4625713075   -0.2519184965   -0.7604989570
 O    1.9480822383   -1.0086806658    0.3699618199
 C    0.7585963663   -0.7150189857    1.1587869432
 C    1.0584240166    0.1897519600    2.2676564405
 C    1.3097264399    0.9479357841    3.1654399262
 C    0.1033873597   -1.9256276613    1.6426741172
 C   -0.4598277211   -2.9208404622    2.0113466988
 H    0.2496400105    2.0483333856    0.4386145567
 H   -0.7552335251    1.7314147787   -0.9886554841
 H   -1.3764768858    1.3772620105    0.6293225933
 H   -0.6612373626   -0.7319959197   -0.5098878467
 H    1.4883435937   -0.8402335396   -1.6834006523
 H    2.0380370579    0.6719707320   -0.9035508394
 H    1.5358605085    1.6057186833    3.9684285507
 H   -0.9460496585   -3.8028637113    2.3490337281