17

 O   -0.1889197389    1.3548687118   -0.1040189249
 C   -0.1102358006   -0.0223358407    0.0056126941
 C    1.0586287452   -0.4892684388    0.7652221681
 O    1.8840221028    0.2881787235    1.1986238542
 C   -1.3945501242   -0.8505206093    0.0592439269
 C   -2.6627485206   -0.1224470166   -0.3645314712
 C   -2.3241744666    0.4226102053   -1.7730977062
 O   -1.1823642715   -0.3136782807   -2.2477811393
 C   -0.5572836725   -0.9269449602   -1.1752797507
 H    0.6299368024    1.6786955017    0.3064671506
 H    1.1581804502   -1.5853144021    0.9007876215
 H   -1.4676862227   -1.6623392476    0.7745280594
 H   -3.4868469107   -0.8413488226   -0.3951981026
 H   -2.9381134711    0.6853740323    0.3172165262
 H   -3.1316016315    0.2782672376   -2.4963806140
 H   -2.0679553536    1.4832112998   -1.7242151809
 H    0.0473622741   -1.7778970536   -1.4681486812