23

 C    1.7572207067    3.2114147169   -2.3745821682
 C    1.6644721529    2.1228773887   -1.3060567192
 O    0.5267727250    2.3156892323   -0.4635250741
 C    1.7018463945    0.6806268994   -1.8757872985
 C    1.9081947423   -0.3369937517   -0.7428432559
 C    0.4310543526    0.3418128335   -2.6281645067
 O    0.2140082326    0.9213606660   -3.9250388909
 C    0.3508976074   -0.5024261101   -3.8331079724
 C    1.5271110236   -1.1336526314   -4.5328353457
 H    2.6843721281    3.1188696232   -2.9491388209
 H    0.9267683076    3.1435759878   -3.0839122119
 H    1.7422460784    4.1979446866   -1.9020610738
 H    2.5227133726    2.2228236261   -0.6291632224
 H   -0.2204620859    2.5364952650   -1.0294710593
 H    2.5499321701    0.6293729824   -2.5673903594
 H    1.1094774775   -0.2468751351   -0.0005835674
 H    1.9148352697   -1.3639627192   -1.1209569326
 H    2.8595262125   -0.1590458661   -0.2316133686
 H   -0.4599548747    0.3577589547   -1.9955565906
 H   -0.5918971192   -1.0330876875   -3.9860265735
 H    2.4532371857   -0.5851159977   -4.3518069488
 H    1.6598166367   -2.1678349276   -4.1966998028
 H    1.3531805333   -1.1547103659   -5.6138457963