25

 C    0.0775582566    1.4340704472    0.4355226867
 C    0.0250171397   -0.0738553096    0.1658922014
 C    0.6089631927   -0.5329575889   -1.1872792211
 C    0.4224573558   -2.0445210487   -1.3635726341
 O   -0.0038861714    0.1989898594   -2.2769492658
 C   -1.3626361028   -0.0386516651   -2.5736447386
 C    2.0990601327   -0.1279583849   -1.3736902735
 C    3.0804175047   -0.7521459366   -0.3905174206
 O    2.5313340441   -0.4813125500   -2.6800227227
 H    1.1013373597    1.7912738572    0.5804999952
 H   -0.3534116146    1.9955564934   -0.3977570287
 H   -0.4854121897    1.6801139616    1.3410261088
 H    0.5427096546   -0.6175733021    0.9640775691
 H   -1.0167280679   -0.4132534185    0.2188971915
 H   -0.6344735860   -2.3237574809   -1.3429643708
 H    0.8630998702   -2.3738826102   -2.3068997131
 H    0.9125346825   -2.5853804675   -0.5497392884
 H   -1.5404962985   -1.0489868622   -2.9647791702
 H   -2.0183452978    0.1192922423   -1.7067221544
 H   -1.6394027598    0.6833718961   -3.3467294629
 H    2.1364843587    0.9661286050   -1.2629925067
 H    4.0886075873   -0.3997121971   -0.6239892938
 H    2.8521378861   -0.4715352993    0.6412404470
 H    3.0843025413   -1.8427959799   -0.4679293364
 H    1.8382403018   -0.1539545108   -3.2673485382