15

 C   -0.1727675787    1.4459388855   -0.0841592850
 N    0.0463365286    0.0072740485    0.0059953602
 C    1.3893232644   -0.4825297747   -0.1866192427
 C    0.7668377330   -0.5227553262    1.1951351689
 C    1.2897240117    0.3857839093    2.1888947692
 C    1.7037922211    1.1375632923    3.0307767883
 C    0.2593005227   -1.7714321049    1.7138963557
 C   -0.1427886964   -2.8163635958    2.1490569142
 H    0.6635665299    2.0498155506    0.2944792574
 H   -0.3403199006    1.6939496770   -1.1365141336
 H   -1.0725549074    1.7065364952    0.4797745628
 H    1.4889340645   -1.4138836744   -0.7366917779
 H    2.1960025302    0.2368769255   -0.3209688549
 H    2.0762026932    1.7938832016    3.7780917945
 H   -0.5082655263   -3.7361751796    2.5336152829