16

 C    0.0069098179    1.4360600338   -0.0181676996
 C    0.0138695117   -0.0174287822   -0.0109331327
 C    0.0186476115   -1.2220793673   -0.0050360838
 C    0.0114816512   -2.6399296994    0.0012165033
 N    1.1298547744   -3.3609200821    0.0581996764
 N    0.6472093736   -4.6237018489    0.0408050324
 C   -0.7056212845   -4.6298645268   -0.0242761152
 C   -1.5394384565   -5.8657980104   -0.0586570798
 N   -1.1417469506   -3.3858575462   -0.0509689541
 H    1.0258722608    1.8348354016   -0.0669395032
 H   -0.5463946027    1.8248539342   -0.8802690730
 H   -0.4651386431    1.8346444895    0.8868386646
 H    1.2886068246   -5.3992264811    0.0751926644
 H   -1.3905848700   -6.4766184401    0.8381480392
 H   -2.5895284759   -5.5776500811   -0.1123099029
 H   -1.3029307923   -6.4866034534   -0.9293823959