21

 C    0.0000836052    1.6213331816   -0.2301177281
 C    1.5673328202    1.4438959748    0.0095456696
 C    1.1768660458    0.2246158207    0.9155901058
 C    1.2122441929   -1.3395819788    1.0031314213
 C   -0.3887734853   -1.2138597917    0.9307418381
 O   -0.9407635875   -1.0145254158    2.2016081723
 C   -0.5945397369    0.2540984597    2.7499741980
 C    0.8238518422    0.6987476223    2.3559652406
 C   -0.0576257888    0.0781496258    0.0659723175
 H   -0.4534627283    2.2584230899    0.5309461415
 H   -0.3249966917    1.9570395024   -1.2176419150
 H    2.0667090142    1.1501968930   -0.9178450369
 H    2.1098178246    2.2758114140    0.4688916606
 H    1.6220250695   -1.8326993158    0.1187602970
 H    1.6041041293   -1.8020867390    1.9143698181
 H   -0.9478432089   -2.0281534641    0.4635968673
 H   -1.3197537168    0.9991180231    2.3921151101
 H   -0.7147256177    0.1693258105    3.8338911344
 H    1.5687674465    0.2823878286    3.0438933220
 H    0.8856240787    1.7876135893    2.4503463112
 H    0.2639857126   -0.3706169305   -0.8829934154