20

 C   -0.0377131214    1.5652453768   -0.1446787869
 C    0.0584352830    0.0509363028   -0.0413333147
 C    1.1240185896   -0.7096395187   -0.8863843737
 C    1.3403332782   -1.6589750223    0.3240396047
 O    2.6216043136   -2.1021592679    0.6649842209
 C    0.6712021869   -0.5823854389    1.2354374780
 O    1.6722441720    0.2825233489    1.7706421305
 C    2.1724686599   -0.0367700140    2.9836475539
 N    3.2096328911    0.5449368592    3.4052732317
 H    0.9268107976    2.0335135548    0.0657261336
 H   -0.3521590297    1.8598668497   -1.1512965607
 H   -0.7680679555    1.9681734339    0.5651091714
 H   -0.9271015256   -0.4006212920   -0.1988144973
 H    0.8155496860   -1.1525534144   -1.8355203126
 H    2.0086595228   -0.0870405189   -1.0551708634
 H    0.7095112741   -2.5497514345    0.2519048447
 H    3.1813328948   -1.3228671635    0.7662967249
 H   -0.0040607227   -0.9117422384    2.0331919633
 H    1.5830407368   -0.7969482610    3.5128082826
 H    3.4320815483    0.2202256985    4.3439444992