17

 N    0.0660889252    1.3772047400    0.1337165624
 C   -0.0179190962   -0.0132214416   -0.0442555630
 C   -1.1631878905   -0.7895129142    0.0578682951
 N   -0.7363158114   -2.1069357278    0.1184223736
 C   -0.9721631157   -3.3946676325   -0.5647056647
 C   -0.3965670038   -3.3987733765   -1.9561968963
 C    0.5313279411   -3.5311618020   -0.7540866392
 C    0.6242532350   -2.1588481091   -0.1205112018
 C    1.1163898446   -0.8794626107   -0.2279462723
 H    0.8032300731    1.7961034347   -0.4187165454
 H   -0.8061118691    1.8521102386   -0.0599305325
 H   -2.1773049332   -0.4940105611    0.2788746818
 H   -1.6999989202   -4.1026745945   -0.1899418249
 H   -0.5678202578   -4.3028684656   -2.5363855959
 H   -0.3911221422   -2.4790580181   -2.5330880467
 H    1.1571927402   -4.3958992451   -0.5819468381
 H    2.1362539307   -0.5640871745   -0.3899605120