20

 C   -0.0600900262    1.5518319546   -0.1153024484
 C    0.0002045960    0.0411342728   -0.0383318795
 C    1.3271272654   -0.6851108319   -0.2342246409
 C    0.6676436261   -0.6523468645    1.1039497054
 C    1.1424389136   -0.1931047248    2.4697929352
 C   -0.1223611717   -0.7453410366    3.2010411209
 C    0.7817072374   -1.5272652247    4.1442208971
 N    1.5740170753   -1.6473670456    2.8446919096
 C    0.2298951100   -1.7473388082    2.0555812432
 H    0.8383928835    2.0040495010    0.3176137464
 H   -0.1337281570    1.8920013621   -1.1541516539
 H   -0.9252651255    1.9482418016    0.4278887126
 H   -0.8686334261   -0.4661285161   -0.4532088402
 H    1.3309104976   -1.6170233539   -0.7904566832
 H    2.2142993445   -0.0758223379   -0.3807079009
 H    1.7647596364    0.6556441546    2.7590262857
 H   -1.0745759162   -0.2321123559    3.3737472124
 H    1.3127683250   -0.9774339051    4.9284533676
 H    0.4244877573   -2.4892599990    4.5267218033
 H   -0.2212872055   -2.7209321626    1.8543215675