17

 C   -0.0621098034    1.5668853294    0.0587246236
 N    0.0175380159    0.1233329189    0.0817859060
 C   -1.2126513903   -0.6527098188    0.4379625962
 C   -0.2645087356   -1.6420490433    1.1534216892
 N    0.6872538477   -2.3398759800    0.1604281805
 C    1.6337608201   -1.7830404445    1.1745292080
 C    0.7635432738   -0.4955741218    1.2049498273
 C    0.5961278612   -2.3323180409    2.2688748380
 O    0.5289886435   -3.0059075252    3.2397068074
 H    0.9296983101    1.9835624105   -0.1439470113
 H   -0.7303930142    1.8855354622   -0.7476798882
 H   -0.4348026933    2.0055085912    1.0044745916
 H   -1.8772952559   -0.1231328128    1.1368616110
 H   -1.7785112900   -1.0375703527   -0.4138531412
 H    0.6129407484   -3.3571276506    0.2430694451
 H    2.7106285868   -1.9531693186    1.1311507566
 H    0.8308788151    0.1241348371    2.1060787803