18

 C   -0.0591407128    1.4944299863   -0.0001292564
 C    1.2744764786    0.7890307007   -0.0586589555
 C   -0.0072557116   -0.0077126281    0.0171673046
 C   -0.3841837644   -0.8341776064    1.2512247342
 C   -0.3261253135   -2.3110277886    0.7799365517
 C   -0.6015306763   -2.2292090288   -0.7106933752
 O   -1.7277433658   -1.4049371406   -1.0456753238
 C   -0.4072122228   -0.8453627304   -1.1602638519
 H   -0.3292674934    1.9997357265    0.9215006659
 H   -0.4188734475    1.9875687176   -0.8972105085
 H    1.8206681361    0.8034825427   -0.9969498347
 H    1.9075243809    0.8127636957    0.8223285472
 H    0.2719679519   -0.6392103564    2.1036161475
 H   -1.4050579689   -0.5885434199    1.5562187617
 H    0.6728760677   -2.7391247317    0.9281152437
 H   -1.0398819202   -2.9490664408    1.3096921777
 H   -0.4448088503   -3.0898047573   -1.3565978561
 H   -0.0960623678   -0.5775485705   -2.1675690519