19

 C   -0.0383391018    1.4014179502    0.0775876096
 N   -0.0072785737   -0.0026641792   -0.2614796202
 C   -1.1767121877   -0.8379296444    0.0547729352
 C   -0.6512757773   -2.2899755533   -0.0833680638
 C    0.8552229259   -2.0960127117    0.0161317181
 C    1.1146121138   -0.7763852924   -0.1005285812
 C    1.9042831611   -3.1105110838    0.1180965907
 N    1.4592195607   -4.4199798653    0.1709667237
 O    3.0961749292   -2.8442587354    0.1974213203
 H    0.9090782037    1.8678552704   -0.2035857652
 H   -0.8411715395    1.9034615563   -0.4722973419
 H   -0.2045200443    1.5728302945    1.1544189318
 H   -1.5034929013   -0.6348641129    1.0877241504
 H   -2.0136572419   -0.6090086971   -0.6115739498
 H   -1.0668801110   -2.9435466650    0.6901105363
 H   -0.9405422900   -2.7157597500   -1.0554416173
 H    2.0964581426   -0.3213852816   -0.1116365845
 H    0.5508734040   -4.6568944979   -0.1929372308
 H    2.1788916476   -5.1180728915    0.0646122287