20

 C   -0.9284806276    1.4275429118   -0.1299386780
 N   -0.6365723271   -0.0028360521   -0.0841123808
 C   -1.3540368817   -0.8862508262    0.8937622148
 C   -0.2446092881   -1.9649923187    0.6429855300
 C   -0.0423048050   -2.7388408858    1.9230212565
 C   -0.1585067793   -1.8141211612    2.8755148158
 C   -0.4193625150   -0.5030185628    2.1394196156
 C   -0.5478226047    0.7239047384    3.0264145183
 C    0.4424049979   -0.5613268634    0.8011250963
 H   -0.0087839997    1.9776746108   -0.3579122438
 H   -1.6278417609    1.6092907363   -0.9541928715
 H   -1.3720875709    1.8632870191    0.7739581400
 H   -2.4409114156   -1.0214329989    0.8778830334
 H   -0.2111920292   -2.4398560904   -0.3348191373
 H    0.1508951431   -3.7990548017    2.0069810812
 H   -0.0855560442   -1.9180066039    3.9507318151
 H    0.2427708859    0.7087678634    3.7860107574
 H   -0.4605536822    1.6687434031    2.4927718222
 H   -1.5059126950    0.7228361740    3.5592392956
 H    1.4988802792   -0.3062534719    0.6626588192