18

 C   -0.1547400536    1.4988026723   -0.0049789994
 C    0.0105590780   -0.0270539810    0.0176603908
 C    0.7478868512   -0.5248059969   -1.2291838198
 O    1.0663858856   -1.9080096489   -1.1348500625
 C    1.9888926884   -2.1847767514   -0.1011159297
 C    1.6797682753   -1.4550573764    1.1913401930
 C    0.7627951334   -0.4943484858    1.2387219676
 C    1.9797421611   -3.6430191267    0.1174181821
 N    2.0071129057   -4.7791976327    0.3208623715
 H    0.8181882604    2.0022462160   -0.0083678827
 H   -0.7062013322    1.8214356004   -0.8940359508
 H   -0.7069100114    1.8443384803    0.8743653964
 H   -0.9906876381   -0.4812359949    0.0282673300
 H    0.1314332356   -0.4267602720   -2.1263230425
 H    1.6655294874    0.0680876971   -1.3779708739
 H    3.0129552952   -1.9206749629   -0.4267377746
 H    2.2449141291   -1.7638874322    2.0646230485
 H    0.5494806088    0.0032991859    2.1819859360