18

 C   -0.0171542425    1.5061349698    0.0682771701
 C   -0.0741484126    0.0145869122   -0.0026384440
 C    0.0032995284   -0.7771267581   -1.0806399786
 C   -0.0070380426   -2.2084263025   -0.6638454793
 C    0.9350505038   -2.6585133579    0.4858133257
 C    1.4316974435   -1.4758230291    1.3078846849
 C   -0.0278404002   -0.8690970823    1.2323858546
 C   -0.5035746625   -2.2803588585    0.7538557349
 H    0.8719767337    1.8504303627    0.6132087125
 H    0.0064645903    1.9554288327   -0.9285347538
 H   -0.8843472491    1.9130070081    0.6046488395
 H    0.1095490835   -0.4479944448   -2.1076546440
 H   -0.2747648076   -2.9947005756   -1.3605582443
 H    1.3872426974   -3.6428047988    0.4500542110
 H    1.6634015913   -1.7961387125    2.3270039330
 H    2.2501219352   -0.8593229823    0.9196431223
 H   -0.4257137438   -0.4443219248    2.1539312567
 H   -1.3433899663   -2.8647461282    1.1101967689