16

 C   -0.0440359543    1.2744614881    0.2754190862
 C   -0.0079610295   -0.1676661842    0.0859828832
 C    0.0061401918   -1.3643605552   -0.0457471175
 C    0.0651022295   -2.8125067357   -0.2676912612
 N   -1.2194765316   -3.4796367236   -0.2755337502
 C   -1.6797550653   -4.1466275902    0.8180665864
 O   -1.1455632030   -4.1409956672    1.9060320051
 C    0.7672743087   -3.0375808105   -1.6133964037
 O    0.2546987048   -3.6112693596   -2.5368927022
 H    0.9677594589    1.6851503412    0.3601064153
 H   -0.5389614396    1.7746113038   -0.5637706595
 H   -0.5866890259    1.5359967096    1.1900589592
 H    0.6741099820   -3.2703726438    0.5253316452
 H   -1.6133967703   -3.6696217561   -1.1860776900
 H   -2.6162373891   -4.6954514523    0.6014509586
 H    1.7793375728   -2.5917021942   -1.6755719550