20

 C   -0.0925315613    1.3815121340    0.5245314161
 C    0.0737694343   -0.0098809409   -0.1137311223
 C   -1.2664667700   -0.7241603285   -0.0905761176
 O   -1.5146578500   -1.6898056525    0.5855321512
 C    0.5944468009    0.0487033204   -1.5759108142
 O   -0.2261715122    0.8800623151   -2.3947831987
 C    2.0541711396    0.4383772182   -1.6581238844
 C    3.0996268614   -0.6082898336   -1.7855378212
 N    2.7786986887    0.2653916030   -2.9243079617
 H    0.8527516375    1.9315538686    0.5434038439
 H   -0.8276995865    1.9796263067   -0.0233236704
 H   -0.4404390181    1.2889862040    1.5569750565
 H    0.7681500082   -0.6137141095    0.4801208345
 H   -2.0312702604   -0.2759119253   -0.7628182681
 H    0.4900552012   -0.9529972079   -2.0141884605
 H    0.0355715148    1.7960127965   -2.2530955970
 H    2.3156204341    1.3611396972   -1.1411546063
 H    4.0813036803   -0.4520099198   -1.3482001460
 H    2.7769089704   -1.6463365277   -1.8115891389
 H    2.1856865370   -0.2246295578   -3.5910842451