16

 O   -0.3087751596    0.0985871439    0.0712948610
 C    0.3609493182    0.8107874647   -0.6243381583
 C    1.2056917451    1.9685502015   -0.0814775305
 C    1.2091114205    3.1181538024   -0.9733652289
 C    1.1677497367    4.0353518118   -1.7524280952
 C    1.1375316183    5.1745266422   -2.6648561447
 N    2.4666636078    5.5724724648   -3.1144738688
 C    2.7826652792    5.6742380239   -4.4343565939
 O    2.0073005816    5.5088670715   -5.3511881821
 H    0.4303540618    0.6708997221   -1.7244406586
 H    0.8432626982    2.2155391777    0.9216284529
 H    2.2295004098    1.5808995483    0.0354858355
 H    0.5752713337    4.9367573990   -3.5736278009
 H    0.6275562039    6.0203407081   -2.1845805852
 H    3.1951138067    5.6804439860   -2.4270877608
 H    3.8480804483    5.9383621219   -4.5803455516