15

 O    0.0106725610    1.4198783857    0.0101635198
 C   -0.0030916396    0.0199099279    0.0028460869
 C   -1.4584082918   -0.4369856970    0.0119773723
 O   -2.3993989291    0.3072681201    0.0231045562
 N   -1.6386683472   -1.8402650251    0.0063950782
 C   -2.8784868884   -2.4719728105    0.0128888286
 C   -2.6098837356   -3.8047172403    0.0042114320
 N   -1.2408787543   -4.0347838974   -0.0076966246
 C   -0.6935482691   -2.8536279003   -0.0062487314
 H    0.9280314490    1.7084881868    0.0022119301
 H    0.4832737564   -0.4071341192   -0.8897467993
 H    0.4973867284   -0.4164912823    0.8830426532
 H   -3.7842283446   -1.8921690024    0.0228787684
 H   -3.3112715031   -4.6245777671    0.0056867875
 H    0.3666909080   -2.6543200890   -0.0136185681