19

 O   -0.0869920688    1.3739926025    0.0685269540
 C   -0.0087636888   -0.0432691713    0.2511231374
 C   -1.4346303531   -0.5466028749    0.0411621026
 O   -2.2921683997    0.0764818862    0.9666084022
 C   -1.8765729637   -0.5060777419   -1.4586120469
 C   -1.6230739881   -2.0330626715   -1.5600994870
 C   -1.6278927325   -2.0844026622    0.0067090469
 C   -0.6898679916   -3.0570054679    0.6574727905
 O    0.2890815651   -2.7825716820    1.3079813907
 H    0.7040862697    1.7702831459    0.4432221737
 H    0.6844979359   -0.4992925067   -0.4692971035
 H    0.3277859849   -0.2990265139    1.2594737548
 H   -1.9995678831    0.9969869684    1.0107755443
 H   -2.9398198164   -0.2651948019   -1.5226474310
 H   -1.3132763665    0.1479149951   -2.1263362228
 H   -2.3710109042   -2.6379455539   -2.0743001208
 H   -0.6382129575   -2.2682814209   -1.9727297589
 H   -2.6445415836   -2.3066312685    0.3525076930
 H   -0.9569515380   -4.1235344003    0.4651363209