16

 O    0.6418435880    0.3258336953   -0.6886696156
 C   -0.2129706910    0.2773936299    0.4387968598
 C   -1.4710124448   -0.5016003691    0.1689467415
 O   -2.4793117462   -0.4830160003    1.1972127455
 C   -2.7501232644   -1.9033446263    0.9741925229
 C   -1.8022334699   -1.9427249352   -0.2128620329
 C   -2.1478843832   -0.7785821229   -1.1327411185
 O   -3.4495921223   -0.3557601309   -1.3843593990
 H    0.2207197031    0.8818387626   -1.3521593923
 H    0.3606698146   -0.1979678429    1.2413303674
 H   -0.4951820062    1.2814284348    0.7942265250
 H   -2.4163246307   -2.4876182992    1.8369485212
 H   -3.8112017987   -2.0922547146    0.7782039443
 H   -1.1628215603   -2.7655658737   -0.5031318149
 H   -1.5168186126   -0.7275119268   -2.0149290798
 H   -3.7701005555    0.0230677893   -0.5539693646