14

 C   -0.0716853296    1.5700386001    0.0230497648
 C    0.0313136649    0.0419597391   -0.0222611609
 N    0.8099351228   -0.4454078373   -1.1599638320
 C    1.7491054048   -1.1488953681   -0.6639397901
 O    1.8051647119   -1.2781276203    0.7142320842
 C    0.7341907283   -0.5337752230    1.2060248920
 O    0.5090960568   -0.4263185785    2.3688872090
 C    2.7670509468   -1.8309383141   -1.3793746921
 C    3.6329949110   -2.4126239441   -1.9748478813
 H    0.9222837245    2.0245178085    0.0509458356
 H   -0.5933893336    1.9321873299   -0.8650352333
 H   -0.6219456398    1.8744305515    0.9167394565
 H   -0.9793670001   -0.3835003556   -0.0733816341
 H    4.3964351713   -2.9256019081   -2.5076576882