23

 C   -0.1743214286    1.6227042768   -0.0564977320
 C   -0.2675722201    0.1035656627   -0.2192668386
 C    0.9144542008   -0.4773368329   -1.0105388138
 C    0.8462621590   -1.9844636659   -1.1810842632
 C   -0.1540856875   -2.6182829907   -2.1481426228
 C    1.2992458092   -2.6954678563   -2.4692704972
 C    1.9141942239   -1.9466848298   -3.6306933392
 C    1.1223381059   -2.7834855593    0.0395138561
 O    1.4437439053   -2.3313922910    1.1120408666
 H    0.7375388511    1.9068069416    0.4801734208
 H   -0.1562240324    2.1286511751   -1.0288667925
 H   -1.0266644401    2.0155997353    0.5064606006
 H   -0.3019149038   -0.3717484692    0.7660566583
 H   -1.2054556160   -0.1564495985   -0.7270295522
 H    0.9636569788    0.0091772962   -1.9903050716
 H    1.8472494230   -0.2315504908   -0.4893738128
 H   -0.6798077713   -3.5149529174   -1.8351952874
 H   -0.7627435256   -1.9189409033   -2.7126228840
 H    1.7585879472   -3.6660126462   -2.2920171625
 H    1.3828970993   -1.0176157763   -3.8514967830
 H    2.9630982978   -1.6985768208   -3.4376409621
 H    1.8783639988   -2.5656436522   -4.5337155037
 H    1.0218603854   -3.8862649471   -0.1076939237