16

 O   -0.9366044559    1.2985821864   -0.3502755495
 C    0.1300036941    0.9500319194    0.0978277258
 C    1.3855153816    1.7368368556   -0.0389676194
 C    1.2420696124    3.2627079882    0.0984887937
 C    1.5248067929    2.6689299688   -1.2343130381
 C    2.9103646877    2.7085310127   -1.8344189483
 O    3.9523211487    2.4076848585   -0.8869561260
 C    3.6786294228    1.4792374052    0.0600742295
 N    2.5494694187    1.1043575797    0.4939343782
 H    0.2586247335    0.0007304366    0.6588318377
 H    0.2375876428    3.6255758206    0.2835560305
 H    2.0393310275    3.7604112301    0.6396781971
 H    0.7073169350    2.6445438976   -1.9487295074
 H    2.9759310326    1.9816384140   -2.6538183687
 H    3.1587945663    3.6966104677   -2.2317298198
 H    4.5985017293    1.0678705691    0.4692360346