19

 O   -0.1564255347    1.5389396120   -0.2585894959
 C   -0.0073688194    0.1952708517    0.1724097055
 C   -1.3602860090   -0.4773559322    0.0081626659
 C   -1.7580437540   -0.6832698623   -1.4913355586
 C   -1.4315121919   -2.1661764172   -1.3017783807
 O   -1.1519159339   -3.0753870605   -2.0384304540
 C   -1.3768410190   -2.0339938825    0.2227766581
 C   -0.2549871174   -2.8281791741    0.8972139568
 O   -0.4396121873   -4.2109670940    0.6678307127
 H    0.6982975203    1.9752129203   -0.1943182923
 H    0.7530366063   -0.3300254668   -0.4288278618
 H    0.3140261479    0.1435961764    1.2246282464
 H   -2.0976849394    0.0659139505    0.6015435759
 H   -2.8232250274   -0.5238404089   -1.6856735413
 H   -1.1807629666   -0.1397036303   -2.2428611292
 H   -2.3353362578   -2.3517839925    0.6497270598
 H    0.7263509909   -2.4882670622    0.5300703711
 H   -0.2651463155   -2.6811488834    1.9823669079
 H   -0.5002882123   -4.3263356840   -0.2903853564