16

 C   -0.0506446046    1.4557394203    0.0186176356
 N   -0.0008164729    0.0082658925   -0.0056022444
 C    0.0355090339   -0.7854495063   -1.1444711126
 C    0.0422465908   -2.0951369782   -0.7630819452
 C    0.0310597424   -2.1168358551    0.6707114816
 C    0.0502642146   -3.2252321651    1.5419944884
 N    0.0682053213   -4.1106243776    2.2927140853
 C    0.0064796568   -0.7914033586    1.0992163951
 N   -0.0961387314   -0.2593642144    2.3826769500
 H    0.9486012209    1.8989810460    0.1060115383
 H   -0.5102023464    1.8149308394   -0.9039766376
 H   -0.6572952381    1.7806840565    0.8673400999
 H    0.0528872500   -0.3301572550   -2.1209308798
 H    0.0588358536   -2.9567907420   -1.4102719748
 H   -0.1688932867   -0.9957496303    3.0747974967
 H    0.6670661658    0.3593114580    2.6349562436