21

 C    0.1119704543    1.5440444287   -0.0240034777
 C   -0.0087968885    0.0469472656    0.0675011718
 C   -1.1429189713   -0.6677678280    0.0015872395
 C   -2.5328853471   -0.1006348284   -0.1217932738
 C   -1.0795752654   -2.1566374988    0.0556153129
 C   -0.2207441096   -2.9034281792   -0.9751598241
 C    0.2405146507   -2.7599842586    0.4459304927
 O    1.2808478749   -1.9235260671    0.8430969008
 C    1.3274067708   -0.6525289561    0.2147570030
 H    0.8532957328    1.8273166222   -0.7837789286
 H   -0.8247434500    2.0380493176   -0.2840765357
 H    0.4657587280    1.9694900736    0.9246536376
 H   -2.5578376282    0.9893197164   -0.1468114517
 H   -3.0228678691   -0.4726730436   -1.0306642453
 H   -3.1554546794   -0.4278105588    0.7210278148
 H   -1.9860337673   -2.6532287753    0.3886130591
 H   -0.5477114679   -3.8841955094   -1.3041330704
 H    0.2428370814   -2.3003787904   -1.7474713422
 H    0.2418988216   -3.6461922265    1.0709579846
 H    1.8234608216   -0.7323252766   -0.7697824902
 H    1.9927963278   -0.0485710274    0.8429128430