21

 C   -0.2190686979    1.6116365794    0.0654052517
 C    0.0335990445    0.1159564190    0.0123325899
 C    0.8207579564   -0.5715413189   -1.1352258979
 C    2.0741770576    0.2083723763   -1.5584116752
 C    2.8695024628    0.5766438297   -0.3235804458
 C    2.4205905023    0.2049772746    0.8783270759
 C    3.0803247969    0.5128259824    2.1875838369
 C    1.1288489794   -0.5985682527    0.8572595668
 O    1.2276011621   -1.6061937503   -0.1942717234
 H    0.7051608537    2.1880101767   -0.0217604037
 H   -0.8904825503    1.9172662892   -0.7448810915
 H   -0.7015879777    1.8906676324    1.0088554630
 H   -0.9018321686   -0.4355152332    0.1447738499
 H    0.2652444873   -0.9776683803   -1.9856279601
 H    2.6778615159   -0.4089394160   -2.2367407627
 H    1.7932075395    1.1056750610   -2.1277834840
 H    3.7963288632    1.1324930241   -0.4427970428
 H    3.9938595513    1.0980794115    2.0496792197
 H    2.4127190807    1.0799584662    2.8497801859
 H    3.3411676593   -0.4078551201    2.7255815062
 H    0.8646934416   -1.0337310709    1.8250655911