17

 O   -0.0362423101    1.3814157122   -0.0547170218
 C    0.0037761836    0.0012083635   -0.0715887736
 C    0.4447095703   -0.8462108160    1.2049367710
 C   -1.0530426707   -1.0085212941    1.5740964491
 C   -1.2880953674   -0.8642534557    0.0582712705
 C   -0.4053411891   -1.9434531541   -0.6390757402
 C    0.8128389993   -2.0695361848    0.3502736300
 O    1.7452093507   -1.5821833557   -0.6569786771
 C    0.6007466902   -0.9065154161   -1.2074871788
 H    0.8602086046    1.7103485836    0.0793972651
 H    1.1911313755   -0.4859168717    1.9130892552
 H   -1.3611828464   -1.9351985353    2.0697465006
 H   -1.4349749375   -0.1483270759    2.1296485909
 H   -2.2434468091   -0.5993812911   -0.3908951259
 H   -0.7829403507   -2.8099569633   -1.1752190237
 H    1.1329271886   -2.9942960826    0.8296595753
 H    0.7049621985   -0.5536602429   -2.2331294265