15

 N   -0.3056568663   -0.8967505922    0.5749994584
 C   -0.2077729401    0.1935124443    0.1876587620
 C   -0.0481158017    1.5002305483   -0.3269890941
 C   -1.0629105043    2.3900795075   -0.4801372786
 C   -1.8251502560    2.7488098158    0.7939762413
 C   -0.7078889071    3.8853939988    0.8586201370
 C   -0.4758600714    3.8149700413   -0.5981204141
 N    0.6815652631    3.6816494063    0.2561844041
 C    1.2161387370    2.3257608998   -0.0228757043
 H   -2.7887618106    3.2529021070    0.6741787986
 H   -1.8815862897    1.9775776390    1.5640919146
 H   -0.7870126665    4.7656674267    1.4870034840
 H   -0.5768830394    4.5400132856   -1.3960367816
 H    1.7202507128    1.8890266012    0.8447864616
 H    1.9479738700    2.4234423908   -0.8325386089