13

 O   -0.0182649858    1.3937043565    0.0515655794
 C   -0.0601006824    0.0119790159    0.0579231132
 C   -1.3450650372   -0.7888710010    0.0750603171
 C   -2.3723752123   -0.0820808802   -0.7966191797
 O   -1.4172232288    0.0429684618   -1.8995302294
 C   -0.4581754563   -0.7446336774   -1.1811238608
 C    0.3029001699   -1.7295336197   -1.8759918649
 N    0.9381937036   -2.5326084178   -2.4151105736
 H   -0.3698500759    1.6818340289   -0.8025670567
 H    0.7479538327   -0.4290060576    0.6336586385
 H   -1.5296809526   -1.6096585565    0.7543546491
 H   -3.2115003903   -0.7126818760   -1.1011184514
 H   -2.7286584447    0.8928804531   -0.4508508208