18

 C    0.2171514207    1.5905967567   -0.1086217635
 C    0.0304182534    0.1023978448    0.0747236537
 O   -1.3078365711   -0.1828349467    0.6745469780
 C   -0.7318202395   -0.9071420934    1.6925049647
 N   -1.2557273749   -1.5444809364    2.6387325870
 C    0.6980213001   -0.6650703066    1.2520995504
 C    1.4516483277   -1.8680751828    0.6507161069
 C    1.0473557171   -1.8282975766   -0.8064576388
 C    0.2940750102   -0.7733929612   -1.1182267673
 H    1.2327587401    1.8063304322   -0.4549633967
 H   -0.4861636091    1.9763952407   -0.8537075110
 H    0.0449155758    2.1224242040    0.8311755363
 H   -2.2753668894   -1.4920381826    2.5975992396
 H    1.2824932948   -0.0744031816    1.9581152098
 H    2.5377445063   -1.7663140235    0.7667809980
 H    1.1729316630   -2.8098035713    1.1358666736
 H    1.3537432785   -2.5982006708   -1.5069438206
 H   -0.1048047936   -0.5465896150   -2.1003940701