19

 C   -0.3835376421    1.5331500698    0.1102841807
 C    0.0971021393    0.0924098232    0.0005237393
 O    0.9538980730    0.0012943432   -1.1691827240
 C    2.1938054340   -0.5562629506   -1.0858129299
 O    2.8735874231   -0.6442918757   -2.0702834309
 C    2.5998667449   -1.0140745646    0.2989938867
 C    1.4220574411   -1.8193057333    0.9224595830
 C    0.8043528473   -0.4343444206    1.2483507648
 C    2.2539994716    0.1182528205    1.3096992382
 H    0.4399034073    2.2099174404    0.3558474625
 H   -0.8196561398    1.8566745162   -0.8379669524
 H   -1.1469291935    1.6178186008    0.8901112416
 H   -0.7622235146   -0.5563515915   -0.2155312335
 H    3.6016601837   -1.4379663607    0.2646234538
 H    0.8597024303   -2.4978003034    0.2749046753
 H    1.7409033994   -2.3498648819    1.8224284813
 H    0.1555375112   -0.3326473025    2.1211611706
 H    2.7162256317   -0.0676457483    2.2816654620
 H    2.4401653121    1.1518856191    1.0092537608