15

 C    0.4467272675    1.4070161437    0.0152347331
 O    0.4007612518   -0.0153505778   -0.2128015507
 C    0.2310728782   -0.3845512147   -1.4801067682
 O    0.0965763758    0.3425120677   -2.4283460888
 C    0.1681540865   -1.9100238574   -1.6314228373
 O   -0.8092445945   -2.5515289072   -1.3436298965
 C    1.4387951979   -2.5445753310   -2.2317604543
 C    1.3292869729   -3.9800354168   -2.6670398249
 O    2.4391254732   -1.8696526324   -2.2834425230
 H    1.2521458711    1.8568288786   -0.5691719974
 H   -0.5032075894    1.8657148554   -0.2678544666
 H    0.6291378245    1.5260609981    1.0821944438
 H    0.9133874782   -4.5884751679   -1.8585837616
 H    0.6245167771   -4.0556958458   -3.5030548414
 H    2.3080410692   -4.3519364427   -2.9699291861