14

 N   -0.0401536665    1.3759539809    0.1660737607
 C    0.0374345636   -0.0023718544    0.0497782035
 N   -1.0507005538   -0.7595820706    0.0271014741
 N   -0.6159137682   -2.0894681277    0.0631973806
 C    0.7364527809   -2.1031044761   -0.0293147019
 C    1.2144785802   -0.8100613859    0.0114814295
 N    2.5973595777   -0.7956805389    0.0277277748
 C    2.9269305420   -2.0605008208   -0.0020656804
 N    1.8296501315   -2.9260494675   -0.0233417724
 H    0.7157320095    1.8641192450   -0.2925436615
 H   -0.9455188552    1.7421253851   -0.0956240945
 H   -1.2637654027   -2.7744510710   -0.2861857406
 H    3.9335799742   -2.4520706448   -0.0172672932
 H    1.8643478166   -3.9292314234   -0.0727516286