16

 N   -0.0917429623   -1.1410311352   -0.1259101725
 C   -0.0336316044    0.0113582167   -0.0592709052
 C   -0.0120523403    1.4653350036    0.0267285547
 C   -0.1156281742    2.0740368884    1.4624913013
 C    1.3985068666    1.7549123492    1.5099297653
 N    1.4004377629    2.0465567242    0.0166769149
 C    1.0509671134    3.5002681342    0.0406488011
 C   -0.0910577943    3.5713166561    1.1159668694
 H   -0.6686867563    1.8770077586   -0.7459186104
 H   -0.8357260046    1.7183000811    2.1994019295
 H    2.0535009152    2.3987473160    2.1023039882
 H    1.6336580685    0.7046843607    1.6867761532
 H    1.9388624107    4.0733729397    0.3147796759
 H    0.7291335151    3.8181095567   -0.9536154038
 H   -1.0409715998    3.9302625110    0.7112056007
 H    0.1681787437    4.1889874491    1.9795461377