21

 C   -0.1835834945    1.5934136670   -0.0523932476
 C   -0.2475563096    0.0894485546   -0.2228303924
 C   -0.2010941919   -0.8193010156    0.9813726645
 C   -1.4777923053   -0.6772507328    0.1871859349
 C    1.2420627377    2.1261900921    0.0603852967
 C    2.1800377321    2.0748808764   -1.2095047493
 C    2.3107427227    3.5996642227   -1.1144862234
 O    0.9881786762    4.1429376652   -1.2147235939
 C    1.4271068526    3.6555230295    0.0599169451
 H   -0.6760909117    2.0914616467   -0.8958413199
 H   -0.7450696550    1.8758864391    0.8491385387
 H    0.2622332525   -0.2816325920   -1.1089643122
 H    0.3484362191   -1.7516935079    0.9121659932
 H   -0.1644730886   -0.3566312592    1.9628521260
 H   -2.2935678079   -0.1200377010    0.6366174770
 H   -1.7983670649   -1.5118406404   -0.4266228690
 H    1.7534697535    1.6765087702    0.9179021486
 H    3.1138417437    1.5396291960   -1.0232196921
 H    1.7305853215    1.7138327418   -2.1384481997
 H    3.1310396344    4.2412159263   -1.4149210751
 H    1.3886953133    4.3509857113    0.8913091298