19

 C    0.3381333738    1.6646028592   -0.5490072392
 C    0.0007991226    0.2149251855   -0.1920060433
 C    0.9340810558   -0.8587626683   -0.8186055135
 O    1.4530944662   -1.1909160077    0.5116517173
 C    0.6290447768   -0.2670437095    1.1048376786
 N    0.4632781077    0.0413029910    2.3112562913
 C   -1.4894788905   -0.0476983321   -0.3108916141
 C   -2.1738161871   -1.1176793816    0.4563997941
 N   -2.3955281784    0.3000361203    0.7915070510
 H    1.4123608916    1.8567563772   -0.4711307398
 H    0.0211835113    1.8886741979   -1.5731363121
 H   -0.1809505489    2.3502805431    0.1259105401
 H    0.4404632803   -1.7236738222   -1.2666556905
 H    1.7333651298   -0.4876694299   -1.4644768300
 H    1.0603105767   -0.5062845517    2.9331563951
 H   -1.8879721085    0.2072649936   -1.2930339716
 H   -3.0275891491   -1.6294407536    0.0212186390
 H   -1.5839228634   -1.7191584427    1.1424952868
 H   -1.8408734568    0.5255084116    1.6181877309