15

 N    0.0782637537    1.4305575712   -0.0406820306
 C   -0.0146147150    0.0336170144   -0.0120566312
 C   -1.1349086930   -0.7595116841    0.1072511853
 C   -2.5858305303   -0.4802883713    0.2359434983
 O   -3.2989121307   -1.4060045363   -0.5897625634
 N   -0.6362350056   -2.0541273459    0.1770533522
 C    0.7110469623   -1.9783963082    0.0779990972
 N    1.1253743403   -0.7317110509   -0.0251526268
 H    0.9945766522    1.7063429770   -0.3719532186
 H   -0.6364442637    1.8674419283   -0.6091960699
 H   -2.9227604756   -0.5827340094    1.2820089435
 H   -2.7804251358    0.5625602551   -0.0579122062
 H   -4.2339145081   -1.3350491859   -0.3722092875
 H   -1.2084291453   -2.8813491686    0.1485523770
 H    1.3448454446   -2.8523269352    0.0769586508