17

 C    0.0242874604    1.5225082735    0.0128044946
 C    0.0474824335    0.0242187129    0.0806811163
 C    1.2361616716   -0.8608959807   -0.3518698222
 C    0.6737269335   -0.9926567237    1.0146665748
 C    1.3300270854   -0.9191746753    2.3543835356
 O    1.9747082780   -2.1313483242    2.7019614847
 O   -0.5114234204   -1.8513824272    0.9255254092
 C   -1.1528819032   -0.8877898185    0.1519477568
 O   -2.2863559116   -0.8848216184   -0.2015376584
 H    1.0156971340    1.9395628455    0.2128284012
 H   -0.2827888674    1.8574853978   -0.9831741012
 H   -0.6776557994    1.9439677388    0.7385068031
 H    1.1006878708   -1.6626266343   -1.0704897519
 H    2.1709541563   -0.3136508145   -0.4380252208
 H    2.1060378228   -0.1475170448    2.3346941964
 H    0.5824582867   -0.6276423801    3.1070230356
 H    1.2982421288   -2.8169294769    2.7365279361