10

 O   -0.0644836123   -0.0528554305   -0.0000566497
 C   -0.0358753917    1.1459807964    0.0085149951
 N    1.1639041639    1.8723467970    0.0001787012
 C    2.4501739904    1.3786275588   -0.0182534278
 N    3.3355565911    2.3083029192   -0.0213427966
 O    2.6065253900    3.5284375410   -0.0040435184
 C    1.2651883802    3.2791538881    0.0094407697
 O    0.3900470508    4.0900576869    0.0254298282
 H   -0.9066379343    1.8183572942    0.0234634312
 H    2.6748658918    0.3234653389   -0.0286539428