15

 N   -0.8506859360    0.7600500412    0.1676675437
 C    0.1038590025   -0.3172585888   -0.1351694610
 C    1.0227179400   -0.0044686871   -1.2519605658
 N    1.7007820976    0.2796497006   -2.1435020988
 C    0.8795145026   -0.6720410938    1.0994195750
 C    2.1783617364   -1.0377690755    1.3436637523
 N    2.3597037965   -1.3101155379    2.6797541270
 C    1.1875020291   -1.1090430463    3.2373563414
 N    0.2512257682   -0.7282290189    2.3244975126
 H   -0.3426115696    1.6191234141    0.3623158884
 H   -1.4383923921    0.9405555783   -0.6412428516
 H   -0.4976903757   -1.1794999552   -0.4579512187
 H    2.9860882871   -1.1190045158    0.6324659438
 H    0.9575826168   -1.2169214732    4.2868775876
 H   -0.7024663234   -0.4464873819    2.4857189041