16

 C    0.0266062522    1.3527367303   -0.0813505247
 N   -0.1568310720   -0.0723247498    0.1109509292
 C    0.5758549250   -0.7022514760    1.0978321428
 C    1.2393142008   -0.1710458323    2.1649976775
 O    1.7847403158   -1.1772331099    2.9305687945
 C    1.4783509335   -2.3422365010    2.3397716525
 C    0.7387011960   -2.1405955742    1.2066114926
 C    0.2328611648   -3.0962216666    0.3004685770
 C   -0.2126216654   -3.8694976779   -0.5098723052
 H    1.0758238662    1.6373230549   -0.2621976893
 H   -0.5784815964    1.6836118218   -0.9281375803
 H   -0.3195623115    1.8941124256    0.8067643874
 H   -0.2207138137   -0.6132728282   -0.7393214499
 H    1.4035750396    0.8300703608    2.5202947263
 H    1.8421196897   -3.2385206633    2.8141539532
 H   -0.6053815847   -4.5677398242   -1.2064297236