12

 N   -0.0449475264   -1.1475907421   -0.2962954809
 C    0.0178993459   -0.0247685538   -0.0361649859
 C    0.0730784641    1.4089011991    0.2827457364
 N    1.3931075024    1.9785490148    0.1127850108
 C    1.9509830027    2.5670367474   -0.9704869046
 N    3.1943182440    2.9124628887   -0.7107787642
 C    3.3573704335    2.4944121667    0.5767406547
 N    2.2988067091    1.9211916853    1.1221105873
 H   -0.6321804318    1.9454419316   -0.3585975260
 H   -0.2277897359    1.5612761188    1.3221503204
 H    1.4176629663    2.7187403418   -1.8972892413
 H    4.2775661561    2.6224981516    1.1264377233