21

 O    0.3421404979    1.4128608731   -0.1174856855
 C    0.0025277554    0.0476827710    0.0144650404
 C   -1.3932121626   -0.1373485529    0.6594918199
 C   -0.7850248454   -1.1690176071    1.6542704441
 C    0.6484966743   -0.7747320600    1.1831319294
 C    1.6055146429   -1.8223331681    0.5767150794
 C    1.3221599795   -1.8395495954   -0.9267910999
 C   -0.0729292041   -2.1875369126   -1.3691616903
 C    0.3276834364   -0.7366136303   -1.2544196093
 H    1.2280998113    1.4636190938   -0.4934051385
 H   -1.7107610815    0.7844916057    1.1514235955
 H   -2.1935739081   -0.4834216889    0.0018833859
 H   -0.9956628674   -0.9850751232    2.7100398568
 H   -1.0491645536   -2.2075063962    1.4384534022
 H    1.1450325651   -0.1321945085    1.9133721097
 H    2.6472763326   -1.5272658235    0.7459537045
 H    1.4809071259   -2.8108802627    1.0346170306
 H    2.1416417037   -2.0724333549   -1.5986237944
 H   -0.1950058235   -2.5760067708   -2.3749139197
 H   -0.7686282696   -2.6133522845   -0.6547474016
 H    0.3868353907   -0.1564139840   -2.1697297493