23

 C   -0.0175515987    1.5686921491    0.0563845346
 C   -0.0980910078    0.0452348088    0.1701487004
 C   -1.5144376507   -0.5028736461   -0.0564829433
 O   -2.0279663466   -0.1154702784   -1.3342914831
 C   -1.5640296571   -2.0077098646    0.1228488738
 C   -1.8832022405   -2.7380504631    1.4035510418
 C   -2.9765509009   -2.0268653902    2.2137029848
 C   -3.9267751074   -2.1005219487    0.9736046864
 C   -2.8235320148   -2.8272865215    0.1927781639
 H    1.0120027655    1.9229700929    0.1653911294
 H   -0.3979578705    1.8993034013   -0.9135077855
 H   -0.6210395970    2.0535200605    0.8321300833
 H    0.5772869354   -0.4210764014   -0.5623511421
 H    0.2489397261   -0.2845919626    1.1576295141
 H   -2.1892808647   -0.0172642851    0.6563126616
 H   -1.5753339462   -0.6444368093   -2.0004074464
 H   -0.7801416823   -2.5170187869   -0.4408916875
 H   -1.2089716019   -3.4876621581    1.8016905072
 H   -3.3409649067   -2.6422572804    3.0392022826
 H   -2.7355428720   -1.0350396287    2.6099771982
 H   -4.7965605683   -2.7327808908    1.1630787394
 H   -4.2720825649   -1.1549391664    0.5457988313
 H   -2.9863141781   -3.6607273003   -0.4806550851