18

 C   -0.0883407517    1.5348425534   -0.0275427902
 C    0.0116946139    0.0207876798   -0.0014553657
 C   -1.2278833299   -0.7947302100    0.4512491864
 O   -0.4320893122   -1.5620277482    1.3815527636
 C    0.7269782242   -0.7406486445    1.1400502951
 C    1.8653987572   -1.5005313585    0.4760843719
 O    1.5743643173   -1.5072628489   -0.9320493876
 C    0.6378121004   -0.5660366931   -1.2524988060
 N    0.3165421368   -0.2431281673   -2.4298072644
 H    0.9010414253    1.9963836549   -0.1074119186
 H   -0.6686763963    1.8496946566   -0.8990694584
 H   -0.5723532442    1.9127130923    0.8780074824
 H   -1.9847203745   -0.1902133907    0.9669618986
 H   -1.7107085966   -1.4210139846   -0.3052687597
 H    1.0340207914   -0.1863372041    2.0331057151
 H    2.8311888908   -1.0057410286    0.6371087178
 H    1.9238167519   -2.5351402971    0.8229150971
 H    0.8645543061   -0.7676470915   -3.1135364973