15

 N   -0.1551253277    1.2928008607   -0.4189832302
 C   -0.0096922217    0.1032321356    0.0089717329
 C   -1.2296068847   -0.7957616242    0.0415304717
 N   -1.1094421262   -1.9012117489    0.9787759292
 C    0.0527521776   -2.4877765870    1.3623562856
 O    0.1161693743   -3.5306073125    1.9838266695
 C    1.3238040359   -1.7311267376    1.0063266394
 N    2.4796645523   -2.1708188302    1.2892849297
 N    1.1760858368   -0.4954925171    0.3919477650
 H    0.7322047367    1.7972744133   -0.4581606420
 H   -2.0875530694   -0.1754917448    0.3053993340
 H   -1.3969404342   -1.1659027616   -0.9805813363
 H   -1.9415495139   -2.4333084745    1.1920893983
 H    2.3638114041   -3.0720255469    1.7590006552
 H    2.0356456702    0.0283569159    0.2849277480