18

 C   -0.0632341477    1.5076577049    0.0532949822
 O    1.3313340682    1.8784224064   -0.0979792837
 C    2.1655244812    0.7144647823    0.0652753363
 C    1.2775982142   -0.2513870577    0.8369350076
 C    0.0645104421    0.0058430814   -0.0573525637
 N   -0.8123429480   -1.0182034536   -0.5889609436
 C    0.2633664159   -0.4729445424   -1.4519718875
 C    1.6960244301   -0.9159428760   -1.6664626818
 O    2.5655059572    0.1241430483   -1.1649805047
 H   -0.4354057902    1.8621470723    1.0234644223
 H   -0.6481562567    1.9644859257   -0.7483246887
 H    3.0859177943    1.0581705814    0.5385175570
 H    1.6455831734   -1.2769810801    0.8521273989
 H    1.1041739396    0.0830174197    1.8631273536
 H   -0.5740327253   -1.9215639439   -0.1839634989
 H   -0.1396804240    0.1473650889   -2.2474379840
 H    1.9152379294   -1.8765692730   -1.1804116051
 H    1.9465662164   -1.0155617347   -2.7245303762