23

 C   -0.2944872616    1.4522379887    0.7691594340
 C   -0.2026782601   -0.0368029603    0.4951435510
 C    1.1874591766   -0.5717922153    0.2633609286
 C    0.4604879169   -0.8573761787    1.5719023480
 C    0.5927757586   -2.3830572844    1.3148412927
 C    1.3215992780   -2.0966878067    0.0027105296
 C    0.0687832432   -2.9496222974    0.0104554688
 C    0.4297255753   -4.4306138539   -0.1123640914
 C   -1.2733867732   -2.6495255345   -0.6693734376
 H    0.5768825925    1.8066677557    1.3306515296
 H   -0.3433951117    2.0225381763   -0.1648182474
 H   -1.1882899730    1.6906109543    1.3558826283
 H   -1.0469236127   -0.4206929798   -0.0577527385
 H    2.0210330299    0.1009789936    0.1002239282
 H    0.6606756644   -0.4333197479    2.5487230730
 H    0.9068268269   -3.0482222805    2.1116694095
 H    2.2643373246   -2.5149022329   -0.3324696172
 H    1.3858429342   -4.6578292696    0.3689582749
 H   -0.3400964043   -5.0555330501    0.3544212927
 H    0.5040218502   -4.7237306733   -1.1657397828
 H   -1.1733437564   -1.9347835062   -1.4903870033
 H   -1.6840728287   -3.5696467043   -1.0974949078
 H   -2.0186799995   -2.2659940629    0.0322995670