19

 C    0.1606660587    1.4614861973    0.0611927183
 C    0.0411982082   -0.0429881758    0.0595276472
 C    1.2338082719   -0.8825404553   -0.2325613465
 C    0.6681805104   -0.9321724024    1.1903580926
 C    1.4617121527   -0.3496166500    2.2880887127
 O    2.3479624327    0.4658736864    2.1520029273
 C   -0.3340310012   -2.0078609490    1.4363468172
 C   -1.3991906683   -1.8955807811    0.6412579596
 C   -1.3294149395   -0.6664831801   -0.2368620328
 H    1.1325634747    1.7799204269    0.4439169223
 H    0.0484699318    1.8503456622   -0.9577651785
 H   -0.6187271271    1.9202599651    0.6794324871
 H    1.1278750106   -1.7902776321   -0.8181169392
 H    2.1836466272   -0.3654907192   -0.3255304081
 H    1.1800324479   -0.7135048111    3.3022277330
 H   -0.1686385127   -2.7980775432    2.1606151781
 H   -2.2269366484   -2.5940170245    0.5991496048
 H   -2.1398664155    0.0369742498   -0.0014130173
 H   -1.4361198041   -0.9107302439   -1.3019094977