13

 N   -0.0463242661    1.3793904634    0.0110651901
 C   -0.0213355357    0.1003255432    0.0036675490
 N    1.1324347038   -0.7042992627   -0.0070079155
 N    1.2060939852   -2.0498399003   -0.0150375239
 N    0.1454828876   -2.7369453783   -0.0133282934
 C   -1.0991403211   -2.0722096655   -0.0029788141
 C   -1.2108318945   -0.7203275106    0.0053014921
 C   -2.2311649553   -2.9326790871   -0.0018639707
 C   -3.1924359245   -3.6557679178   -0.0008739593
 H    0.8913578750    1.7840561227    0.0084000227
 H    2.0446361402   -0.2692272518   -0.0093551885
 H   -2.1706633019   -0.2209033886    0.0132307988
 H   -4.0375465628   -4.2993142465   -0.0000383873