15

 N   -0.0389509573    1.3214470733    0.0674736649
 C    0.0252601764   -0.0250000051   -0.0445891393
 O    1.0694435119   -0.6451624647   -0.1609871115
 C   -1.3084005442   -0.7930924630   -0.0021890611
 O   -1.0632344811   -2.1234232981   -0.3647308504
 C   -1.9368603644   -0.7190903112    1.4111509754
 C   -3.2390475652   -1.4916251989    1.4748661903
 O   -4.2833430652   -1.0172163148    1.8444353911
 H    0.8153877205    1.8533925229    0.0306684039
 H   -0.9145370689    1.8141621479    0.0964231643
 H   -2.0018739469   -0.3366582383   -0.7254250357
 H   -0.0917760666   -2.1930277815   -0.3917485782
 H   -1.2263517474   -1.1763428906    2.1124939401
 H   -2.1298620541    0.3114205445    1.7229432713
 H   -3.1630453475   -2.5473404325    1.1435045949