19

 C   -0.2305522019    1.4952909124   -0.0668190542
 C    0.1574498868    0.0277627159    0.0591291482
 C    0.9382335998   -0.5284016738   -1.1806697981
 N    1.8204253792   -1.4918749303   -0.5281408138
 C    3.1597625322   -1.8710014072   -0.9386395559
 C    3.7236961901   -2.3090274738    0.4300401763
 O    2.9999561579   -1.5221471357    1.4020602382
 C    1.9112532032   -1.0302943397    0.7862242802
 N    1.0486719113   -0.2088688983    1.2215908682
 H    0.6605602938    2.1202542228   -0.1849784092
 H   -0.8851331699    1.6552578025   -0.9309091793
 H   -0.7581972645    1.8263961877    0.8314403313
 H   -0.7564046080   -0.5687470708    0.1969982976
 H    0.2912443457   -0.9961253266   -1.9268627817
 H    1.5205326594    0.2702922310   -1.6708290412
 H    3.1677409342   -2.6865978035   -1.6668201975
 H    3.7241545783   -1.0209307709   -1.3569800963
 H    3.5295952097   -3.3693667790    0.6231306919
 H    4.7888220027   -2.1064893028    0.5522705554