15

 O    0.0273062647    1.4078434741   -0.0239845197
 C   -0.0404651084    0.0315859100   -0.0205028945
 C    0.2886613723   -0.7591330351   -1.3420534801
 C   -0.8541951945   -1.7139292561   -1.0046111398
 C   -0.8341008539   -2.0469394165    0.4706596472
 O    0.3763177303   -1.8974116867    1.2211245086
 C    0.7923068650   -0.6160991431    1.0747485498
 O    1.6957806546   -0.1102848680    1.6801045560
 C   -1.3973618012   -0.7365694366    0.0462308173
 H    0.7418571890    1.6464636174    0.5862798064
 H    0.0267656868   -0.1186614897   -2.1865459207
 H    1.2981674422   -1.1618899429   -1.4753550043
 H   -1.3972464560   -2.3344413271   -1.7069762181
 H   -1.4418563287   -2.8548259548    0.8527400016
 H   -2.3831476721   -0.3408622050    0.2486116703