18

 C   -0.0651178681    1.4670516465    0.0228990836
 N    0.0458712580    0.0261320326   -0.0058507523
 C    0.0990542975   -0.7603226695   -1.1562479427
 C    0.1343093973   -2.0677057518   -0.7511462240
 O    0.2008023534   -3.1394698386   -1.5977727197
 C    0.0847311662   -2.1166084235    0.6792510746
 C    0.0901639142   -3.3382401270    1.5454186523
 C    0.0301563308   -0.7959964283    1.0785160643
 O   -0.0554842349   -0.2287313705    2.3144769381
 H    0.6120841287    1.9050738886   -0.7158943594
 H   -1.0861681891    1.8029143782   -0.1962687525
 H    0.2135377361    1.8261433784    1.0141764380
 H    0.1111199357   -0.3181614547   -2.1369717584
 H    0.2298344903   -3.9413599812   -1.0683500225
 H    1.0720561930   -3.8281652215    1.6041898733
 H   -0.2096906509   -3.1010886774    2.5729401300
 H   -0.6261863121   -4.0927478731    1.1931296727
 H    0.2398830739   -0.8743141071    2.9631530646