17

 O    0.1390478028    1.2919039899   -0.3331186664
 C    0.0703952352   -0.0697429201   -0.0242480705
 C    0.1753167216   -0.4135724677    1.5242902144
 C   -1.3603400071   -0.4998600502    1.5473467306
 O   -2.0789320581    0.7904640733    1.5091268574
 C   -2.7088156413   -0.0363904664    0.4832886345
 C   -2.6150626155   -1.3920209298    1.3047381739
 C   -1.9113267135   -2.1225420902    0.1333646348
 C   -1.3846828543   -0.6746417425    0.0027294710
 H   -0.5305432803    1.7251615326    0.2151230397
 H    0.7839400194   -0.5878301284   -0.6694859405
 H    0.6488829938   -1.3820970078    1.7036212613
 H    0.6295725472    0.3430365297    2.1684504124
 H   -3.5630290607    0.3837989100   -0.0555150889
 H   -3.3424517263   -1.7753406303    2.0257476390
 H   -1.1822340847   -2.8835833519    0.4269683836
 H   -2.5437247083   -2.5006456902   -0.6742432962