17

 C   -0.3317980009   -1.1149530719    0.4833498336
 C   -0.1214950998    0.0373147807    0.2124678504
 C    0.0916614230    1.4161035420   -0.1384477197
 O    0.7419938126    2.2577070826    0.8298263945
 C    1.4391465029    1.9770364427   -0.3845847229
 C    2.7042358580    1.1602856484   -0.2711745585
 C    3.8409883873    1.9899032571    0.2805181139
 C    5.2259172867    1.8121676871   -0.1678103880
 O    4.4454745036    2.9164182384   -0.6292812386
 H   -0.5165808693   -2.1314360743    0.7301388056
 H   -0.7500916020    1.8937162450   -0.6394685967
 H    1.4973524387    2.8269451695   -1.0662700361
 H    2.5222216627    0.2977043386    0.3779033789
 H    2.9807495994    0.7864134379   -1.2638834488
 H    3.6725303098    2.3971917765    1.2780272550
 H    6.0495413460    2.0657438877    0.4979217618
 H    5.4528757614    1.0544500418   -0.9173014343