21

 O    0.2447545658    1.3264228290   -0.4412119508
 C    0.1269351614   -0.0489886064   -0.1612766426
 C   -1.3229210351   -0.4396009173    0.1366712022
 O   -2.0551180294   -0.0011909553   -1.0052191305
 C   -3.4585874103    0.0996403757   -0.8437255448
 C   -4.1771635484   -1.2424656460   -0.9693565335
 C   -3.9691261187   -2.2053719885    0.2091975887
 C   -2.5510453880   -2.6533042059    0.4731932490
 C   -1.4423294102   -1.9142451077    0.4457641425
 H   -0.4626706924    1.5149305436   -1.0707202462
 H    0.4911644390   -0.6704895823   -0.9965037072
 H    0.7506266596   -0.2627879197    0.7129934388
 H   -1.6603225092    0.1500331055    1.0084057165
 H   -3.6956553825    0.5753899011    0.1228555176
 H   -3.7996904793    0.7742894859   -1.6363013467
 H   -5.2515503130   -1.0428808212   -1.0719218446
 H   -3.8478833803   -1.7191095876   -1.8995864696
 H   -4.3665052640   -1.7377471855    1.1240089648
 H   -4.5908524399   -3.0923709262    0.0459938350
 H   -2.4417110796   -3.7002543808    0.7496127301
 H   -0.5024233255   -2.4012963406    0.7020746511