17

 N   -0.0164572458   -1.1658545820    0.0076178593
 C   -0.0467819334   -0.0108166681    0.0182086874
 C   -0.0495859507    1.4529244048    0.0304896829
 C    1.3570634990    2.0202308563    0.0001452186
 C    2.3525484889    1.8046452847    1.1753254431
 C    3.0081497263    3.1005799329    0.7041601297
 C    1.7830931037    3.5468265465    0.0023599787
 N    2.9763479943    3.1688566989   -0.8016518860
 C    2.2861490455    1.9056839366   -1.2222308478
 H   -0.6241644555    1.8081527655   -0.8335916378
 H   -0.5826568880    1.7924222073    0.9266627714
 H    1.8717983799    1.9476311431    2.1471095778
 H    2.9331624710    0.8768475787    1.1788877137
 H    3.7725686697    3.6919370400    1.1896239793
 H    1.2566928355    4.4891596878   -0.0760886532
 H    2.9248855775    1.0196283635   -1.3061180114
 H    1.7789559321    2.0925729334   -2.1729482755