16

 C   -0.1866008868    1.3988164043    0.0834438453
 N   -0.0660812435   -0.0457454619    0.1308842294
 N   -0.0761047693   -0.7617478248   -0.9960901521
 N    0.0532174132   -2.0270454929   -0.6643420142
 C    0.1388392783   -2.1056845506    0.6798712358
 O    0.2717258984   -3.2760627730    1.3348363613
 C    0.0674993109   -0.8431174963    1.2337323003
 C    0.0679772245   -0.3562775065    2.6422402544
 O   -1.1353430058    0.3234597846    3.0024310456
 H    0.7770100209    1.8748855803    0.2915795785
 H   -0.5119376289    1.6667043307   -0.9213844996
 H   -0.9157343758    1.7245013018    0.8272227897
 H    0.2933987863   -3.9690702233    0.6626308752
 H    0.2659763151   -1.2121415431    3.3005244712
 H    0.8651185443    0.3758740177    2.8118929213
 H   -1.8632709117   -0.2955758470    2.8779939180