23

 C    0.4684447589    1.3836427180   -0.3350364187
 C    0.0350072331   -0.0736215407   -0.1114506354
 C    0.4221790044   -0.9438227215   -1.3177298313
 C    0.6558682264   -0.6277525431    1.1736948422
 C    0.1034706030   -0.1280723295    2.5598959998
 C   -1.0218474863   -1.2016714613    2.4099215938
 C    0.1514076482   -1.9768389355    1.7671655691
 O    1.0460437770   -2.1898087432    2.8735916675
 C    1.0549889416   -0.8809631903    3.4963193508
 H    1.5576494815    1.4552051435   -0.4390995268
 H    0.0209263119    1.7896558132   -1.2482349839
 H    0.1704202582    2.0274288493    0.4982464973
 H   -1.0586998389   -0.0848359130   -0.0295116512
 H    1.5106430920   -0.9706717155   -1.4467466029
 H    0.0762787602   -1.9755463884   -1.2017573719
 H   -0.0112637401   -0.5472601826   -2.2417919796
 H    1.7489918018   -0.5917459327    1.0819466841
 H   -0.0997249867    0.9195721113    2.7804298973
 H   -1.4515411222   -1.6270178793    3.3202156334
 H   -1.8080286222   -0.9149857626    1.7131968420
 H    0.0461709790   -2.9022358462    1.2026834270
 H    2.0736397356   -0.4751799549    3.5048697760
 H    0.6910625335   -0.9537882250    4.5283061715