21

 C   -0.5544522415    1.3977743228    0.0183310199
 C    0.0866938008    0.0072660513   -0.0381710547
 C    1.0478792506   -0.1017272418   -1.2438305143
 O    1.6656184889   -1.3774959011   -1.3700369193
 C    2.1904764704   -1.9141154074   -0.1798576611
 C    3.6837933363   -1.7341787739    0.2715874962
 C    3.1528138207   -1.5938640375    1.7415133711
 C    1.8192379993   -1.2437992058    1.1123300686
 C    0.8899438191   -0.3030572284    1.2122441874
 H    0.2065774085    2.1777660360    0.1356099043
 H   -1.1207844677    1.6141748323   -0.8932476193
 H   -1.2416942681    1.4742383848    0.8668590067
 H   -0.7078238290   -0.7386803675   -0.1803102838
 H    0.5086726546    0.0465859670   -2.1848381182
 H    1.8046897974    0.6947533698   -1.1579395756
 H    1.9487843181   -2.9851691408   -0.1873329486
 H    4.3754962864   -2.5500416688    0.0514475521
 H    4.0935220866   -0.7889761587   -0.0912006793
 H    3.1522306401   -2.5559600233    2.2644332867
 H    3.6192585218   -0.8440505702    2.3836346851
 H    0.7740812866    0.3227645611    2.0940912359