19

 O   -0.0573189880    0.0337305518   -0.0247680587
 C   -0.0108989445    1.2227563215    0.0529615835
 O    1.1404748309    1.9158528307   -0.1091640719
 C    1.0372601036    3.3251622620   -0.0614586368
 C    2.4314854230    3.9058208924    0.1284682194
 C    2.3761353075    5.4375467217    0.0213539738
 C    1.6560362083    5.8552499040   -1.2686262553
 C    0.3054024632    5.1457230018   -1.3654100031
 O    0.4546452803    3.7305280558   -1.2762946227
 H   -0.8766863869    1.8738821406    0.2728609134
 H    0.3770415963    3.6202114810    0.7766429170
 H    2.8319478319    3.5843672940    1.0947000593
 H    3.0716576332    3.4866678895   -0.6553362023
 H    1.8374322848    5.8459342359    0.8873806471
 H    3.3868477190    5.8547978708    0.0582407983
 H    1.5048673562    6.9398075778   -1.3005765417
 H    2.2621531248    5.5823156164   -2.1405480937
 H   -0.3668877433    5.5006925436   -0.5655471449
 H   -0.1852606703    5.3315573489   -2.3237631107