19

 C   -0.2935240447    1.3245566548   -0.1018935925
 O    0.1445938422   -0.0133503913    0.0753801518
 C    0.7812467350   -0.5290168128   -1.0285563192
 C    0.0427900203   -1.0656528099   -2.2196152417
 C    0.9020809843   -2.0064510637   -1.3881220642
 C    2.3541466912   -1.7766708823   -1.7253257884
 C    3.4925757186   -2.6797316684   -1.5816888957
 O    3.0037887034   -2.2938214711   -2.8763196857
 C    2.2635576639   -0.2765618419   -1.3710493331
 H    0.5494152826    2.0073959036   -0.2784365991
 H   -0.9944576515    1.4082318822   -0.9437613164
 H   -0.7998152343    1.6178501659    0.8201225053
 H   -1.0227791933   -1.1968235909   -2.0602845703
 H    0.3276923256   -0.8125831300   -3.2375130533
 H    0.4834815651   -2.8752514774   -0.8957955264
 H    4.4700084220   -2.2807740216   -1.3114128120
 H    3.3285577011   -3.7234427621   -1.3145893939
 H    2.4773047939    0.4273441678   -2.1807066628
 H    2.8565323046   -0.0199027006   -0.4893206224