19

 C   -0.1141905261   -1.2277317563   -0.1341659092
 C   -0.0413468987   -0.0301721507   -0.0418097429
 C    0.0185989546    1.4144052598    0.0424989574
 C    0.0989804418    2.1157706792    1.4506347833
 C    1.5713162635    1.6119270993    1.5526522412
 C    1.4156084134    2.1403294313    0.0936853718
 C    0.6600857400    3.3371338173    0.6997224362
 C    0.0173533716    4.5367009585    0.0978059146
 C    1.1106162601    4.6757238611    1.1610873217
 H   -0.1756662540   -2.2847475114   -0.2129477839
 H   -0.6966980962    1.8776695540   -0.6431589442
 H   -0.6712484773    2.0992934250    2.2227190045
 H    2.2320693389    2.1869202554    2.2041775939
 H    1.7101932168    0.5361547388    1.6679324990
 H    2.1641562385    2.1521815046   -0.6995194312
 H    0.2698932352    4.8126529899   -0.9214591776
 H   -0.9986065917    4.7889810039    0.3859174111
 H    0.8120570268    5.0195356331    2.1466995571
 H    2.0803399528    5.0431812972    0.8395480671