21

 C   -0.1478352561    1.5383360854   -0.0325103158
 C    0.0351382795    0.0406282974    0.0596803525
 C    1.3927946580   -0.6175695956   -0.2005482606
 C    2.5524213295    0.1766046219   -0.4771560304
 C    3.5303680829    0.8357204840   -0.7196713049
 C    0.7642937916   -0.6254724066    1.1972136454
 C    1.3764468177    0.1313963098    2.3317862268
 C    0.6835413359    0.1636927448    3.6737925131
 C    1.9610522796   -0.6195525029    3.5033084404
 H    0.7542460929    2.0790804639    0.2608835327
 H   -0.3859624302    1.8342033435   -1.0595585763
 H   -0.9689557105    1.8695761263    0.6121264967
 H   -0.8017750744   -0.5279279983   -0.3383090752
 H    1.3665816064   -1.5632241031   -0.7346136924
 H    4.3954492171    1.4115644938   -0.9361415607
 H    0.3695151522   -1.5953185263    1.4926147763
 H    1.9071313637    1.0328525188    2.0468822191
 H    0.7117715478    1.0844858044    4.2460558887
 H   -0.2415769871   -0.3938438850    3.7788433837
 H    1.8938211925   -1.7027092807    3.4941210805
 H    2.8684334610   -0.2370757555    3.9570784005