21

 C   -0.3860770636    1.0820651284   -0.6845914716
 C    0.3652460382    0.0731358395    0.1886130557
 N    1.3452093449   -0.7246599998   -0.5374622306
 C    0.9212805095   -1.8202251657   -1.2680452256
 O   -0.2082520039   -2.2703967183   -1.2064534969
 N    1.9127913563   -2.3658681888   -2.0751951863
 C    1.6752647272   -3.6283895471   -2.7129427524
 C    0.9513330955   -3.6394600421   -4.0294367776
 C    2.4343034287   -3.9128192752   -3.9818001720
 H    0.3030405623    1.7911746550   -1.1571827145
 H   -0.9399542915    0.5607017218   -1.4695991753
 H   -1.0983075099    1.6567097492   -0.0832191800
 H    0.8861507868    0.5840282327    1.0058798544
 H   -0.3412943418   -0.6311028207    0.6325608467
 H    2.1468173083   -0.2264292308   -0.8946927712
 H    2.8640102599   -2.2026399339   -1.7773693106
 H    1.4822477456   -4.4658847226   -2.0458375515
 H    0.2737232980   -4.4621347954   -4.2245925893
 H    0.6293192421   -2.6811665734   -4.4179249034
 H    3.0980974085   -3.1377842698   -4.3492574667
 H    2.7872654389   -4.9244200332   -4.1464345711