16

 N   -0.1331736484    1.2564942303   -0.5326718996
 C   -0.0720535217    0.0134565495   -0.2520790435
 N   -1.1745205994   -0.6713087621    0.1820882103
 C   -1.3896986302   -2.0786281146    0.5586479913
 C   -2.8720634391   -1.6934003126    0.7625699183
 C   -4.1077401520   -2.4433818750    0.5463626436
 O   -3.6560803765   -2.0823565898    1.8606592260
 C   -2.5148710428   -0.2690842087    0.3929267847
 N   -3.1565580358    0.8075268366    0.2975377051
 H    0.7750617759    1.5987752746   -0.8374305931
 H    0.8208392966   -0.6199380504   -0.3196336011
 H   -1.1841179492   -2.7956144213   -0.2421523439
 H   -0.8794799488   -2.3789215209    1.4790146021
 H   -4.9902765062   -1.9118395829    0.1969355076
 H   -4.0584065560   -3.5053568330    0.3110264977
 H   -2.5381289863    1.5651315004    0.0014971143