14

 O   -0.1609650750    0.0188719252    0.0089935885
 C   -0.0678046238    1.2045738798    0.0124866058
 O   -1.1772989219    2.0538338811    0.0305462971
 C   -0.6565211737    3.3247408628    0.0286343341
 N    0.6031978177    3.4682967813    0.0126829548
 C    1.1445416005    2.1192709474    0.0001209012
 C    2.2756171832    1.8004779362    1.0157216308
 O    3.2279998758    1.5535306587   -0.0296652392
 C    2.2483617441    1.8087341445   -1.0475216324
 H   -1.3963429800    4.1156235363    0.0416381499
 H    2.5451227944    2.6560045875    1.6429236766
 H    2.0923498980    0.9119782210    1.6301117301
 H    2.0488361279    0.9251580979   -1.6639441421
 H    2.5012976928    2.6692790703   -1.6747593952