18

 O    0.0252163566    1.5109201880   -0.1857847237
 C    0.0370373305    0.1027243360   -0.0250189400
 C   -1.3752134711   -0.5023388926    0.1134368676
 C   -2.2603693221   -0.2569529616   -1.1267857833
 C   -1.5170879996   -0.3751847688   -2.4532600905
 N   -0.6637837197    0.7609806316   -2.8068774850
 C   -0.0226941740   -0.5442786012   -2.4968865987
 C    0.7261095438   -0.6065483077   -1.1987923869
 O    1.7494912978   -1.2416991514   -1.0902728498
 H   -0.2583555807    1.6873416054   -1.0985651220
 H    0.6241160857   -0.1124156933    0.8720513138
 H   -1.2671284757   -1.5818874679    0.2811543696
 H   -1.8555864252   -0.0853311194    1.0039700098
 H   -3.0944548236   -0.9653843681   -1.1203437433
 H   -2.7004462444    0.7446659602   -1.0785939948
 H   -2.0640883939   -0.8407522779   -3.2694643263
 H   -0.6486090412    0.9272882665   -3.8086660687
 H    0.4257413970   -1.1081546878   -3.3091661378