15

 N   -0.0382274564   -1.1392791574   -0.0212132352
 C    0.0069357692    0.0144565471   -0.0116195164
 C   -0.0002194508    1.4798555242    0.0292465645
 C   -0.7225912585    1.9973894861    1.2888231283
 O   -0.6648677755    3.4069283885    1.3189682493
 C    0.6799440785    3.8695621152    1.3070964302
 C    1.3988247506    3.3591239524    0.0654120274
 O    1.3427219922    1.9357056400    0.0062090824
 H   -0.5414788427    1.8520383116   -0.8567442089
 H   -1.7777117197    1.7132286713    1.2730637024
 H   -0.2431977983    1.5590763711    2.1775405575
 H    0.6377867703    4.9621894335    1.3155861920
 H    1.2076656859    3.5259745997    2.2106397680
 H    0.9373056487    3.7914798090   -0.8362472382
 H    2.4596309966    3.6222266075    0.0811839267