15

 C   -0.1370985602    1.4278343897   -0.1205256249
 C    1.2584277930    0.9656771775    0.1123527902
 C    0.1351782049   -0.0638345505    0.0438764090
 C   -0.2958004386   -0.7487620979    1.2676635820
 N   -0.7019696525   -2.0200996557    1.1791384169
 C   -1.0678300085   -2.5367643919    2.3439532158
 N   -1.0561896958   -1.9083897278    3.5231764321
 N   -0.6414918891   -0.6495857325    3.5350386164
 N   -0.2606843733   -0.0577031448    2.4273185933
 H   -0.6486801079    1.9137403487    0.7016530047
 H   -0.4257901340    1.7563011310   -1.1121547093
 H    1.9595210817    0.9663368780   -0.7141024497
 H    1.6880139632    1.1398851749    1.0915902367
 H    0.0756594138   -0.6882479861   -0.8385401830
 H   -1.4107197367   -3.5685890325    2.3574681899