21

 C   -0.1817446449    1.5480299572   -0.0315686371
 C    0.0137162799    0.0364402102    0.0140285296
 C    1.1872978042   -0.5976610794   -0.8314539382
 C    2.1349811757   -0.2071721995    0.3527208633
 C    0.8659949270   -0.5985278118    1.1905401618
 C    0.6800326009   -0.2095625957    2.6332931822
 O    1.6755482433   -0.8788936600    3.3988393375
 C    0.7546664834   -2.0831298072    0.8050587610
 C    0.9640010065   -2.0815970225   -0.5141616066
 H    0.7421194606    2.1149361475    0.1101605444
 H   -0.6028701647    1.8418333961   -0.9997489223
 H   -0.8908494084    1.8706495430    0.7394589442
 H   -0.9503839671   -0.4594427264   -0.1372605340
 H    1.3823696087   -0.3009326876   -1.8623781600
 H    3.0266553324   -0.8187546662    0.4982394007
 H    2.3893458550    0.8550636631    0.3987539770
 H    0.7638061204    0.8833390022    2.7424674873
 H   -0.3334203594   -0.4941238993    2.9641317306
 H    1.5618038271   -0.6310232384    4.3210490349
 H    0.5567688304   -2.8963979704    1.4884250355
 H    0.9746329390   -2.9001300750   -1.2200208915