18

 C    0.0881126453    1.5306368912   -0.0614839359
 C   -0.0259884395    0.0315427185   -0.0282988103
 C   -1.1952650379   -0.6643767777    0.0493461373
 C   -2.5433103105    0.0067892854    0.1243607507
 C   -1.1900945154   -2.1433596418    0.0585998084
 O   -2.2237802082   -2.8078305575    0.1296494074
 C    0.1325722232   -2.7540286140   -0.0241253579
 C    1.2517519964   -2.0012168912   -0.1000742909
 N    1.1782163939   -0.6373321359   -0.1020500487
 H    0.8649035005    1.8819337871    0.6281138570
 H    0.3535877477    1.8853887930   -1.0652331963
 H   -0.8513135128    2.0033424271    0.2213925781
 H   -2.7421462972    0.6411839711   -0.7464850077
 H   -3.3035403722   -0.7751567550    0.1635198873
 H   -2.6472386741    0.6321957544    1.0186484454
 H    0.1928039154   -3.8349696288   -0.0222937982
 H    2.2511090835   -2.4162233826   -0.1609907900
 H    2.0263051419   -0.0980222335   -0.1533506960