21

 C    0.0269039641    1.4742040969    0.0036059292
 C    0.0230028275   -0.0372751672   -0.0042466484
 C   -0.8325921920   -0.8003614843    0.9780708292
 C    0.6707833123   -0.9415054069    1.0478593471
 C    1.3872168311   -1.9658105117    0.1433922536
 C    0.3615393943   -2.2692004480   -0.9799808335
 C    0.5115486124   -0.7572779790   -1.2844264064
 C    2.0314879177   -1.0005617779   -0.9181760101
 O    2.8799803261    0.0382516694   -0.5269774738
 H    0.9485719643    1.8790699761   -0.4286537937
 H   -0.8070723121    1.8702344125   -0.5883994860
 H   -0.0783514930    1.8699234397    1.0195572619
 H   -1.2716747414   -0.1925730156    1.7643877971
 H   -1.4674399479   -1.6262761701    0.6815392773
 H    1.1919467567   -0.5536770947    1.9179926798
 H    1.9590927901   -2.7558047045    0.6308543546
 H    0.7963769340   -2.8889239606   -1.7668239702
 H   -0.6173114520   -2.6654613400   -0.7172349127
 H    0.2093194469   -0.3279224717   -2.2405367636
 H    2.5583128267   -1.5393072084   -1.7098010374
 H    2.4953641342    0.4575827459    0.2499436460