21

 C   -0.1506980088    1.3453114502    0.1247360721
 O    0.1406055958   -0.0201077466   -0.0443767634
 C    0.6038964217   -0.6309539384    1.1408748672
 C    0.8469520341   -2.1086518719    0.8570838461
 C    1.3836276554   -2.8440685856    2.0701704560
 O    0.4877440753   -2.8121395485    3.2280958605
 C    0.6046586627   -4.2299505444    3.3694875455
 C    0.0188994361   -4.9343663448    2.1896823412
 C    1.4266559821   -4.3727308850    2.1111406198
 H    0.7394723628    1.9206333495    0.4270414568
 H   -0.5063242734    1.7269281277   -0.8356845212
 H   -0.9332517151    1.5066321607    0.8833904471
 H    1.5354313667   -0.1459773292    1.4838945462
 H   -0.1348515167   -0.5216433819    1.9506698550
 H   -0.0881938016   -2.5639996451    0.5169322290
 H    1.5725129092   -2.2029356937    0.0395796972
 H    2.3516571666   -2.4219845588    2.3742503140
 H    0.7112959627   -4.6340945087    4.3692850983
 H   -0.0183082785   -6.0171006968    2.2622064474
 H   -0.8059309399   -4.4815498970    1.6477190445
 H    2.2935057028   -4.9831532218    1.8985495608