21

 C   -0.3597472147    1.5392251701   -0.1259521030
 C   -0.0142845771    0.0558672433   -0.0650067091
 C    1.2455933041   -0.5752389798   -0.7462156692
 C    2.1067409608   -0.0886209742    0.4642583566
 O    2.4220689209    1.2673649676    0.6631435540
 C    0.7975496270   -0.6104348202    1.1144058212
 C    0.4460349351   -0.6389089894    2.5764224044
 C    0.9985041914   -1.8337670341    0.1473381677
 O   -0.0249099616   -2.7496962028   -0.1100988201
 H   -0.7502588591    1.7886150796   -1.1198498480
 H   -1.1543685621    1.7665146234    0.5947404810
 H    0.4913097286    2.1813207449    0.0863014871
 H   -0.9413564534   -0.4887409482   -0.2939153844
 H    1.5141359614   -0.5581128555   -1.8041606930
 H    2.9911735377   -0.7113958748    0.6661715899
 H    3.1713870516    1.4832788664    0.0994350482
 H    0.3600670481    0.3743177937    2.9828067603
 H   -0.5083108418   -1.1523028400    2.7371673583
 H    1.2113764951   -1.1685252578    3.1545109236
 H    1.8837200755   -2.4417811191    0.3537221299
 H   -0.8284404473   -2.2768018130   -0.3489702952