16

 C   -0.0839812504    1.5804814142    0.0223298282
 C    0.0087413130    0.0446796095    0.0146108437
 C    0.8075706633   -0.5235862103   -1.1582797250
 C    1.8537640202   -1.2784611351   -0.7699361022
 C    1.8819754835   -1.3179364763    0.6859227350
 C    2.4751665737   -1.7544654645    1.8232727789
 O    1.8010133425   -1.2747553319    2.8970498525
 N    0.7156100629   -0.4901046872    2.4643578525
 C    0.7894667413   -0.5365744621    1.1665916065
 H    0.9133865604    2.0287189154    0.0382182545
 H   -0.6075329147    1.9387556960   -0.8691211291
 H   -0.6291285667    1.9255800722    0.9047564746
 H   -1.0102673000   -0.3658309489    0.0028640459
 H    0.5357550915   -0.3124185412   -2.1856809304
 H    2.5552387681   -1.7753573207   -1.4268861797
 H    3.3268914514   -2.3736154391    2.0558326042