19

 C   -0.0598927337    1.4863702001    0.0525806881
 C    1.3106611953    0.8366780967    0.0275926823
 C    2.2315310409    0.3635910993    1.1327395560
 O    2.3254469790   -1.0786451209    1.1051617261
 C    1.0713301296   -1.7872249228    0.9578762097
 C   -0.0862821919   -0.8360472588    1.2794831028
 C    0.0297634270   -0.0021488844   -0.0002555720
 C    0.0982971241   -1.0665558364   -1.0618375008
 C    0.7440480749   -2.1059151519   -0.5195710845
 H   -0.4480243743    1.9142640414    0.9730948693
 H   -0.3236774047    2.0519633172   -0.8357455311
 H    1.7968494610    0.9060599849   -0.9413839474
 H    3.2586143652    0.7097249112    0.9893419258
 H    1.9074530748    0.7129817815    2.1224500723
 H    1.1508527719   -2.6716432168    1.5943465917
 H   -1.0395380716   -1.3694333142    1.3135231136
 H    0.0383596675   -0.2795575160    2.2103711161
 H   -0.2208863045   -0.9508416412   -2.0905357396
 H    1.0477632197   -3.0154213788   -1.0215148384