15

 O    0.2476092938    1.0890962712   -0.7562011130
 C   -0.0147775635    0.0355068496    0.1826219346
 C   -1.4317485750   -0.4885302080    0.1014293049
 N   -2.0025495602   -0.8903711853    1.2395823171
 C   -3.2303658484   -1.4000607946    1.1572862287
 N   -3.9559210272   -1.5441400051    0.0470412572
 C   -3.3920199160   -1.1301713684   -1.0852667913
 C   -2.1091099229   -0.5800083979   -1.1247011391
 O   -1.5865193698   -0.1864739019   -2.3057966620
 H   -0.2316397693    1.8731144505   -0.4649081997
 H    0.6951837219   -0.7581094459   -0.0771544287
 H    0.1935383502    0.3457065635    1.2116692651
 H   -3.6862306365   -1.7280802376    2.0871754660
 H   -3.9593190273   -1.2327860407   -2.0074347531
 H   -0.7837590697    0.3321035803   -2.1116799267