18

 C    0.1194749673    1.6003580482    0.0346696923
 C    0.0968764764    0.0811349571    0.0194989920
 C    1.0969762949   -0.6669520112   -0.9013184426
 C    1.3042015451   -1.7418072102    0.2359313356
 C    0.6913372510   -0.6822400637    1.2326120680
 C    0.4576748587   -2.9152702235    0.0666273397
 C   -0.2659133872   -3.8630702830   -0.0776544696
 C    2.6905142886   -2.1259765813    0.4967083026
 N    3.7974506464   -2.3852317279    0.7052751165
 H    1.1296223513    1.9779190413    0.2293550857
 H   -0.2121412301    2.0103873606   -0.9253954971
 H   -0.5422870971    1.9979481918    0.8117221310
 H   -0.9180207403   -0.2789842885   -0.1759868165
 H    0.7430786781   -1.0536854753   -1.8571852914
 H    2.0176352079   -0.0979548802   -1.0528289817
 H    1.4906834206   -0.1178358747    1.7192428774
 H    0.0123815896   -1.0812567586    1.9864629661
 H   -0.8937705711   -4.7106836211   -0.2029645679