11

 O    0.0200364904    1.2782925248    0.0074550795
 C   -0.0416008564   -0.0393004658    0.0007047495
 N   -1.1148076582   -0.7362681796    0.0024112289
 N   -0.6173700477   -2.0448662193   -0.0069993993
 C   -1.4384335619   -3.1795941765   -0.0087820988
 O   -2.6346730566   -3.1431399199   -0.0023419335
 C    0.7694456246   -2.0820068765   -0.0144385294
 O    1.5376055063   -2.9917560288   -0.0228756701
 O    1.1325919655   -0.7276908434   -0.0088362523
 H    0.9461039194    1.5528170745    0.0044344246
 H   -0.8170633253   -4.0894544995   -0.0166565291