20

 C   -0.1377268839    1.5450305059    0.1874738345
 C    0.0604044131    0.0649914114   -0.0350463786
 C   -0.8833274739   -0.9242514246    0.6048157823
 C    0.5685703982   -0.8686130253    1.0413522691
 C    1.5189721090   -1.8755204971    0.4129206281
 O    1.4727771919   -3.1806904599    0.9676586388
 C    1.1965975528   -1.8189196019   -1.1018345819
 C    0.6904702316   -0.3854226789   -1.3558101427
 H    0.8062025990    2.0923747225    0.0788330536
 H   -0.8467930308    1.9629868576   -0.5372711077
 H   -0.5299909516    1.7503628176    1.1886093569
 H   -1.6135585315   -0.5269016588    1.3018737842
 H   -1.2479735081   -1.7716149366    0.0310792087
 H    0.7875615433   -0.5110685744    2.0419865120
 H    2.5496046585   -1.5427897276    0.5848852186
 H    0.5463705773   -3.4450705614    0.9948280732
 H    2.0594327260   -2.0861736255   -1.7161527895
 H    0.4163998177   -2.5563922326   -1.3228285225
 H   -0.0046522221   -0.3244385516   -2.2013997515
 H    1.5315107235    0.2802980311   -1.5878760957