23

 C    0.0655423196    1.2931600634    0.3164000201
 O   -0.0548253868    0.0045375224   -0.2545383351
 C   -1.3280768094   -0.5472012130   -0.1387336665
 C   -1.7446790342   -1.1566415943    1.1789911115
 C   -1.4700599563   -2.0377024479   -0.0315298264
 C   -2.6528651697   -2.4822834224   -0.8851911147
 C   -3.4778359165   -3.6323964729   -0.3054034766
 C   -3.4632493099   -1.1776732861   -1.1011518342
 C   -2.4303723136   -0.0312444602   -1.0593207431
 H    1.1122088687    1.5903515534    0.2157097536
 H   -0.5617594875    2.0342877199   -0.1991935738
 H   -0.2061012537    1.2904344545    1.3818079700
 H   -0.9841774400   -1.1757288148    1.9519370444
 H   -2.7573458327   -1.0303815051    1.5491823999
 H   -0.5819223737   -2.6591248807    0.0050310285
 H   -2.2471507389   -2.8013979967   -1.8555315533
 H   -3.8661441801   -3.3737895386    0.6860886460
 H   -4.3321436033   -3.8704014833   -0.9487563144
 H   -2.8766797708   -4.5416411094   -0.2002713946
 H   -4.0339697340   -1.1948218441   -2.0337312462
 H   -4.1926568322   -1.0598082937   -0.2915173509
 H   -2.8735778907    0.9166823461   -0.7354969295
 H   -1.9863534944    0.1334733031   -2.0485251446