18

 C   -0.1319846282    1.5150564550   -0.0834516527
 C    0.0335793692    0.0178271033   -0.0219705020
 O   -1.1001745075   -0.6350621169   -0.4939134017
 C    1.3904080065   -0.5995852929   -0.2332778325
 C    0.7660697649   -0.6225401384    1.1451324396
 C    1.2157725288   -0.1494890705    2.5232091731
 O    0.6252389534   -1.3711753010    3.0987709102
 C    0.2239757989   -1.7997513156    1.8531924818
 N   -0.4418854923   -2.7994635375    1.4746294253
 H    0.7661458190    2.0303148207    0.2680189496
 H   -0.3243191915    1.8236520358   -1.1156990122
 H   -0.9828632454    1.8310011821    0.5276179325
 H   -1.1342446245   -1.5286552689   -0.1121906781
 H    1.4467987687   -1.5505186447   -0.7535395615
 H    2.2407238381    0.0598551511   -0.3780506361
 H    2.2932021688   -0.1192533392    2.7041361615
 H    0.7273450011    0.7393827579    2.9298050393
 H   -0.7278860981   -3.4026736904    2.2450440841