18

 C   -0.2343537534    1.3830096457   -0.0688346453
 N    0.0366904847   -0.0439319230   -0.0870784870
 C    0.5163418748   -0.5625824033    0.9751809235
 C    0.8729542959   -2.0318064612    0.9824886945
 O    0.5361189361   -2.6800235349    2.2198276335
 C    0.9163784829   -2.0702751658    3.3729944519
 N    0.8055325367   -2.6114580874    4.5099332672
 C    1.4818085324   -0.6733531938    3.2236964371
 N    0.7747122329    0.0458396912    2.1772018565
 H    0.6600269117    1.9854804315    0.1647896659
 H   -0.5912174402    1.6983000823   -1.0521954471
 H   -1.0107982869    1.6501387344    0.6659159975
 H    0.3137297409   -2.5392266881    0.1991642591
 H    1.9471652569   -2.1616374721    0.7880215512
 H    0.4371026076   -3.5603017803    4.4152273878
 H    1.3629438545   -0.1622950722    4.1784759826
 H    2.5630234016   -0.7447286524    3.0198544491
 H    0.6993460709    1.0463264395    2.2473819120