16

 N    0.0585156378    0.9792042428   -0.7984019709
 C   -0.0177263301   -0.1813898132   -0.2930152568
 C   -1.0715231279   -0.6722349528    0.6996448526
 N   -0.6841819241   -2.0368191062    1.0819787580
 C    0.3552844816   -2.3081547521    0.3896410762
 N    0.7900419227   -1.3093083460   -0.4770971470
 C    1.0876542476   -3.5937204099    0.4333078777
 C    1.4438057297   -4.3075787212   -0.8065703171
 O    2.4226141103   -3.5582418785   -0.0884914747
 H    0.8473849688    1.0655564827   -1.4410952187
 H   -1.1246789099   -0.0207543441    1.5777183089
 H   -2.0675429969   -0.6703654838    0.2422856311
 H    1.7120372577   -1.3087461550   -0.8841892282
 H    0.9465342502   -4.1630764683    1.3480918684
 H    1.5641899750   -5.3885820240   -0.7741981211
 H    1.1461727075   -3.8925157706   -1.7674120482