18

 O    0.3779696122    0.7697646396    0.8671735790
 C   -0.0620764012    0.3148156932   -0.4152212981
 C   -1.4391193339   -0.2560692347   -0.4267197122
 C   -2.6918725269    0.3524279459   -0.4305521330
 C   -3.7220327889   -0.6359071098   -0.3694214968
 C   -3.0519313625   -1.8380384805   -0.3061168545
 C   -2.8696087634   -3.3466046794   -0.3607190733
 C   -1.3284469652   -3.0187546675   -0.4363101396
 N   -1.7136349499   -1.6000153168   -0.3238789050
 H    0.1002993988    0.1121346928    1.5125675054
 H   -0.0171498452    1.1943142289   -1.0644139203
 H    0.6436313379   -0.4265610842   -0.8243323945
 H   -2.8461350606    1.4217435927   -0.4596350958
 H   -4.7860158039   -0.4599002512   -0.3750370206
 H   -3.1720284454   -3.9068118591    0.5281357297
 H   -3.2658221733   -3.8483599669   -1.2473667585
 H   -0.7159720253   -3.3840112578    0.3928968648
 H   -0.8499107232   -3.2715313753   -1.3865655667