21

 C    0.0454994176    1.7384122677   -0.1690423403
 C    0.3886894814    0.2691672434    0.1060917838
 C    0.6716770985   -0.5049560425   -1.1807010601
 C    0.9878176981   -2.0448130033   -1.2009125023
 C    0.4999032310   -2.8187468637    0.0119282592
 O    0.6710095844   -4.1994460025   -0.2716454324
 C    0.0550721306   -2.2189831437   -2.4393370279
 C   -0.4854668247   -0.8113985054   -2.1505572940
 O   -1.4840923217   -0.2224304318   -2.4555537146
 H    0.8803456569    2.2519407176   -0.6591636198
 H   -0.8258420237    1.8124581485   -0.8246420504
 H   -0.1741385724    2.2712618672    0.7610743450
 H    1.2635407612    0.2059244993    0.7655142238
 H   -0.4415318417   -0.2014813630    0.6459071265
 H    1.4514831599    0.0165214414   -1.7534320310
 H    2.0364835114   -2.2912975418   -1.3787340759
 H    1.0703807763   -2.5199795500    0.9050761493
 H   -0.5599652181   -2.5842126540    0.2071590859
 H    0.3441889613   -4.7047471778    0.4784931185
 H    0.5928129852   -2.2587972878   -3.3918256650
 H   -0.6641544116   -3.0406581880   -2.4105137085