17

 C    0.8946099559    1.4399848988   -0.1645667390
 O    0.9892983669    0.0118597514   -0.2754476684
 C   -0.0017607320   -0.5790093114   -0.9584887586
 O   -0.9386517139    0.0033839559   -1.4404931957
 C    0.2022609651   -2.0964051496   -1.0195869196
 C   -1.0070102211   -2.7853948191   -1.6973640869
 O   -0.8745613156   -4.1883358564   -1.6918479556
 C    1.4416000863   -2.4435862509   -1.7091925845
 C    2.4174634890   -2.7782887889   -2.3268512697
 H    0.8946232274    1.9014104873   -1.1549376848
 H   -0.0220010697    1.7245952707    0.3578171171
 H    1.7714526314    1.7500340045    0.4030259055
 H    0.2687239735   -2.4561560240    0.0156938374
 H   -1.9122737506   -2.5481991988   -1.1340997409
 H   -1.1267060510   -2.3778112307   -2.7095333042
 H   -0.0710783848   -4.4031466607   -2.1805052803
 H    3.3002653529   -3.0515502180   -2.8506405416