18

 C   -0.1035620342    1.5779123072    0.0343479936
 C    0.0038802198    0.0540077071   -0.0165541150
 C   -1.3760574355   -0.6289011036   -0.0895323003
 O   -2.0442639529   -0.3649467792   -1.3157325785
 N    0.8334877874   -0.4127853463   -1.1323171731
 C    1.7850049386   -1.2646293108   -0.6472567937
 C    1.8383833535   -1.3160014513    0.7115422530
 C    0.7614955610   -0.4898161597    1.2290798842
 O    0.4379853858   -0.2241678909    2.3714847648
 H    0.8875864892    2.0344998451   -0.0226189187
 H   -0.6981638720    1.9692674284   -0.7983384786
 H   -0.5652670259    1.8718510818    0.9811984530
 H   -1.2428195180   -1.7144013887   -0.0483147656
 H   -1.9682475109   -0.3273097283    0.7836820090
 H   -2.4098642663    0.5239225781   -1.2753737734
 H    0.3755316123   -0.5966242300   -2.0135172306
 H    2.4172430085   -1.7967837662   -1.3488157437
 H    2.5576890896   -1.8531962227    1.3093672136