12

 N    0.0695018149    1.3089243243   -0.1347967829
 C   -0.0187239778   -0.0194124720   -0.0179482451
 C   -1.1715291919   -0.7398869161    0.1202109911
 N   -1.1175334873   -2.1045484589    0.2304573850
 N   -0.1579544158   -2.8279218005    0.2259035012
 O    1.2686767644   -2.0517875639    0.0645981226
 C    1.2925593543   -0.7340787692   -0.0470368173
 N    2.3415693319   -0.0133647400   -0.1782311004
 H    1.0032291563    1.6857713054   -0.2294549080
 H   -0.7384157310    1.9059242549   -0.1299665755
 H   -2.1606391347   -0.3054472443    0.1508871668
 H    3.1819714868   -0.5900101197   -0.1869815975