20

 C    0.0945840106    1.5255086948   -0.1604967690
 O   -0.2654807901    0.1648788925   -0.2805925751
 C    0.6048565417   -0.5893007487   -1.0888016431
 C    1.9487462238   -0.9887586514   -0.4513279306
 O    2.3674848465   -2.1139879076   -1.2036086480
 C    1.2118804324   -2.9123663603   -1.4662208076
 C    0.0155319435   -1.9617406548   -1.4122548415
 C   -1.3268466493   -2.3585592892   -0.9329508721
 N   -1.0778973339   -2.1302677405   -2.3725697484
 H    1.0482941601    1.6582619120    0.3699932492
 H    0.1763152713    2.0105491730   -1.1452854247
 H   -0.6949339591    2.0172569596    0.4124096482
 H    0.8048477717   -0.0476172828   -2.0295706902
 H    2.7305022103   -0.2290343203   -0.5256858868
 H    1.7848007207   -1.2327248312    0.6121446430
 H    1.3259572756   -3.3717316628   -2.4516459483
 H    1.1204812355   -3.7101538610   -0.7139740588
 H   -1.5129397650   -3.3954646532   -0.6640623030
 H   -1.9006986633   -1.6222103181   -0.3809816336
 H   -1.4460128329   -1.2166188901   -2.6329317097