20

 C   -0.0312523958    1.6447520087   -0.0277412282
 C   -0.0025587044    0.1103658637    0.0176068701
 C    0.7026102024   -0.5282439247   -1.1508408421
 C    1.7478482229   -1.2543279648   -0.7688425693
 C    1.9350735523   -1.2306216581    0.7281474620
 C    3.2830880633   -0.6361336681    1.1642891880
 N    0.7771518415   -0.4228476370    1.1493242329
 C    0.2945592584   -0.3974762500    2.4149028343
 O   -0.7294401783    0.1614919975    2.7597801333
 H    0.9816066821    2.0507011216   -0.1077966913
 H   -0.6095980169    1.9853161237   -0.8929856807
 H   -0.5020733089    2.0291355474    0.8790494951
 H   -1.0389239646   -0.2435219841    0.1090541854
 H    0.3703689011   -0.3731502055   -2.1700246960
 H    2.4242070981   -1.7993042301   -1.4157466610
 H    1.8537509252   -2.2453324655    1.1462791875
 H    3.4040484258    0.3751962354    0.7661888220
 H    3.3559321999   -0.5905691608    2.2550006711
 H    4.1079833334   -1.2560415954    0.7975016358
 H    0.9430440926   -0.9507411340    3.1242525611