15

 N    0.2300370974    1.4241283007    0.2303076363
 C    0.0711153609    0.0453485391    0.0867568758
 C   -1.0312123258   -0.7441611616    0.2305483397
 O   -0.7002036366   -2.0660156193    0.0777735908
 C    0.6273059610   -2.1271745771   -0.1755854419
 C    1.1468029807   -0.8689808903   -0.1751984600
 O    2.4254166389   -0.4445960851   -0.4245935937
 C    3.4396481435   -1.0568237102    0.2468202136
 N    4.6298561877   -0.8027552697   -0.0716202714
 H    1.0504758405    1.7639868368   -0.2546160062
 H   -0.5832917830    1.9608401749   -0.0377492282
 H   -2.0666252575   -0.5385294343    0.4400124760
 H    1.0488724181   -3.1021455410   -0.3505506427
 H    3.0751033550   -1.7289875514    1.0325365235
 H    5.2690621691   -1.3135581514    0.5337463184