17

 C    0.0312612080    1.4539255457    0.0040800537
 N    0.0551678330    0.0042073821   -0.0099577826
 C   -1.0702993764   -0.5968543948   -0.0989994835
 N   -2.3229220651   -0.0593805788   -0.2126953784
 C   -1.0851681755   -2.1098588603   -0.1137482004
 O   -2.1475633682   -2.7082775665   -0.1262466613
 C    0.1860269792   -2.7803437857   -0.1042699535
 C    1.2121159297   -3.4151039846   -0.1055910259
 C    2.4600599175   -4.1556638889   -0.1029382318
 H    1.0531546771    1.8388735738    0.0340421528
 H   -0.4656023969    1.8682820552   -0.8874594943
 H   -0.4983671855    1.8515790713    0.8859556874
 H   -2.4835407005    0.8896477938    0.0772860324
 H   -3.0816230652   -0.7168249317   -0.1049951871
 H    2.3025720430   -5.2111693147   -0.3474488465
 H    3.1646333220   -3.7351858657   -0.8285205715
 H    2.9332264438   -4.1041545802    0.8840641605