18

 C   -0.1425639172    1.6021243129    0.0748039154
 C   -0.0209393165    0.1126980426   -0.0031505075
 C    0.0542279386   -0.7017409917   -1.1194597478
 C    0.0902263834   -0.3991670508   -2.5817971041
 O   -0.3957637958   -1.5425310083   -3.2772380284
 N    0.1430451272   -1.9747567390   -0.6720421944
 N    0.1135295722   -2.0665641112    0.6805465925
 C    0.0226003867   -0.8033285195    1.0834750044
 N   -0.0977520061   -0.4811009470    2.4399901215
 H    0.8151319991    2.0982425119    0.2836549508
 H   -0.5221236410    2.0253609022   -0.8609240045
 H   -0.8353273322    1.8917658763    0.8727916711
 H   -0.5206085731    0.4930363663   -2.7884193653
 H    1.1195430173   -0.1636245634   -2.8985848670
 H   -0.1960440885   -1.4329505373   -4.2112030049
 H    0.0964981023   -2.8018541994   -1.2408238230
 H    0.0792047775   -1.2931311323    3.0188618369
 H    0.5098266662    0.2781050077    2.7212480746