14

 N   -0.0358225570    1.4113074461    0.1147271007
 C   -0.0197256609    0.0222243907    0.0341815220
 C   -1.1723801504   -0.7085967921   -0.0121840035
 N   -2.4394185788   -0.1472622605   -0.0411018494
 C   -1.0980930193   -2.1558221594   -0.0886022071
 O   -2.0630243233   -2.8834577015   -0.1510082033
 O    0.1585742660   -2.7229036779   -0.0885284812
 N    1.3345943375   -1.9939896679   -0.0022595736
 C    1.2096268183   -0.7093620144    0.0497009347
 H    0.8439423924    1.8583910078   -0.1023666444
 H   -0.7975229398    1.8344671774   -0.4022858285
 H   -2.5813932810    0.6121622387    0.6131534168
 H   -3.1545261809   -0.8620625653    0.0330917185
 H    2.1586030471   -0.1813485117    0.1093321983