20

 C    0.1774716076    1.4030499843   -0.0675977145
 N    0.0650365083   -0.0466864497    0.0090133939
 C    0.6545575763   -0.5709013754    1.2303791491
 C   -1.3114175664   -0.5090878800   -0.1413420749
 C   -1.8922080666   -0.1874728431   -1.4406174280
 C   -2.3827914198    0.0890586662   -2.5087607846
 C   -2.9640541384    0.4257883479   -3.7944796786
 C   -4.2478005293   -0.3021465610   -4.1394699676
 O   -2.4466305407    1.2368753199   -4.5330101558
 H    1.2329094253    1.6867507003   -0.0247117747
 H   -0.2348191352    1.7579643614   -1.0150444738
 H   -0.3503587736    1.9202909976    0.7571706477
 H    0.1474307944   -0.2167936929    2.1492247713
 H    0.6188027929   -1.6652061362    1.2240977507
 H    1.7033742175   -0.2660379641    1.2878267826
 H   -1.3216226741   -1.5988515207   -0.0114309104
 H   -1.9827428979   -0.1026931365    0.6453420700
 H   -5.0088026650   -0.1069665714   -3.3762027517
 H   -4.6035048490    0.0283573879   -5.1163884758
 H   -4.0750222164   -1.3838111846   -4.1491280549