24

 C    0.1750033397    1.5731987758    0.1024374118
 C    0.2506853185    0.0622285113   -0.0460991894
 O    0.6911379904   -0.4804696736    1.1835489233
 C    0.6420595220   -1.8967352610    1.2842478059
 C    1.7079799241   -2.5809058640    0.4188644411
 C    0.7782052764   -2.2327544888    2.7647342294
 C    2.0577108390   -1.7871649864    3.4403457406
 C   -0.4775534793   -2.3089670461    3.5507264705
 N    0.2619473926   -3.5417974585    3.2074778473
 H    1.1573747956    1.9815266448    0.3564803614
 H   -0.1602229856    2.0327022118   -0.8322965491
 H   -0.5244168201    1.8463015976    0.8975007275
 H   -0.7388834380   -0.3505696402   -0.3069499789
 H    0.9366343521   -0.2022618182   -0.8656566552
 H   -0.3533318757   -2.2458723341    0.9535972823
 H    2.7014046802   -2.1844189810    0.6453266101
 H    1.7147239720   -3.6594337041    0.6057402753
 H    1.5148798745   -2.4293717290   -0.6465701354
 H    2.1909567796   -0.7082308114    3.3235406310
 H    2.0253547424   -2.0299863158    4.5050433346
 H    2.9313540219   -2.2904944243    3.0136390593
 H   -0.4708791485   -2.0539011767    4.6068830291
 H   -1.4169474498   -2.1041136987    3.0434442891
 H   -0.2068298141   -4.0148102594    2.4369595983