19

 C    0.1955078072    1.2877423418   -0.2956983345
 C    0.0704830219   -0.2001878637   -0.0427914600
 O    1.0435265430   -0.9289243724   -0.0639763468
 C   -1.3370409782   -0.7359035011    0.2241664123
 C   -2.0658962456   -0.8964634516   -1.1009281404
 C   -2.1207130968   -2.1738193541   -1.4809192370
 C   -1.4686031647   -3.0944752802   -0.4827401151
 C   -1.3601641923   -2.1985647655    0.7820123902
 O   -0.3364299036   -2.5315026033    1.6803454481
 H    1.2076067872    1.5291310312   -0.6224074314
 H   -0.5318856748    1.6226560765   -1.0420947143
 H   -0.0260303046    1.8313157085    0.6306772032
 H   -1.8488445838   -0.0306424188    0.8908763614
 H   -2.4537335737   -0.0534312535   -1.6615235348
 H   -2.5741960602   -2.5225164819   -2.4024881009
 H   -2.0388524403   -4.0094510245   -0.2920066223
 H   -0.4709890020   -3.4047734499   -0.8200446538
 H   -2.2950375056   -2.2999517419    1.3446099896
 H    0.4920137769   -2.3230115254    1.2244728065