18

 C   -0.1431646614    1.5407328122    0.0753208193
 C    1.3644115615    1.2386097555    0.0101330686
 N    1.1844300995    0.1564185991    1.0488554566
 C    2.2982150078   -0.7997537391    0.7274687242
 C    2.1258899496   -0.9693812126   -0.7922306656
 O    2.9353855843   -0.4306997225   -1.8966209933
 C    1.7267339511    0.1694580469   -2.4592772850
 C    1.1180409399    0.1067342815   -1.0445930854
 C   -0.0022215993    0.0108859900    0.0210555349
 H   -0.5011400162    1.9623541693    1.0154001009
 H   -0.5951300694    2.0140479102   -0.7976938422
 H    2.2099570237    1.9283629938    0.0573699781
 H    3.2417177401   -0.3332531801    1.0247561876
 H    2.1785963108   -1.7375689646    1.2753279015
 H    1.8122757081   -1.9870928332   -1.0622438505
 H    1.9148210460    1.1562090364   -2.8914157217
 H    1.2675558772   -0.4921230950   -3.2047185254
 H   -0.7613992134   -0.7630111077    0.1448616475