19

 C    0.3908423200    0.6649665103   -0.6525139927
 O   -0.0555457994   -0.5773872691   -0.1517868237
 C   -1.4314840423   -0.5938004038    0.2442914894
 C   -2.3576397475   -0.6716294055   -0.9549962585
 C   -2.6222136893   -1.9442247647   -1.2651040186
 C   -1.9358600143   -2.8900237960   -0.3059021169
 O   -0.6887817795   -3.3803885666   -0.8100389158
 C   -1.6876289950   -1.9713149015    0.9184233346
 O   -0.6816684859   -2.4271333201    1.7714177341
 H    1.4636934137    0.5716742702   -0.8375637464
 H   -0.1072722413    0.9398147153   -1.5934520479
 H    0.2257123041    1.4708830560    0.0777997176
 H   -1.6246485888    0.2580224000    0.9101197132
 H   -2.7133781127    0.1967678596   -1.4980486656
 H   -3.2158770895   -2.2843827282   -2.1060168500
 H   -2.5188754103   -3.7803526243   -0.0579846545
 H   -0.1954055044   -2.5990661464   -1.0992507160
 H   -2.6115136053   -1.8882260979    1.5006179447
 H   -0.0242774622   -2.8461930971    1.1992368931