18

 C    0.0288491972    1.5708945029   -0.1015836583
 O    1.3632399525    1.9280728712    0.3319595846
 C    1.9890562160    0.7498319697    0.5545461178
 N    1.3747803940   -0.3418543739    0.3682214663
 C    0.0143044267    0.0096700269   -0.0840695409
 C   -1.0840427034   -0.5701369786    0.8524189095
 C   -2.1978804895   -0.9381328438   -0.0965698731
 C   -1.7818397628   -0.9562040686   -1.3620382868
 C   -0.3191199617   -0.6033636005   -1.4742403056
 H   -0.6839243790    2.0205202042    0.5951306239
 H   -0.1278193081    1.9963670250   -1.0965946508
 H    3.0157566075    0.8459487302    0.8906975770
 H   -0.6955091775   -1.4549335181    1.3729405646
 H   -1.3812337239    0.1438948710    1.6294197281
 H   -3.1952605882   -1.1950724398    0.2423028658
 H   -2.3858106884   -1.2302317258   -2.2197956815
 H   -0.0913121771    0.0878638933   -2.2941199191
 H    0.2949495955   -1.4979571753   -1.6397301513