17

 O   -0.1488804585    1.3790216545    0.0229815570
 C    0.0681491507   -0.0184045811   -0.0502025890
 C    0.8347490154   -0.3794396988   -1.2638109363
 N    1.4680091347   -0.6462245109   -2.1931158600
 C    0.7438831911   -0.5833353192    1.1986750783
 C   -0.0247726190   -0.4599107549    2.5421640162
 C    0.4559610714   -1.8931860912    2.8998846343
 C    0.7831384358   -2.1245086315    1.3985274332
 H    0.7093436782    1.8136382740    0.0900450717
 H   -0.9316600196   -0.4584206277   -0.1447002486
 H    1.7512394814   -0.1581514119    1.2801955015
 H    0.2532912004    0.3576560396    3.2096955371
 H   -1.1059780290   -0.4182657052    2.3777507162
 H    1.3602828410   -1.8777289980    3.5141490734
 H   -0.2669491313   -2.5654697554    3.3660915687
 H   -0.0427089153   -2.6161520486    0.8739389114
 H    1.7097299925   -2.6420774037    1.1448937049