14

 N    0.0323202043    0.7810621442   -1.0605010025
 C   -0.0360654784    0.0304002537   -0.0547786463
 C   -1.3264566014   -0.6036405022    0.3997283043
 C   -1.0988536820   -2.0285700982    0.8351424535
 O   -0.1237728556   -2.7396020715    0.0814804168
 C    0.2099861917   -2.3638357083    1.4226555989
 C    1.2124884473   -1.2633908283    1.5881609578
 O    2.0912000745   -1.2809969473    2.3986424127
 O    1.0803768532   -0.1856237627    0.7489452613
 H    0.9826626807    1.1343087867   -1.1869585264
 H   -1.7424794852   -0.0302663567    1.2388547690
 H   -2.0349692964   -0.5415648449   -0.4281426211
 H   -1.9670908095   -2.6097485604    1.1398151163
 H    0.3306222066   -3.1766108340    2.1322293758