15

 O    0.2264201348    0.0619642549   -0.6230221767
 C    0.1204312608    1.1401300707   -0.1346444130
 O   -0.9344626105    1.6626367382    0.5558608776
 C   -0.2328169805    2.9403476833    0.7957362858
 C   -0.0011978267    3.2250584697    2.2721853784
 N    1.0683824825    2.4767999189    2.9196715801
 C    2.0413997008    2.0983100831    2.1937434592
 N    2.1847631788    2.2742112315    0.8247478669
 C    0.9907214919    2.4111671392    0.0206073917
 H   -0.7864156991    3.7434824108    0.3043565603
 H    0.2224293327    4.2983672158    2.3662489981
 H   -0.9360167857    3.0558500678    2.8169622129
 H    2.8956838752    1.6113132441    2.6650596224
 H    2.9167228575    1.7256302771    0.3963317856
 H    1.2141494773    2.9080794151   -0.9255791492