18

 O    0.0333287083    1.4410619825   -0.0101367913
 C    0.0542027264    0.0302225129   -0.0030596384
 C    0.8421056873   -0.5452087302    1.1923393850
 N    0.8189183246   -2.0067131601    1.2538694604
 C   -0.5431811742   -2.5529731952    1.3220095662
 C   -1.3808512569   -2.0589283453    0.1470001354
 O   -1.9567681932   -2.7838261874   -0.6316841468
 C   -1.3788031009   -0.5320088859   -0.0100481071
 O   -2.0276739532    0.0671108907    1.1204746170
 H   -0.6358371215    1.6970173465    0.6381323839
 H    0.5455965782   -0.2824586312   -0.9333104558
 H    1.8794224262   -0.2033958189    1.1386165975
 H    0.4149474556   -0.1534184560    2.1230001801
 H    1.2983712650   -2.3959608501    0.4468564717
 H   -0.5139831253   -3.6446303795    1.3102198734
 H   -0.9992048680   -2.2237155405    2.2632522382
 H   -1.8899068405   -0.2652746798   -0.9423692881
 H   -2.9766880479   -0.0609832727    1.0276293188