17

 C   -0.2250915628    1.3317663842    0.1273296729
 O   -0.1557048796   -0.0831731836    0.1607547312
 C    0.8019801111   -0.5744364269    1.0543132142
 O    0.4497079020   -0.3633982607    2.4096714202
 C   -0.0051325029   -1.5806463288    2.9932807224
 C    0.3655099159   -2.6453990104    2.0071569758
 C    0.8629749376   -2.0861984013    0.8994681447
 C    1.3318877400   -2.7064101918   -0.2779993108
 C    1.7578887581   -3.2018074807   -1.2898608909
 H    0.7465486685    1.7730423723   -0.1416926962
 H   -0.9589570845    1.5968222155   -0.6365220334
 H   -0.5418575346    1.7408799431    1.0941630385
 H    1.7623616948   -0.0639746463    0.8808269273
 H    0.4905499377   -1.7093588765    3.9650983990
 H   -1.0904768495   -1.5524243782    3.1793694349
 H    0.2267654845   -3.7033902080    2.1845779388
 H    2.1209195735   -3.6458248819   -2.1834265785