16

 C    0.0047071617    1.4934059224   -0.1265730614
 C    0.0198628902    0.0115013878    0.1125509877
 C   -1.2739588023   -0.7879883127    0.4263324359
 N   -0.4633798409   -1.7806151669    1.2381915106
 C    0.7050430806   -0.8088564018    1.2364824511
 C    1.3748955116   -1.6139223714    0.1053210563
 O    0.8120540217   -0.7009998434   -0.8865827504
 C    0.2639339477   -2.6603458617    0.3327248720
 O   -0.0283423906   -3.7320689515   -0.0951511696
 H    1.0220036452    1.8928865531   -0.1541631860
 H   -0.4725705582    1.7121816724   -1.0879700762
 H   -0.5562881966    2.0071090427    0.6598929084
 H   -1.9663443568   -0.2473737118    1.0789068410
 H   -1.8150899458   -1.2257734657   -0.4160796700
 H    1.1293125280   -0.4772564286    2.1799782008
 H    2.4238056546   -1.8480982828   -0.0781302000