13

 N    0.0149331972    1.3513801862    0.1203440976
 C   -0.0456466700   -0.0064798716    0.0305061735
 N   -1.1823600779   -0.6125588255    0.0215131400
 C   -1.2031940349   -1.9813558284    0.0011206345
 N   -2.2593225756   -2.6690030738    0.0152853947
 O    0.0507207212   -2.6757556440   -0.0532133484
 C    1.2447251426   -2.0556902956   -0.0319952256
 O    2.2863774935   -2.6461495894   -0.0366183281
 N    1.1644308955   -0.6668812824   -0.0061038715
 H    0.8146689956    1.8342589341   -0.2563836873
 H   -0.8745218033    1.8116884932   -0.0004078147
 H   -2.0357094021   -3.6625293488   -0.0121736292
 H    2.0456201884   -0.1866953539    0.0910868743