18

 O   -0.0964742731   -0.0702410017    0.0078281743
 C   -0.0833412061    1.1225474303    0.0372895564
 C   -1.1655994327    2.2154290945    0.1912044881
 C   -0.0496341682    3.1356649801    0.7337556085
 O   -0.0390358338    3.0177322648    2.1468780476
 C    1.2639475321    3.1115987825    2.7138836712
 C    2.1386119001    1.9577376898    2.2261395099
 N    2.2832265013    1.9466319833    0.7655335379
 C    1.0359840166    2.1998978510    0.0922456689
 H   -1.5610640661    2.5387838818   -0.7766918137
 H   -1.9869643998    2.0006773536    0.8759080274
 H   -0.0511114220    4.1889194227    0.4259794058
 H    1.7288340338    4.0797042527    2.4595794504
 H    1.1230164320    3.0748748005    3.7983454451
 H    3.1344717900    2.0071750654    2.6771467815
 H    1.6776611746    1.0123896947    2.5374396310
 H    2.9746854232    2.6330794229    0.4834608520
 H    1.2287377779    2.5117615111   -0.9415442523