18

 C   -0.1637577151    1.5734869871    0.1817073578
 C   -0.2661442777    0.0812268851    0.4814797420
 N   -1.0588040495   -0.5889366707   -0.5498518360
 C   -1.2423203991   -2.0198189363   -0.3426411758
 C   -2.3347199406   -2.3812525980    0.6981818792
 O   -3.5817308517   -1.8199948857    0.3421021304
 C   -1.6101548803   -2.6580782282   -1.6221682926
 N   -1.9702829921   -3.1730146949   -2.5922058428
 H    0.4632707752    2.0739214546    0.9250910513
 H    0.2660324157    1.7375848640   -0.8101366675
 H   -1.1513599401    2.0475721648    0.2065307060
 H    0.7355017163   -0.3674765402    0.4731662717
 H   -0.6649300250   -0.0593326267    1.5018981696
 H   -1.9799240466   -0.1634407539   -0.6166514688
 H   -0.2868400948   -2.4507431590   -0.0175794025
 H   -2.3892893322   -3.4718767698    0.8241245414
 H   -2.0611658516   -1.9410992245    1.6612791705
 H   -3.9120721208   -2.2930744077   -0.4310925839