16

 C   -0.0416397197    1.5308444326   -0.0160335904
 C   -0.0306412248    0.0433369250   -0.0295121011
 C    0.0058479732   -1.0242725439   -1.0858439440
 C    1.2594418778   -1.5845224976   -0.4422059762
 N    0.8901446620   -0.8661297921    0.8414236813
 C   -0.3663151397   -1.6118823855    1.2480384375
 C   -1.0673443195   -1.0423287855    0.0299193891
 H    0.9349040859    1.9390191101   -0.2990035059
 H   -0.7853514775    1.9102179738   -0.7249137148
 H   -0.2924278521    1.9183547375    0.9775743157
 H   -0.2731777508   -0.9434817868   -2.1296962102
 H    1.3845267105   -2.6685779338   -0.3361466382
 H    2.1760921530   -1.1494890873   -0.8496413535
 H   -0.2379384154   -2.6958829076    1.3506716767
 H   -0.7446619863   -1.1986458946    2.1869710078
 H   -2.1224576067   -0.9745961442   -0.2070586838