17

 N   -0.0524541454    1.5356792219    0.0438289532
 C    0.0133819899    0.0776848857   -0.0316652612
 C    0.2404345971   -0.5228795684    1.3892218937
 C   -1.3091189796   -0.6341406733    1.5498814761
 C   -1.4239995959   -0.5259010805   -0.0039511271
 C   -1.8522843433   -1.8056610628    2.2013691675
 C   -2.2939714981   -2.7907688070    2.7310720230
 C    0.9033244423   -0.4085064482   -1.0938301636
 N    1.6110571818   -0.7605945201   -1.9385988663
 H    0.8756676939    1.9185009338    0.2042139245
 H   -0.3745467551    1.9162308669   -0.8422425016
 H    0.7092866105   -1.5066301751    1.3435524218
 H    0.7759945688    0.1153816994    2.0936618585
 H   -1.6975802261    0.2764549021    2.0120017703
 H   -2.2130804690    0.1099546114   -0.4082739231
 H   -1.4594817179   -1.5105683648   -0.4717591337
 H   -2.6867068839   -3.6579457109    3.2015742582