23

 C   -0.0567282217    1.6838297231    0.0336884825
 C   -0.0180163264    0.1579789811   -0.0631043525
 O    0.7343223502   -0.2587588761   -1.2045980073
 C    0.5099929806   -0.5067707556    1.2118273832
 C   -0.3105972163   -0.2628596625    2.4894263914
 C    0.2105232890   -1.3764615216    3.3991374573
 O    0.5053388015   -2.4776583989    2.5496668440
 C    0.6003229656   -2.0574718641    1.1783885069
 C   -0.4766452423   -2.7728482727    0.3659537194
 H    0.9382600623    2.0859718496    0.2637962935
 H   -0.3845100620    2.1083883521   -0.9189599509
 H   -0.7417609959    2.0206215255    0.8174819485
 H   -1.0318424929   -0.2071189714   -0.2627921138
 H    1.6365554977    0.0616052212   -1.0935195976
 H    1.5259401703   -0.1202738557    1.3871361799
 H   -0.1670684588    0.7320482187    2.9173559061
 H   -1.3805047048   -0.3946142946    2.2886910266
 H    1.1197707343   -1.0487557213    3.9286017567
 H   -0.5158738996   -1.6998801242    4.1527667599
 H    1.5831054841   -2.3676070318    0.8024746471
 H   -1.4823225104   -2.4632284995    0.6696936743
 H   -0.3492307099   -2.5747228187   -0.7011703772
 H   -0.3965486044   -3.8498410028    0.5372451420