17

 C   -0.1971601017    1.5381044307    0.0822374659
 C   -0.0670351145    0.0502487553    0.0126900050
 C    0.0664019823   -0.7188916850   -1.0731399041
 C    0.1979508567   -2.1914080291   -0.7631324847
 C    0.2553736669   -2.2241255508    0.7664067487
 O    1.6303575032   -2.1525196138    1.2883758590
 C    1.4214041892   -0.9065553764    1.8277625899
 O    2.1809533701   -0.2493127645    2.4624241850
 C   -0.0074544963   -0.7882193716    1.2719070946
 H    0.6188567382    1.9713351454    0.6730012932
 H   -0.1797815479    1.9883005991   -0.9134262784
 H   -1.1322782012    1.8317672725    0.5755345810
 H    0.0883206449   -0.3375987827   -2.0885550970
 H   -0.6514197887   -2.7721649595   -1.1450581271
 H    1.1039163773   -2.6418336171   -1.1866014197
 H   -0.2700237818   -3.0520030313    1.2421409671
 H   -0.7861530564   -0.5885028511    2.0109574918