19

 C   -0.0721445551    1.5360153458    0.1596509029
 C    0.1239932510    0.0625030538    0.0053121604
 O   -0.7997209555   -0.8261006772    0.6476274190
 C    0.5954612284   -0.9784753824    0.9430619181
 C    1.2435102023   -1.7791249940   -0.1892593041
 O    0.8261677734   -3.1083210317   -0.3175054226
 C    0.6819173092   -0.7111306938   -1.2106856759
 C   -0.3244930110   -1.2334795861   -2.2185565165
 O    0.3447056389   -2.2495820176   -2.9814962084
 H    0.8368881113    2.0794142498   -0.1178071217
 H   -0.8854944110    1.8933768200   -0.4822934730
 H   -0.3259864983    1.7793402177    1.1947221516
 H    0.8853371774   -0.9134290569    1.9859698294
 H    2.3395558055   -1.6950685210   -0.1275927972
 H    0.8231472829   -3.2954404892   -1.2669508244
 H    1.4948844940   -0.1817062577   -1.7153587891
 H   -1.1862913279   -1.6497888860   -1.6856549865
 H   -0.6742344234   -0.4262791607   -2.8788698241
 H   -0.3023454222   -2.6654944729   -3.5595464780