19

 O   -0.0751496942    1.4260405240    0.0499006403
 C    0.0025156052    0.0134744897   -0.0215130539
 C   -1.4051066843   -0.5973027230   -0.1190002532
 C   -1.0341516785   -2.0162747639   -0.6090035991
 C    0.0443550473   -1.6767809272   -1.6429579596
 C    0.6365981326   -0.5348218270   -1.2979495219
 C   -0.3638846160   -2.7427086222    0.5522326355
 C    0.4375944226   -2.0704000487    1.3801048054
 C    0.7065924061   -0.5895417406    1.2222754818
 H    0.8145433605    1.7694486554    0.1858251851
 H   -1.9449982950   -0.5950309446    0.8313603058
 H   -1.9821480142   -0.0518525989   -0.8703504541
 H   -1.8758478649   -2.5851506768   -1.0097822770
 H    0.3252019263   -2.3364460252   -2.4556929213
 H    1.4932559626   -0.0704599137   -1.7741736939
 H   -0.5269090666   -3.8095338008    0.6729344578
 H    0.9399510021   -2.5767591239    2.2004152457
 H    1.7924117912   -0.4120760735    1.1665394593
 H    0.3542367470   -0.0445283691    2.1091842073