17

 C   -0.0214869170    1.5440801873    0.0313050951
 C    1.5266332850    1.5368888140    0.0234382403
 O    2.1184706493    1.3848545571    1.3336126135
 C    2.0960279219   -0.0617015897    1.2450139387
 C    1.0225357972   -0.7225131996    2.1201777453
 O   -0.0392657037    0.1506536354    2.5045443949
 C   -0.2516727356   -0.7006228500    1.3749050088
 C   -0.0282356455   -0.0268288990    0.0205804632
 C    1.5231963282    0.0066670930   -0.1927938739
 H   -0.4887907416    2.0273085130    0.8893790674
 H   -0.4249952430    1.9553582609   -0.8982871671
 H    2.0581436766    2.2784156972   -0.5761178847
 H    3.0920044085   -0.4885526454    1.3994253612
 H    1.2899488502   -1.4859647428    2.8465951149
 H   -1.0282761759   -1.4512349181    1.5014096414
 H   -0.6276733518   -0.4831304198   -0.7678440995
 H    1.9927409071   -0.5327428235   -1.0133040095