15

 C   -0.0517463415    1.5165302687    0.0419165009
 C   -0.0631557794    0.0179386064    0.0473933418
 C   -1.1929865527   -0.7192885188   -0.0075827641
 O   -2.4465655805   -0.1922891146   -0.0036864774
 N   -1.1203743768   -2.1015707368   -0.0278810007
 C    0.1051283434   -2.7122576993    0.0306802648
 N    1.2287278092   -2.1008565388    0.0810004781
 C    1.2354449011   -0.6818769844    0.1081775571
 O    2.2847928930   -0.0700669610    0.1650655709
 H    0.6158271716    1.8804534878   -0.7450722005
 H   -1.0518065251    1.9271446172   -0.1042590139
 H    0.3542989798    1.8977866365    0.9849680482
 H   -2.9795054173   -0.5953642801   -0.7000557968
 H   -1.9627880645   -2.6415585167    0.0967487529
 H    0.0676781096   -3.8007170361    0.0263690188