23

 C   -0.1469543910    1.5771678684   -0.0958734316
 C    0.0478679750    0.0604017825   -0.0085800648
 C    0.8791446471   -0.5268211646   -1.1545799868
 C    1.5256393010   -1.5983446964   -0.7132702926
 C    2.7680123412   -2.4512198301   -0.8219706735
 C    2.8934095576   -2.2651660706    0.7378735595
 C    1.3843256971   -1.8144471512    0.7670303902
 C    0.7896743496   -0.4749400636    1.2839133236
 C    1.8517824595    0.4882153772    1.8225821992
 H    0.8066676534    2.1110732163   -0.1518098664
 H   -0.7220120386    1.8363679442   -0.9913042634
 H   -0.6981694192    1.9592315315    0.7701861776
 H   -0.9564047626   -0.3916806199   -0.0209776426
 H    0.9423536948   -0.0637162904   -2.1333763138
 H    2.5574635566   -3.4939914905   -1.0837611111
 H    3.5839098145   -2.0909848587   -1.4538284927
 H    3.1566659072   -3.1525641469    1.3185053563
 H    3.5807271066   -1.4549625884    0.9878468859
 H    0.7460882759   -2.6672043156    1.0312609889
 H    0.0572726013   -0.6515789829    2.0799802429
 H    2.5939931559    0.7426323905    1.0584502694
 H    1.4028140266    1.4221746182    2.1725425155
 H    2.3831123605    0.0401660509    2.6684749303