23

 C   -0.0350288584    1.6088151224    0.0274231738
 C    0.0055921322    0.0795885655    0.0373190345
 C   -1.4011676378   -0.5445028628   -0.0650845717
 C   -1.3903202115   -2.0029099528   -0.0580559776
 C   -1.3456203303   -3.2062915260   -0.0565358495
 C   -1.3368076464   -4.6687106966   -0.0308646274
 C   -2.7660334855   -5.2312665214    0.0478465692
 O   -0.6486229960   -5.1273671853   -1.1932085209
 C   -0.1525435325   -6.4415595512   -1.0870732178
 H    0.9715714421    2.0314562989    0.0994140342
 H   -0.4903299496    1.9885624367   -0.8941402694
 H   -0.6199584506    1.9967554200    0.8690227523
 H    0.6159753142   -0.2880809744   -0.7948137954
 H    0.4860892929   -0.2799701537    0.9540718710
 H   -2.0206888097   -0.1806055173    0.7661622946
 H   -1.8907818272   -0.1863372206   -0.9809609124
 H   -0.7791023125   -5.0004740933    0.8624576907
 H   -3.2732923033   -4.8497112944    0.9381511174
 H   -3.3319575612   -4.9271825028   -0.8361246862
 H   -2.7538647553   -6.3234654322    0.1029435442
 H    0.4277963415   -6.6353864154   -1.9925457426
 H    0.5076172676   -6.5586375774   -0.2127378556
 H   -0.9494110026   -7.1969542561   -1.0186622054