21

 C    0.1548149206    1.4863981001    0.0789825641
 O    0.4055653608    0.0890371071    0.1365794522
 C    0.7376478769   -0.5348620604   -1.0799690553
 C    2.0518926971   -0.0285216116   -1.6816980774
 C    0.6711025961   -2.1043185026   -0.9823020020
 C   -0.0256987728   -2.6414695546    0.2627107126
 C   -0.2080431117   -2.1518087845   -2.2741520402
 C   -0.3979020455   -0.6355215980   -2.1380409570
 O   -1.1953366312    0.1476447140   -2.5718357725
 H    1.0710815604    2.0629555582   -0.1081884509
 H   -0.5860641509    1.7308232574   -0.6892455731
 H   -0.2348822811    1.7670890602    1.0603808190
 H    2.8532793497   -0.1293214901   -0.9423920479
 H    2.3257612619   -0.6095340107   -2.5676611920
 H    1.9802918660    1.0200251328   -1.9833980319
 H    1.6526096450   -2.5707456444   -1.0982358607
 H   -1.0168584792   -2.1956544559    0.3886750469
 H   -0.1457818940   -3.7273424938    0.1894732271
 H    0.5496889581   -2.4160389935    1.1641364778
 H    0.3351024058   -2.4235105817   -3.1846223484
 H   -1.1263574320   -2.7434072282   -2.2279796503