17

 C    0.0756529300    1.4445344415    0.0453636197
 C    0.0656379406   -0.0671317498    0.1033440045
 C   -1.1146856022   -0.7308084853   -0.5711229176
 O    1.3144198476   -0.7011727680   -0.0708159531
 C    0.7924305165   -0.7890259378    1.2478866236
 C    1.4783349803    0.0124332367    2.3158225828
 O    2.2947262864    0.8752692972    2.1204243872
 C    0.3049249659   -2.1319470065    1.7084818417
 O    0.1263104741   -3.0872620443    0.9981001010
 H    0.9688846840    1.8599689606    0.5087096677
 H    0.0558225237    1.7507795241   -1.0061545163
 H   -0.8173279050    1.8551402334    0.5268583123
 H   -1.1309224040   -0.4226345836   -1.6221461042
 H   -1.0441006069   -1.8164286378   -0.5313033930
 H   -2.0541240071   -0.4030074993   -0.1152286018
 H    1.1627324027   -0.2580011803    3.3480986596
 H    0.1089676334   -2.1838501408    2.8026650159