17

 O   -0.0106284044    0.0266480256   -0.0187347184
 C   -0.0249286394    1.2216453610    0.0044472213
 C   -1.1723710018    2.2487724113    0.0529879989
 C   -0.7911706524    2.7497095566    1.4809036702
 C    0.5528779292    3.3799465293    1.0268558855
 C   -0.0120284657    4.4433965016    0.0585830868
 C   -0.5594914043    3.3678480324   -0.8921953429
 O    0.7078513569    2.7906324659   -1.3040308483
 C    1.0892154006    2.2827328103   -0.0057921943
 H   -2.1818335526    1.8977665473   -0.1389404353
 H   -1.4792305041    3.4870818276    1.9003980261
 H   -0.6924350839    1.9211083832    2.1895330911
 H    1.2526735905    3.6990312555    1.7964209561
 H   -0.7603809452    5.0786165135    0.5379909183
 H    0.7292322764    5.0602808355   -0.4508129640
 H   -1.1390208831    3.6550308703   -1.7663576587
 H    2.1316715234    1.9784617831    0.0130121677