15

 C   -0.5701528871    0.8091702355   -0.1446863593
 O    0.7996643646    0.6479756861    0.2451318827
 C    1.0410268292   -0.3416399113    1.1256808249
 C    0.6315308515   -1.6640429770    1.2378519957
 N   -0.2903436305   -2.3352962514    0.3871766714
 C    1.3333963564   -2.1344051157    2.3748842457
 N    2.1128879483   -1.2063701174    2.9188477892
 N    1.9192352882   -0.1216393293    2.1355650984
 H   -1.1767348172    1.1232692215    0.7128673086
 H   -0.5751718466    1.5924504171   -0.9041154391
 H   -0.9751602766   -0.1220926170   -0.5479303168
 H    0.1729950584   -2.7408653097   -0.4206392488
 H   -0.7450782040   -3.0953588211    0.8805490036
 H    1.2889735364   -3.1228048439    2.8123061929
 H    2.4144464690    0.7343914936    2.3189395110