23

 C    0.0302577374    1.5772186795   -0.0472171625
 C    0.0560084923    0.0431460317   -0.0265792923
 C   -1.3882989520   -0.4951415601    0.0058976403
 C    0.7724674394   -0.5638273002   -1.2380091558
 C    2.2803138230   -0.5261363487   -1.2925119945
 C    1.5754545701   -1.7626319654   -0.7871301049
 C    1.3955287020   -1.8996623278    0.7169112004
 C    0.8314912312   -0.5380769252    1.1968527287
 O    1.8670321222    0.3716517409    1.5701667068
 H    1.0375913497    1.9923716195   -0.0962029544
 H   -0.5321981127    1.9301535953   -0.9186766625
 H   -0.4551099722    1.9787667741    0.8487991019
 H   -1.9321318997   -0.1897845503   -0.8944156038
 H   -1.4140787956   -1.5888337699    0.0512389875
 H   -1.9341410933   -0.1063983126    0.8724977150
 H    0.2279447310   -0.5772374715   -2.1772568319
 H    2.7334938478   -0.5887982276   -2.2764763421
 H    2.8144013536    0.0929867835   -0.5822659852
 H    1.6232329034   -2.6671136637   -1.3838487904
 H    0.6784500499   -2.6995868997    0.9356374829
 H    2.3209053563   -2.1486245045    1.2518105609
 H    0.1482268541   -0.6705017331    2.0481403104
 H    2.3776244422   -0.0419225443    2.2729109856