18

 C    0.4020248520    1.3388012765    0.1510694138
 C   -0.3655294556    0.0680886970   -0.2189940042
 N    0.1799470016   -0.5916553849   -1.3921078169
 C    0.7450860119   -1.8154866315   -1.3699158927
 O    0.8626033362   -2.5463859402   -0.3983683261
 C    1.2620415828   -2.2435310542   -2.7606493061
 O    1.1544400482   -1.5198438452   -3.7205022314
 C    1.8955767797   -3.6166518387   -2.7891775027
 O    2.3294320703   -3.9024895313   -4.0922492595
 H    1.4468621705    1.1094895594    0.3787954027
 H    0.3830758483    2.0674706357   -0.6663690069
 H   -0.0480516633    1.8099352242    1.0302430144
 H   -0.3196407371   -0.6638724371    0.5908091020
 H   -1.4224182860    0.3031456515   -0.3960009535
 H    0.1827797474   -0.1291272762   -2.2914420399
 H    2.7074014200   -3.6159798547   -2.0434452726
 H    1.1456288431   -4.3287602619   -2.4072068829
 H    2.7315099797   -4.7757037284   -4.0842041074