21

 C   -0.0592765170    1.5210324622    0.0009891851
 C    0.0437467347    0.0052979166    0.0338182975
 O    0.7679039593   -0.4081958782   -1.1259385646
 C    0.6881156409   -1.8071057656   -1.3255402987
 C    0.9604165855   -2.5956588107   -0.0748979453
 C    1.0030995830   -2.0352419692    1.1350181059
 C    1.3294442237   -2.7829404570    2.3960177475
 C    0.7723664624   -0.5404529572    1.2717239554
 O    2.0112662844    0.1343275691    1.4983406957
 H    0.9328682013    1.9723107719    0.0653222211
 H   -0.5397710678    1.8446578956   -0.9256951213
 H   -0.6521630606    1.8799214536    0.8478854379
 H   -0.9674102668   -0.4363498118    0.0073306860
 H   -0.3044178169   -2.0770111392   -1.7338495298
 H    1.4232490593   -2.0503261284   -2.1019801440
 H    1.1255367758   -3.6637993940   -0.2017296316
 H    1.5797397779   -3.8285162756    2.1971861520
 H    2.1774294519   -2.3109023603    2.9052522866
 H    0.4870990157   -2.7601479504    3.0995185715
 H    0.1701135656   -0.3355262338    2.1656442622
 H    2.5261499377    0.0070471026    0.6914648510