17

 C   -0.1700689764    1.6823294510   -0.7095474737
 C    0.0702375761    0.2929253961   -0.1532597569
 C    1.1403259585   -0.6325038124   -0.8647645389
 C    1.8202620399   -0.6550769113    0.4907066635
 N    2.6061258986   -1.2515978198    1.3424356024
 C    2.2094675686   -0.6985838959    2.5632404823
 C    1.1522017707    0.1773711455    2.4054692701
 O    0.4185644865    0.9411772217    3.2500825660
 N    0.9487550704    0.2319089246    1.0523587720
 H    0.7777426423    2.2002081097   -0.8830798642
 H   -0.7105997841    1.6167823160   -1.6594505651
 H   -0.7694985757    2.2816938697   -0.0176592172
 H   -0.8724550295   -0.2340076932    0.0225521497
 H    0.7490700834   -1.5898426626   -1.2166470436
 H    1.6866236777   -0.1450697291   -1.6771117167
 H    2.7217312118   -0.9439267236    3.4820089077
 H    0.7516974311    0.8096466936    4.1435111925