19

 C    0.0066682884    1.4077180877    0.0321123449
 N    0.0167698691   -0.0313340369    0.0070185322
 C   -0.0054922522   -0.9154429863   -1.0399419316
 O   -0.0397891514   -0.7506540944   -2.2333116695
 C    0.0304826193   -2.1179939143   -0.0731031073
 C    0.0541437288   -1.0569532902    1.0766482194
 C    1.3436090156   -1.0243794638    1.8966588910
 C   -1.1884530906   -1.0436459332    1.9665629869
 H    0.9069959508    1.8137085759    0.5095966220
 H   -0.0245837769    1.7525202270   -1.0043741326
 H   -0.8718758545    1.8003714359    0.5587974909
 H   -0.8583962026   -2.7510759358   -0.1071623155
 H    0.9260606746   -2.7369226845   -0.1565433755
 H    2.2218020148   -1.0331191240    1.2442774443
 H    1.3919505327   -0.1262514304    2.5224413455
 H    1.3991755084   -1.8927329696    2.5610382694
 H   -1.1939579224   -1.9123135887    2.6328309048
 H   -1.2159714867   -0.1459521805    2.5942266398
 H   -2.1010781851   -1.0662691340    1.3636450210