17

 C   -0.4891544224    1.5505149165    0.2628833949
 N   -0.0046576665    0.1753994940    0.1255851039
 C    0.0622587936   -0.6294247372    1.2661415028
 N   -0.2825209219   -0.1957747629    2.4095700682
 C    0.4010440001   -0.3815215132   -1.0850675022
 O    0.8149315703   -1.5186902578   -1.1778231495
 C    0.3235899704    0.5081671594   -2.3052198675
 C    1.3695379287    0.3395652187   -3.3348904909
 O    0.0694313976   -0.1903277089   -3.5213729888
 H    0.2570223170    2.2692956791   -0.0857250370
 H   -1.4230604496    1.7000194758   -0.2864355585
 H   -0.6735249051    1.7158193063    1.3233745733
 H    0.4337270612   -1.6247789583    1.0265805067
 H   -0.1651657700   -0.9254925937    3.1093097627
 H   -0.1791591477    1.4666140890   -2.2271760065
 H    1.6327790433    1.1905251272   -3.9613435438
 H    2.1465590710   -0.3996808742   -3.1549652180