16

 C   -0.6202970628    0.5974995327    0.2793291737
 O    0.5691684486    0.8269944316   -0.4543657205
 C    0.9329407167   -0.1804167336   -1.2788545891
 C    0.3920396136   -1.4163947242   -1.5582063270
 C    1.2581758668   -2.0255360288   -2.5257027985
 N    1.0145266556   -3.2723952888   -3.1396680023
 C    2.2808453897   -1.1487512466   -2.7901561812
 N    2.0595684535   -0.0079957571   -2.0189686101
 H   -1.4759679983    0.4483463078   -0.3915422615
 H   -0.5206947366   -0.2818572290    0.9285899073
 H   -0.7850838389    1.4861061911    0.8904635222
 H   -0.5127501811   -1.8366340255   -1.1510196682
 H    0.6899412664   -3.9627578705   -2.4728636908
 H    1.8425970076   -3.6374190811   -3.5942539095
 H    3.1255581886   -1.2172061755   -3.4545621773
 H    2.6429927504    0.8076175077   -1.9757777771