15

 O    0.4656515056    0.7051149588    0.8383478668
 C   -0.0625252852    0.2096521221   -0.3599472469
 C   -1.4608070843   -0.3443467009   -0.1966731589
 N   -1.9804502945   -0.2860608583    1.0254938266
 C   -3.2213326163   -0.7788190626    1.1694766385
 C   -3.9366502663   -1.3204168973    0.1223691345
 C   -3.2828957818   -1.3260073116   -1.1174019564
 O   -3.9080593396   -1.8354696831   -2.1858519120
 N   -2.0578549252   -0.8455729064   -1.2841983153
 H   -0.2262968892    0.5642259220    1.5034071632
 H   -0.0984907277    0.9961837536   -1.1303510101
 H    0.5731055542   -0.5911022471   -0.7697428740
 H   -3.6470584427   -0.7314165685    2.1684204725
 H   -4.9359634072   -1.7183061053    0.2345611978
 H   -3.2956207398   -1.7462851553   -2.9310370262