21

 O    0.6585552685    1.7763949788   -0.2924750773
 C   -0.1200623189    0.6360772004    0.0583707352
 C   -0.0094200604   -0.4928917964   -0.9775285120
 C   -0.2810531407   -0.0354270889   -2.3943963962
 C    0.8348509491    0.4573580802   -3.2751549225
 C    0.1806567263   -0.8716138872   -3.5627502084
 C    0.2553615044    0.2262306310    1.4716037639
 C    0.3633050640   -1.1524083478    1.9627753192
 O    1.5351726420   -0.4112638843    1.6138187008
 H    1.5843842864    1.5151932935   -0.2203189765
 H   -1.1548869516    1.0026842875    0.0769336914
 H    0.9926125928   -0.9366260940   -0.9129175203
 H   -0.7217614059   -1.2833989483   -0.7067827632
 H   -1.2373200065    0.4664619069   -2.5234074244
 H    0.6383408512    1.2886496012   -3.9427130973
 H    1.8404377976    0.4482011169   -2.8680943950
 H    0.7461965449   -1.7730033471   -3.3482912583
 H   -0.4679427002   -0.9530517929   -4.4280348056
 H    0.0837528480    1.0141292542    2.2063045048
 H    0.2369131892   -1.3476681034    3.0268596036
 H    0.1314121001   -1.9900846904    1.3093811881