21

 C    0.0185498390    1.5628713861    0.0198425708
 C    0.0982912460    0.0516494581    0.0852408221
 C    1.3224910547   -0.7839856690   -0.1961736697
 C    2.6015249296   -0.1023774728    0.3391432929
 C    1.9479741328   -0.0927037088    1.7716782072
 C    0.6896557079   -0.7691499362    1.2039198927
 C   -0.0768167632   -1.8359680821    1.9333606818
 C    3.8039803313   -0.9058127871    0.2326878404
 C    4.7947031807   -1.5821247116    0.1433421483
 H    0.9035947565    2.0532768973    0.4334844760
 H   -0.0906052664    1.9024727174   -1.0160864250
 H   -0.8479651751    1.9290816480    0.5814050176
 H   -0.7928974310   -0.4293926743   -0.3170885206
 H    1.3299785332   -1.5724509326   -0.9398327385
 H    2.7926896322    0.8910717626   -0.0828921217
 H    2.4952368372   -0.7447001181    2.4546589104
 H    1.8229814722    0.8870549986    2.2437819043
 H   -0.6372186038   -1.4168208143    2.7785222375
 H   -0.7988063037   -2.3267545067    1.2721827421
 H    0.5923520135   -2.6076924165    2.3310439287
 H    5.6735655064   -2.1719995179    0.0618989528