29

 C   -0.2182269248    1.5794331647   -0.0485947400
 C    0.1891547606    0.1100891871    0.1162570762
 C    0.8008006958   -0.5138709031   -1.1614903144
 C    2.2499736936   -0.0192024739   -1.3245565210
 C    0.6496917283   -2.0775650391   -1.2362336572
 C    1.1883212243   -2.7499140863    0.0421860417
 C   -0.8436642841   -2.4269660416   -1.4023949452
 C    1.4311224114   -2.5990988197   -2.4755598230
 C    1.2148709908   -4.0676856008   -2.8656621223
 H    0.6275726874    2.2149644995   -0.3298516461
 H   -0.9845853306    1.6892111077   -0.8241918867
 H   -0.6301905940    1.9791440720    0.8836518624
 H    0.9098368156    0.0250375411    0.9396632153
 H   -0.6948625122   -0.4516811892    0.4334886726
 H    0.2282306738   -0.1234708782   -2.0166113548
 H    2.3018506460    1.0655384736   -1.1922867963
 H    2.9130720270   -0.4674380578   -0.5762687158
 H    2.6602373086   -0.2403460341   -2.3122026039
 H    0.6294029441   -2.4354570435    0.9282699973
 H    1.1030177811   -3.8390196872   -0.0205824231
 H    2.2440698721   -2.5139451445    0.2114297283
 H   -1.2364591103   -2.0372325927   -2.3487540734
 H   -1.0000401062   -3.5092838360   -1.3968832348
 H   -1.4551549128   -2.0150589312   -0.5953695486
 H    1.1698056349   -1.9703686018   -3.3378879756
 H    2.5023861358   -2.4486501207   -2.3048707089
 H    0.1873875562   -4.2653770283   -3.1837901094
 H    1.8704694712   -4.3322947457   -3.7016491048
 H    1.4471991863   -4.7523140502   -2.0437674785