20

 C   -0.5319545901    0.7544069046   -0.4095562716
 O    0.7419919244    0.1807160566   -0.1768601977
 C    1.1360363372   -0.8098623061   -1.0974666355
 C    0.6327667290   -2.2269520930   -0.7535578262
 C    0.9730785704   -2.5329133611    0.7039789597
 O    2.0618823171   -2.8915491574    1.0675494321
 N   -0.8069310403   -2.3572604324   -0.9454468173
 C   -1.2584855363   -2.6863220078   -2.2937657929
 C   -1.3086514981   -3.7051649754   -1.2102033571
 H   -0.6001632722    1.1676689763   -1.4279865690
 H   -1.3412825723    0.0297315364   -0.2690583618
 H   -0.6422317249    1.5724503574    0.3068618782
 H    0.8215058837   -0.5520554637   -2.1213536171
 H    2.2304234039   -0.8381282767   -1.0709782908
 H    1.2087243777   -2.9341382693   -1.3785149066
 H    0.1284671144   -2.3894568254    1.4110111281
 H   -2.1645688483   -2.1873825482   -2.6244849163
 H   -0.5033896875   -2.8197477071   -3.0667517856
 H   -0.5835045181   -4.5160258412   -1.2574310308
 H   -2.2505057197   -3.9604684166   -0.7344872518