22

 C   -0.8902768587    1.0481706363    0.5544564254
 N   -0.6753051031   -0.3728081741    0.3146007274
 C   -0.8138697305   -1.1782987542    1.5114546865
 C   -0.3511191572   -0.7622585953   -0.9708468018
 O   -0.2616350187    0.0563798037   -1.8642109811
 C   -0.0981262166   -2.2711216821   -1.2932833939
 C    1.1336148078   -2.8208864500   -0.5479955355
 C   -1.3689470641   -3.1203499924   -1.0956617558
 O    0.2058435076   -2.2649200858   -2.6847674407
 H   -0.1689910098    1.4267705313    1.2905125585
 H   -0.7677671656    1.5820275409   -0.3848293415
 H   -1.8998650904    1.2205970144    0.9491587105
 H   -1.8088280738   -1.0317537129    1.9536552006
 H   -0.6893687022   -2.2370600917    1.3173993325
 H   -0.0717534418   -0.8810361807    2.2658417587
 H    1.0307641221   -2.8496933200    0.5379792739
 H    1.3293295165   -3.8465618036   -0.8836230172
 H    2.0063357896   -2.2117299040   -0.7972874930
 H   -2.1722223852   -2.7141418711   -1.7157315884
 H   -1.1714565495   -4.1474303116   -1.4259294769
 H   -1.7220480763   -3.1736988999   -0.0645638029
 H    0.3692706698   -3.1810537072   -2.9335854353