20

 C    0.0899048278    1.3063465996    0.2762443321
 O    0.0303424945   -0.0593966617   -0.1069213278
 C   -1.2497523800   -0.5621943278   -0.1131807845
 C   -2.0000410905   -0.9751428420    1.1241503245
 C   -1.6770252076   -2.0006701876    0.0469998084
 C   -2.5943314652   -1.8458255773   -1.2011918415
 C   -2.1838730457   -0.4336472047   -1.3674306956
 N   -3.5701548975   -0.7570423225   -0.9807753119
 C   -4.5225716304   -0.6089477282   -2.0774841256
 H    1.1413761321    1.6002010560    0.2455738337
 H   -0.4803280324    1.9459338583   -0.4122283153
 H   -0.3009649593    1.4535293831    1.2920380408
 H   -1.3583955329   -1.0669563609    1.9957293084
 H   -3.0195295778   -0.6650162329    1.3124639331
 H   -1.0702903613   -2.8748925111    0.2414413616
 H   -2.7768947694   -2.6052293461   -1.9510546485
 H   -1.9579070269    0.1242582554   -2.2679020379
 H   -4.1044639915   -0.8507791477   -3.0697516217
 H   -5.3789489488   -1.2665755851   -1.8981226010
 H   -4.8822540173    0.4245750632   -2.1017831913