17

 C    0.1305040636    1.4934484058    0.0151546808
 C    0.0355912692   -0.0214991503    0.0039979557
 O    0.7635682419   -0.5352981762   -1.1146642876
 C    1.2567953029   -1.7945979458   -0.7155671403
 C    2.5492369406   -1.7671857796    0.0697561225
 C    1.2120690062   -1.8028254340    0.7758730950
 O    0.6954169788   -0.5478191585    1.1585361118
 C   -1.3638662069   -0.4938244869   -0.0405627801
 C   -2.5038175181   -0.8716746302   -0.0768376760
 H    1.1828676087    1.7819331676    0.0486746222
 H   -0.3327943789    1.8998162192   -0.8861356854
 H   -0.3867623596    1.8901855114    0.8910162450
 H    0.9742339636   -2.6270978740   -1.3491501770
 H    3.1485130502   -2.6721126296    0.0827313059
 H    3.0976039460   -0.8328033158    0.0913622329
 H    0.8923126083   -2.6421496812    1.3821852605
 H   -3.5109592665   -1.2082491218   -0.1086878660