25

 C    0.5019915394    1.3357638626    0.5509024813
 C    0.4454863666   -0.1539660911    0.2367427135
 C    1.0754625374   -0.7121668897   -1.0855114266
 C    2.1537753328    0.1475723754   -1.7472108374
 C    1.5595178135   -1.9522051527   -0.2645413174
 C    2.9248736838   -2.5550262394   -0.5311422436
 O    3.1143776381   -3.6117761021    0.4061478049
 C    1.2973138584   -1.1742070653    1.0661144544
 C    2.5285173329   -0.6316645320    1.7900055470
 H    1.5219425533    1.7307776864    0.5363582182
 H   -0.0847202441    1.9119001487   -0.1737528435
 H    0.0850270484    1.5394716188    1.5436211889
 H   -0.6029017086   -0.4709101823    0.2748202365
 H    0.3317622180   -0.9621870521   -1.8497802093
 H    2.9446029011    0.4507105650   -1.0552524054
 H    2.6291189624   -0.3902762205   -2.5750184456
 H    1.7160140545    1.0618056067   -2.1620591767
 H    0.8274196114   -2.7614114158   -0.3567853461
 H    2.9656751813   -2.9335337391   -1.5660555992
 H    3.7173022114   -1.7993318338   -0.4311574075
 H    3.9951431110   -3.9747204704    0.2740574932
 H    0.7079296724   -1.7458615339    1.7894290607
 H    3.1646544985   -0.0128023860    1.1497116115
 H    2.2373881636   -0.0172092060    2.6486054016
 H    3.1376127325   -1.4629026912    2.1581373862