19

 C   -0.0410302958    1.5047371153    0.0468791392
 C   -0.0593417750    0.0151957536   -0.0257617794
 C   -0.0778209500   -0.7936508727   -1.0832832912
 C    0.0265582060   -2.2229089009   -0.5759223763
 C    1.4995607634   -2.6334839752   -0.3888888342
 O    2.2055052485   -1.6480569919    0.3587691993
 C    1.5216310987   -1.1977490651    1.5228276227
 C    0.0466891360   -0.8904390842    1.2025123142
 O   -0.5188100772   -2.1255394914    0.7492314496
 H    0.8749055439    1.8672709530    0.5309043637
 H   -0.0944085134    1.9553099349   -0.9475701900
 H   -0.8805783668    1.8859168445    0.6419528346
 H   -0.0713193814   -0.5109702432   -2.1281294310
 H   -0.5339772147   -2.9747653591   -1.1388191034
 H    1.5242582248   -3.6063632898    0.1263214348
 H    2.0273162355   -2.7239757818   -1.3437895951
 H    1.5478010190   -1.9627744991    2.3143786146
 H    2.0656225994   -0.3129904283    1.8702109666
 H   -0.4974453110   -0.5486677188    2.0887491814