13

 O   -0.0561557222   -0.0259113293    0.0532172171
 C   -0.0220214537    1.1636142936    0.0877108404
 O    1.1128192645    1.8646805546   -0.1667885673
 C    1.0116599894    3.2766687455   -0.1753196681
 C    2.4237402851    3.8913612004   -0.1062064012
 N    2.6757262396    4.4074924412   -1.4591251209
 C    1.5887270258    4.2620483865   -2.0862046838
 O    0.5134012312    3.7105262102   -1.4426892455
 H   -0.8816011571    1.8136878502    0.3369755656
 H    0.3078054621    3.6077212417    0.5927523920
 H    2.4810886104    4.7089232321    0.6188492385
 H    3.1601205590    3.1328683362    0.1692136595
 H    1.3967951557    4.5451781471   -3.1139781162