19

 C    0.2900113875    1.5616893844   -0.1241745231
 C    0.0121193679    0.0568072932   -0.0885088058
 C    0.9327079140   -0.7196362009   -1.0331623912
 C    0.7234922394   -2.2092936840   -1.0577920671
 C    1.5769481222   -3.0952715340   -1.9573918216
 C    2.5685379433   -2.3825917335   -2.7547164596
 N    3.3567082598   -1.8252158815   -3.3895133810
 N   -0.1798100725   -2.7183117262   -0.3136036465
 O   -0.2462509543   -4.1130007060   -0.4536907891
 H    1.3207423821    1.7849322074    0.1730641110
 H    0.1412193215    1.9718667379   -1.1292592708
 H   -0.3760544794    2.1002835484    0.5564218264
 H    0.1347285241   -0.3262210428    0.9300800059
 H   -1.0307312423   -0.1414555507   -0.3576263829
 H    0.8257275654   -0.3423576679   -2.0605308870
 H    1.9851114719   -0.5263231032   -0.7795341081
 H    2.0809001382   -3.8485040494   -1.3401898873
 H    0.9184193594   -3.6660730104   -2.6228121278
 H   -0.9554082681   -4.3475172807    0.1541183856