15

 O   -0.1018971404    1.3004009801   -0.0566357460
 N    0.0280918535   -0.0945359003    0.0473287160
 C   -1.0994096896   -0.6617633988   -0.0352071257
 C   -2.5627762104   -0.2220228513   -0.0872143540
 C   -2.9247799714   -1.7157135290    0.1122540186
 N   -2.3341323477   -2.4252829813   -1.0513751961
 C   -1.4563782893   -2.1013832308    0.1082033924
 C   -3.9966165094   -2.2499295486    0.8721382204
 C   -4.9194245981   -2.6856662975    1.5103534907
 H    0.8105278326    1.5967104895    0.0305065343
 H   -2.8248460571    0.4090960740    0.7652151505
 H   -2.9203289876    0.2267851980   -1.0156507090
 H   -2.5862072873   -3.4103518888   -0.9551549826
 H   -0.9384933339   -2.8764371575    0.6571829775
 H   -5.7306012539   -3.0720133979    2.0763716430