16

 C   -0.6388730449    0.6638570590    0.1671054024
 O    0.7341557166    0.5015333972   -0.1589078884
 C    1.0352493195   -0.3347939596   -1.1903647910
 C    0.1591801546   -0.8058142959   -2.3139133576
 C    0.8724636695   -1.8501966109   -1.4650785604
 O    2.2328856184   -1.9714921427   -1.8754909369
 C    2.4961208308   -0.5811131411   -1.5331382991
 C    0.2304590193   -2.9208876932   -0.7843624977
 N   -0.3138058777   -3.7697281010   -0.2143821759
 H   -1.1990921087    1.1151167830   -0.6609939150
 H   -1.1010951379   -0.2929562447    0.4413031665
 H   -0.6686992561    1.3334226137    1.0275472353
 H   -0.9080729446   -0.7448418522   -2.1293610033
 H    0.4556019435   -0.6980033104   -3.3550827815
 H    2.9200826698   -0.0186709587   -2.3706792074
 H    3.1440780776   -0.5156995526   -0.6541657800