20

 O   -0.0872313976    1.4126740960   -0.3566558902
 C   -0.0041178408    0.0615046541    0.0742282200
 C   -1.3838700630   -0.5664874163   -0.0673543137
 C   -1.4142231543   -2.0355039514    0.3694623348
 C   -2.7899358959   -2.6563173336    0.2422283917
 C   -3.2733025332   -3.1832787485   -1.0976374994
 C   -2.9573613398   -4.1329098189    0.0320342291
 O   -1.7896370823   -4.9034880110   -0.0191859311
 H    0.7826690059    1.8112240735   -0.2626595173
 H    0.7249579357   -0.5047697300   -0.5290339563
 H    0.3274923662   -0.0013526169    1.1240424149
 H   -2.0948913550    0.0217801665    0.5260338257
 H   -1.7036254133   -0.4781117458   -1.1124158675
 H   -0.7021209175   -2.6218079654   -0.2206828620
 H   -1.0798125861   -2.1159310439    1.4128977623
 H   -3.5503621941   -2.1908452910    0.8650460573
 H   -4.3066118378   -3.0340924246   -1.3918474066
 H   -2.5589752285   -3.1556097970   -1.9149444993
 H   -3.7952906971   -4.6181828755    0.5330741156
 H   -1.9113863215   -5.5790279104   -0.6940019479