17

 C   -0.0273763610    1.5084630683   -0.0091175513
 C    0.0339907158   -0.0024556459    0.0286398146
 C    0.7661089331   -0.6972254078   -1.1547928039
 O    0.9338925671   -2.0590149069   -0.7088957614
 C    0.3626908275   -2.0956723816    0.5740534585
 C    0.7248757097   -0.7487708756    1.1975740066
 O   -1.0787056008   -2.0059370986    0.4450995175
 C   -1.3292698386   -0.7074633018    0.0802379167
 O   -2.4206749217   -0.2824838430   -0.1546030021
 H    0.9752369132    1.9413828701   -0.0799060511
 H   -0.6136952239    1.8456380388   -0.8687719251
 H   -0.5100213484    1.9017450926    0.8896647891
 H    0.1924236317   -0.6826105268   -2.0864913203
 H    1.7484821832   -0.2420749069   -1.3295350891
 H    0.6077750382   -3.0325847053    1.0668882860
 H    1.8028938332   -0.5831351060    1.2555621560
 H    0.2564572919   -0.5767634335    2.1683063994