16

 O    0.0746214308    1.4660757758   -0.1003578118
 C    0.1043184876    0.0751542802   -0.0195454728
 C   -1.2018914702   -0.6043855231    0.2542067702
 N   -2.3252856709    0.2360045404    0.4578476927
 C   -3.5793462536   -0.2499500726    0.6636709832
 O   -3.8701487371   -1.4261150739    0.6879998780
 C   -0.5518357917   -0.7318716367   -1.1411197598
 C   -1.0646831576   -0.0013793123   -2.2552594233
 C   -1.4583391940    0.6734367731   -3.1719456603
 H    0.0859682983    1.7151575641   -1.0347049805
 H    1.0118329931   -0.3232726042    0.4271211252
 H   -1.2202966172   -1.5142938482    0.8422382583
 H   -2.1526042283    1.2306148650    0.4509781551
 H   -4.3122894182    0.5650401255    0.8231004777
 H   -0.1110014637   -1.6985031133   -1.3637811479
 H   -1.8360198572    1.2280893502   -3.9952922940