15

 N    0.0298579109    1.4364324585    0.2034198104
 C   -0.0684386299    0.0499574066    0.0331952388
 C   -1.1643174178   -0.7813023618   -0.0021538815
 O   -2.5174614735   -0.7650066086    0.0631287346
 C   -2.9365216957   -2.1156979731   -0.2701462471
 C   -1.6959998512   -3.0357099511   -0.0647202633
 N   -0.6603851158   -2.0236880860   -0.1228611187
 N    0.6845262882   -2.0259496730   -0.1265804858
 N    1.0309835258   -0.7599494078   -0.0515871117
 H    1.0033170426    1.7116254498    0.1374053717
 H   -0.5064077319    1.9544326595   -0.4829162871
 H   -3.7781281660   -2.3750305049    0.3728385681
 H   -3.2595161113   -2.1273810887   -1.3165660554
 H   -1.6951755911   -3.5417933682    0.9061259661
 H   -1.5936628133   -3.7791262210   -0.8573796293