18

 C   -0.0080189516    1.5518976763   -0.0813584260
 C   -0.0494771067    0.0467528688    0.0749037379
 C    1.2301934366   -0.7834166217   -0.0205529980
 C    0.5342803232   -0.6714578510    1.2936108108
 C    1.1258455574    0.1151591973    2.4543780295
 C    2.0434325421   -0.7032941574    3.2497218359
 N    2.7623834029   -1.3612934709    3.8700645409
 C   -1.2647057405   -0.6092995918   -0.4817228577
 O   -2.1716937993   -0.0247875871   -1.0185011912
 H    0.9535181491    1.9710255566    0.2237766876
 H   -0.1742694203    1.8181697265   -1.1284580372
 H   -0.7991598191    2.0318853811    0.5024797677
 H    1.1984771181   -1.7322087213   -0.5455143989
 H    2.1455667241   -0.2202932596   -0.1688987725
 H   -0.0137643387   -1.5532907360    1.6151983791
 H    1.6717056193    0.9938086797    2.0986187551
 H    0.3313103951    0.4836420358    3.1138209783
 H   -1.2800646815   -1.7191711153   -0.3667838915