23

 C    0.1224839905    1.6004168816   -0.1177095193
 C    0.0866389605    0.0775899130    0.0091884582
 C    0.6564614910   -0.6660528648   -1.2307388695
 C    1.1934825500   -1.9780122773   -0.6863298401
 O    2.4614546208   -1.8255903095   -0.0349245849
 C    1.2843567934   -1.8977192853    0.7782731680
 C    0.7806334457   -0.5392191446    1.2858105513
 C    1.9584997695    0.2951321820    1.8173694798
 C   -0.2514053433   -0.7505573149    2.4048244618
 H    1.1451299954    1.9728000787   -0.2343364530
 H   -0.4479166317    1.9236642723   -0.9952195680
 H   -0.3170506864    2.0924432541    0.7567047050
 H   -0.9680976174   -0.2190022174    0.0826096407
 H   -0.1165664540   -0.8229562445   -1.9897029945
 H    1.4711120598   -0.1072221281   -1.7054779176
 H    1.0623680997   -2.9127831400   -1.2266091733
 H    1.2303666143   -2.7693925465    1.4290224228
 H    2.7196680606    0.4430700510    1.0487245798
 H    1.6217177912    1.2734676060    2.1730988773
 H    2.4359232861   -0.2171835549    2.6598065155
 H    0.2179336682   -1.1612787382    3.3055783026
 H   -0.7261762932    0.1966517921    2.6823267138
 H   -1.0437542506   -1.4403985946    2.0928548735