23

 C    0.8897695217   -0.4232654008    1.4356394443
 C    0.0911870843   -0.0711574485    0.1728615214
 C    0.7768476923   -0.4220349794   -1.1322565476
 C   -0.0365791044   -0.8551049203   -2.3305740828
 C    0.8893231083   -1.8364968964   -1.6560821597
 C    2.2749322084   -1.9426363871   -2.2640774899
 O    2.6851483783   -0.6004000984   -2.5026689598
 C    2.1128383230    0.2349898570   -1.4920195009
 C    2.0418929224    1.6572545159   -2.0264250241
 H    1.1438399233   -1.4883422262    1.4564026656
 H    1.8245537313    0.1416016760    1.5018658907
 H    0.3081577847   -0.1993505007    2.3352853735
 H   -0.8739563183   -0.5907966972    0.2062528134
 H   -0.1498721296    1.0006851220    0.1803321072
 H   -1.1022761096   -0.9890895777   -2.1777540468
 H    0.2375759693   -0.4886157615   -3.3148664492
 H    0.4844116341   -2.6816115589   -1.1104307951
 H    2.9593791185   -2.4520174065   -1.5653680379
 H    2.3111453076   -2.4685089719   -3.2245285341
 H    2.7595510211    0.2198189069   -0.5978914507
 H    1.3761466607    1.7145862263   -2.8920415096
 H    1.6695379239    2.3378806266   -1.2541291977
 H    3.0353379684    1.9982731406   -2.3308356802