17

 O   -0.2115394803    0.0452046805   -0.0729304254
 C   -0.0166067007    1.1970083246    0.2126641889
 C    1.2879818671    1.9391521890    0.0108829176
 O    2.3998089576    1.0708538680   -0.1677942696
 C    2.9882879274    1.4795125377   -1.4064942147
 C    2.1310884559    0.9343078911   -2.5623218840
 C    0.9383468972    1.9381163950   -2.5121317858
 C    1.3477906429    2.7982713253   -1.2985548056
 O    2.7704841178    2.8785763559   -1.4469929003
 H   -0.8192592481    1.8319437697    0.6563906836
 H    1.4508381416    2.5865402520    0.8858383072
 H    4.0517373652    1.2462072466   -1.3974875662
 H    2.6688631730    0.9778788936   -3.5121752369
 H    1.8293615470   -0.0948664212   -2.3648710597
 H    0.9005049796    2.5650977984   -3.4051098394
 H   -0.0283806180    1.4474574325   -2.3937793353
 H    0.9128882348    3.7930620214   -1.2236658644