17

 C   -0.6450771072    0.8148161382   -0.1486541341
 O    0.5893867475    0.1450058268    0.0228446864
 C    1.0427980871   -0.5384702939   -1.1236275392
 C    2.4758367247   -0.9931032195   -0.8470443685
 C    0.1594818360   -1.7131986484   -1.4660995694
 N   -0.2950207622   -2.0586521748   -2.6353217383
 C   -0.9872211674   -3.2071168892   -2.3374498842
 N   -0.9779371669   -3.5540357934   -1.0806291645
 O   -0.2025276177   -2.5501164099   -0.4858970342
 H   -0.5988473725    1.5389636099   -0.9755253985
 H   -1.4719404800    0.1168279868   -0.3410418593
 H   -0.8460611769    1.3483148287    0.7824492109
 H    1.0198487338    0.1181319024   -2.0065110897
 H    2.4965814075   -1.6659826003    0.0137641300
 H    2.8891974611   -1.5121686623   -1.7155872934
 H    3.0930047954   -0.1193835553   -0.6258320308
 H   -1.5144296722   -3.7937050556   -3.0757418633