15

 C    0.0572506967    1.4958184850   -0.1669491227
 C    0.0555701609    0.0141706138    0.1027761378
 O    1.3080942300   -0.6752752692    0.1225498181
 C    0.5500557648   -0.6319023374    1.3451074831
 C    1.2244507476    0.1025950465    2.4914020191
 O    2.3197301091   -0.6342782992    2.9875713338
 C   -0.0480045809   -1.9057929172    1.7188193841
 N   -0.5510748574   -2.8987492312    2.0286239589
 H    0.8737721061    2.0107370338    0.3405969263
 H    0.1653246600    1.6671935207   -1.2426443658
 H   -0.8933792712    1.9376599912    0.1482035660
 H   -0.7250432272   -0.5387260496   -0.4219206563
 H    1.5221134427    1.1030385802    2.1546947365
 H    0.5215773479    0.2153178412    3.3225086609
 H    2.9393903709   -0.7582216688    2.2592106901