15

 O    0.0070173679    1.3818610815    0.0374588348
 C    0.0033822520   -0.0152687490    0.0043526065
 C   -0.5312832138   -0.7739551768    1.2049714401
 C   -1.3614324800   -0.6589710187   -0.0446823364
 C    1.1003003872   -0.5905724290   -0.7904093139
 C    2.0723238071   -0.0014061166   -1.5462050747
 N    2.8367078248   -1.0159763855   -2.0671695240
 N    2.4231595876   -2.1381745480   -1.7036238920
 O    1.2614605594   -1.9078479769   -0.8437431348
 H    0.6951561279    1.6654288587    0.6506081484
 H   -0.0784173356   -1.7296020778    1.4407786055
 H   -0.8146548749   -0.1630192756    2.0544809694
 H   -2.1948589149    0.0332315312   -0.0389798617
 H   -1.4799590112   -1.5360806766   -0.6693042691
 H    2.2610377165    1.0353570691   -1.7582646979