14

 N    0.0404467060   -1.0732639846   -0.0414424197
 C    0.0278845760    0.0798250267   -0.0256883100
 C   -0.0187780691    1.5317519042    0.0506794794
 C   -0.6928904558    2.2077944444    1.2752511819
 C   -0.4185299317    3.6133721112    0.7668441205
 C    0.8765083583    3.4738196201   -0.0254625949
 O    1.2800826752    2.1157050321    0.0270839345
 C   -0.4452577835    3.4694993962   -0.7506995033
 O   -0.6995664204    2.1092356369   -1.0591147214
 H   -1.7526740829    1.9575637478    1.3398874797
 H   -0.1768418817    1.9627025952    2.2045310969
 H   -0.7082116887    4.5131154262    1.2894395898
 H    1.6806365760    4.1880580595   -0.1126347663
 H   -0.8072951477    4.1799276842   -1.4777330171