17

 O    0.0651874251    1.3641233094   -0.3102933835
 C    0.0380650471   -0.0307508564   -0.0402760093
 C   -1.3976501734   -0.5591406871    0.0995505210
 N   -2.1902167080   -0.2425423479   -1.0994314302
 C   -2.3899549168   -1.4174209941   -1.7986352002
 C   -2.0227882455   -2.5245564756   -1.1115016413
 C   -1.4416082507   -2.0820696514    0.1418331471
 N   -1.0010010374   -2.7138406937    1.1669617141
 O   -1.1167291504   -4.1088694863    0.9778165483
 H   -0.2087234937    1.8279303807    0.4881364514
 H    0.5184595281   -0.5129780826   -0.8973084039
 H    0.6059708433   -0.2960499091    0.8610764314
 H   -1.8604538963   -0.1175302198    0.9901970169
 H   -1.9001652765    0.5865770895   -1.6004039052
 H   -2.8415906780   -1.3703856136   -2.7820481793
 H   -2.1685337357   -3.5505707654   -1.4031077825
 H   -0.7831113412   -4.4511328664    1.8131498152