20

 O    0.0711443903    1.6562410353   -0.0263412743
 C    0.1435063308    0.2320526392   -0.0072710794
 C    0.8783818654   -0.3047638517   -1.2462319246
 C    0.1792349747    0.0732548427   -2.5286145387
 C    0.1800165797   -0.8024344221   -3.7054188948
 O   -0.9716265687   -0.7124482636   -2.8646240134
 C    0.7561242722   -0.2789648819    1.2796590519
 C   -0.0782811802   -0.4377325629    2.4920066125
 N    0.4304152224   -1.6247526197    1.7787071493
 H    0.9644213529    1.9988023000    0.0915309483
 H   -0.9015185142   -0.1007326491   -0.0533395559
 H    1.9046025063    0.0909613311   -1.2527042501
 H    0.9544351621   -1.3961758626   -1.1829281384
 H    0.0394051873    1.1429217494   -2.6812510143
 H    0.0677257336   -0.3761245045   -4.7014138314
 H    0.7135799972   -1.7517689277   -3.6664191784
 H    1.8089709252   -0.0203160909    1.4062086569
 H    0.3508260041   -0.2786413116    3.4769123317
 H   -1.1336096878   -0.1902495066    2.4108673851
 H   -0.3148592134   -2.0286109228    1.2140691183