20

 C    0.1198711669   -1.1719532306    1.2541695313
 C   -0.1068214207   -0.1022327197    0.1821061789
 C    0.5588070706   -0.4192642544   -1.1254681795
 C    0.8038309356   -1.6817681210   -1.8323994235
 C    0.1958892607   -1.5642668165   -3.2421863293
 C    0.4513216919   -0.0854415861   -3.4975765174
 C    0.7907733905    0.5082107796   -2.3310860689
 C    2.2869868686    0.4862367048   -2.0135558221
 N    1.9871822676   -0.8249941541   -1.2757224542
 H   -0.3437298158   -2.1227262562    0.9715521106
 H    1.1894437224   -1.3506005652    1.3975390402
 H   -0.3103008191   -0.8618178332    2.2105435361
 H   -1.1809813520    0.0368582890    0.0028706581
 H    0.2661512062    0.8675875736    0.5376149966
 H    0.8209582937   -2.6384848075   -1.3177819755
 H    0.7128299477   -2.1440635510   -4.0156250588
 H   -0.8416595855   -1.9287296808   -3.2147881358
 H    0.9130311705    0.2169765590   -4.4342365707
 H    2.9808410690    0.4287849073   -2.8569426910
 H    2.6637474212    1.1768063028   -1.2527823452