18

 O    0.0145365871    1.4342079556   -0.1256065197
 C   -0.0025986583    0.0379380808    0.1268850978
 C   -1.3900390397   -0.5041831312    0.0031414209
 C   -2.1277844128   -0.9947407012   -1.2116163373
 C   -3.4827631210   -0.3214912760   -1.2850288352
 C   -3.7182040751   -0.1621912705    0.2004992552
 C   -3.0903531428   -1.2687436943    0.9671251238
 C   -2.0240623359   -1.8686212242    0.0399605140
 N   -2.4384967518    0.0845395121    0.9368426541
 H   -0.6372750326    1.8199693145    0.4725431635
 H    0.6589138373   -0.4304891132   -0.6093950634
 H    0.3983048021   -0.1870934201    1.1277676832
 H   -1.5648719402   -1.2756577416   -2.0929593770
 H   -3.4389118955    0.6418604278   -1.8037536307
 H   -4.2516603305   -0.9422713640   -1.7573373889
 H   -4.5749818243    0.3727931988    0.5945286462
 H   -3.4706741859   -1.6978078569    1.8864874531
 H   -1.5861892602   -2.8558075963    0.0773296704