17

 C   -0.0039976561    1.5344699944   -0.0237251149
 C   -0.0066128175    0.0017706743    0.0329337694
 C   -1.4293615736   -0.5637954621   -0.0582368765
 O    0.7482097150   -0.4924023152   -1.0962534927
 C    1.8196300356   -1.2269972946   -0.6784150490
 N    2.6040456994   -1.7460518468   -1.5291729376
 C    1.8025230193   -1.2398505528    0.7983693033
 C    0.7552836485   -0.5352866869    1.2201268904
 H    1.0190998584    1.9172096108    0.0051008533
 H   -0.4771581806    1.8734727943   -0.9493651200
 H   -0.5585219691    1.9520945912    0.8223893817
 H   -1.9046529005   -0.2281272675   -0.9840004498
 H   -1.4084277511   -1.6563102111   -0.0535421106
 H   -2.0349142717   -0.2211101425    0.7865652439
 H    3.3434589615   -2.2564501572   -1.0497503402
 H    2.5455367138   -1.7544734075    1.3920355903
 H    0.4509228688   -0.3453625108    2.2417043190