26

 C   -1.3319989536   -0.3467306339   -0.3793966147
 C    0.1115608535    0.0942953445   -0.0905879741
 C    0.2171312732    1.6279182468   -0.1097304264
 C    0.7090908822   -0.5188607562    1.2088789292
 C   -0.0781021709   -0.0973614414    2.4631240815
 C    0.8849522029   -2.0625777097    1.1443770874
 C    1.6366606709   -2.5315298534   -0.1124714580
 C    1.6063447199   -2.6060567004    2.3902470843
 H   -2.0239623474    0.0098921823    0.3910863688
 H   -1.6730357162    0.0627894178   -1.3362027876
 H   -1.4289044204   -1.4353606443   -0.4353270316
 H    0.7331992713   -0.2600015854   -0.9205862482
 H   -0.4482838350    2.0988620560    0.6214122554
 H    1.2386139718    1.9609311333    0.1046050007
 H   -0.0602255414    2.0185044773   -1.0947262128
 H    1.7224085459   -0.0966711413    1.2998273325
 H   -1.0497318283   -0.6012423105    2.5141137325
 H    0.4657345526   -0.3389828270    3.3792083160
 H   -0.2623596500    0.9800391731    2.4784027666
 H   -0.1168424869   -2.5152668232    1.1241300343
 H    1.8218837123   -3.6097778783   -0.0658967230
 H    1.0821128065   -2.3385873615   -1.0341557675
 H    2.6110870687   -2.0347782541   -0.1978667754
 H    1.0474371444   -2.4266837014    3.3117239216
 H    1.7570546194   -3.6872682277    2.3055177547
 H    2.5951853947   -2.1439859913    2.5023852440