19

 C    0.1238421946    1.4986165555    0.0670535737
 C    0.0788758647    0.0434719853    0.0674975434
 C    0.0421191206   -1.1615262736    0.0825697593
 C    0.0391845272   -2.6050096508    0.0351183597
 C    1.1420687112   -3.2195922337   -0.8094592517
 C   -0.4837887406   -3.3457887509    1.2348263330
 N   -1.2439777833   -3.3382839295   -0.0041604635
 C   -2.4895787516   -2.5837682551   -0.0142456370
 H    1.1498061483    1.8609253344   -0.0620463781
 H   -0.4787485120    1.9182160171   -0.7463256297
 H   -0.2559233576    1.9109229148    1.0085289952
 H    2.1269398874   -2.9400994695   -0.4224232601
 H    1.0513664444   -4.3083720502   -0.8043155039
 H    1.0723389371   -2.8719268227   -1.8447849188
 H   -0.0341872385   -4.2953537006    1.5168736831
 H   -0.8470124744   -2.7425318730    2.0652040374
 H   -2.4580144007   -1.6629670645    0.5863613282
 H   -2.7373486713   -2.3109681195   -1.0447102837
 H   -3.2866907055   -3.2277194832    0.3706558833