18

 O    0.3865624977    0.8780843084    0.9220285928
 C    0.0094981682   -0.2604550551    0.1882874271
 C   -1.4840288401   -0.3563726478   -0.1100311929
 C   -2.1998137259    0.9468116285   -0.5703432774
 C   -2.5904544526    0.2518022342   -1.9055014020
 C   -1.6010138813   -0.8997509001   -1.5764650270
 N   -0.2572084173   -0.7150654836   -2.0998161094
 C    0.6465391343   -0.2206473186   -1.2104679769
 O    1.7584204281    0.2133761501   -1.4385087700
 H    1.2525133239    1.1316494447    0.5678909375
 H    0.3569124393   -1.1805251444    0.6887187011
 H   -2.0448265223   -0.9280844908    0.6287117320
 H   -3.0246400513    1.2846989988    0.0583920037
 H   -1.4999480866    1.7757413370   -0.6882513404
 H   -3.6251276870   -0.1014753013   -1.9097403762
 H   -2.4046644172    0.7987350798   -2.8334597895
 H   -1.9561693932   -1.9215598353   -1.7366959282
 H   -0.0499239265   -0.7162204346   -3.0875431343