19

 C   -0.0644202654    1.5114781593    0.0677375736
 C    1.4893546459    1.4590937240   -0.0025937833
 O    2.1707482243    1.4693573727    1.2484222353
 C    1.4179182123    1.1832606873    2.3919006788
 O    0.7420547322   -0.0676547735    2.4118614067
 C    0.5488884781   -0.7829378216    1.2095010439
 C    1.8336992002   -1.0777841108    0.3705856287
 C    1.3859246321    0.0083622144   -0.6127431613
 C   -0.0680552533   -0.0195534013   -0.0315533888
 H   -0.5522891970    2.0040545959    0.9105005516
 H   -0.4504622049    1.9522367629   -0.8564006988
 H    1.9843368495    2.2109096352   -0.6202033950
 H    2.1369198519    1.1722501118    3.2175045840
 H    0.6772053405    1.9750553567    2.5761843112
 H   -0.0184310477   -1.6644410618    1.5136917372
 H    2.7910473813   -0.9542277054    0.8787369820
 H    1.7846456216   -2.0733266780   -0.0808029689
 H    1.6103453768   -0.0674615985   -1.6774274283
 H   -0.9053256184   -0.5310489793   -0.5087228285