14

 C    0.0078191808    1.4454342641    0.0785083831
 N   -0.0233465326   -0.0056812689    0.1022528259
 C   -1.1035911801   -0.6268481775    0.0034723942
 O   -2.3937245160   -0.1097668234   -0.1377101229
 C   -3.2134722788   -1.1942947729   -0.2012775753
 N   -2.6439695502   -2.3331247880   -0.1221385825
 N   -1.2975409700   -2.0164057353    0.0093455902
 C   -0.2978060232   -2.9826014671    0.1291587620
 O   -0.4985321929   -4.1652984320    0.1305296355
 H    0.6453947466    1.7774983874   -0.7479374490
 H   -0.9776499534    1.9124094153   -0.0304472991
 H    0.4672184909    1.8100046106    1.0036001219
 H   -4.2712168435   -1.0164733582   -0.3124597674
 H    0.6840474323   -2.4922309342    0.2202452835