15

 O   -0.1442072175    1.3052491688   -0.0444975600
 N    0.0173073089   -0.0855063652    0.0295542359
 C   -1.0989836974   -0.6758266218   -0.0534573245
 C   -2.5694449952   -0.2639854730   -0.0832144999
 C   -2.9092255337   -1.7597132936    0.0748504003
 C   -2.3356775752   -2.5636190114   -1.0644766667
 C   -2.2257375235   -2.0492795327   -2.4054873891
 N   -2.1492571691   -1.6331034580   -3.4818256782
 C   -1.4141900082   -2.1252785728    0.0746047711
 H    0.7636962700    1.6208012442    0.0201137310
 H   -2.8297251276    0.3335930315    0.7941583628
 H   -2.9373143862    0.2346391554   -0.9830075858
 H   -3.6979259655   -2.1674481726    0.6927835336
 H   -2.5756263306   -3.6222254658   -1.0257034198
 H   -0.8636988192   -2.8641728529    0.6420189592