17

 O   -0.7377394796    0.9872886224    0.7560265985
 C    0.2145914889    0.7366689902    0.0633418459
 C    1.4462474457    1.6212972963   -0.0165215456
 O    2.5875343620    0.8668675145   -0.4146739822
 C    3.1268278472    1.5376220928   -1.6046247642
 C    2.8643041784    3.0110149773   -1.2681722546
 C    1.3420843017    2.7481110070   -1.1132916577
 C    1.0526610155    2.0364144958   -2.4259408135
 C    2.1331810237    1.3074620916   -2.7311944557
 H    0.2646262848   -0.1680566235   -0.5800311675
 H    1.6089481165    2.0773063457    0.9680276022
 H    4.1502594497    1.1945172050   -1.7392239616
 H    3.3613829978    3.3355807749   -0.3501122432
 H    3.0853536690    3.6926071404   -2.0906477682
 H    0.6929641745    3.5750420668   -0.8327034958
 H    0.0980254617    2.0531786914   -2.9361265723
 H    2.2523824925    0.5955693115   -3.5371771145