16

 C   -0.0638167089    1.5074557985   -0.0794650376
 C    0.0303753199   -0.0102592422    0.0470122566
 C    0.7735273803   -0.4603453790    1.2904135533
 O    1.2440274965    0.3144031944    2.1003079751
 C    0.9153969233   -1.9189506266    1.4977321779
 C    1.5458774577   -2.5571873464    2.5470580591
 N    1.3958983552   -3.8630646822    2.2651855192
 N    0.7128090156   -4.0514234264    1.1090394101
 N    0.4247048974   -2.8749966824    0.6499240454
 H    0.9302799037    1.9603592332   -0.1185614858
 H   -0.6061278980    1.7834691350   -0.9878836254
 H   -0.5830614702    1.9412366831    0.7790771263
 H   -0.9614817034   -0.4804410980    0.0628156119
 H    0.5283930574   -0.4616483641   -0.8209255383
 H    2.0568188637   -2.1825357810    3.4168618510
 H    1.7139771100   -4.6670771459    2.7836923813