19

 C   -0.1818836575    1.5212149862   -0.0257316937
 C   -0.0428862988   -0.0114616363    0.0199680132
 C    0.8334496116   -0.4987862411    1.1319723284
 C    2.1344905124   -0.9592172348    1.1508384515
 C    2.4151086838   -1.2411350169    2.5101843703
 C    3.6895331314   -1.7631666435    3.1016530874
 O    4.8305525516   -1.0126196984    2.6980667759
 N    1.3686115796   -0.9664746114    3.2867350987
 N    0.4249530326   -0.5248769658    2.4302511789
 H    0.7951335822    1.9959050977   -0.1542938481
 H   -0.8247850511    1.8272948410   -0.8564983310
 H   -0.6197674138    1.9093007591    0.8995003975
 H   -1.0383877482   -0.4658167987    0.1066408681
 H    0.3747096994   -0.3699168118   -0.9256471042
 H    2.7918880765   -1.0793151650    0.3047209574
 H    3.5802804836   -1.7982561776    4.1946261410
 H    3.8863013618   -2.7841097289    2.7558608318
 H    4.6642559447   -0.0946075485    2.9365019135
 H   -0.4751504518   -0.2604035152    2.7941798236