17

 O   -0.1002960987    1.5115250621    0.1499973003
 C   -0.0884904002    0.1254401129    0.4018162179
 C   -1.3748128956   -0.5281549507   -0.1220254398
 O   -1.5474738625   -0.1693232799   -1.4981727675
 C   -1.4111473954   -2.0156759640    0.0700029385
 C   -1.8653008624   -2.9299437973   -0.8317555586
 O   -1.7513335030   -4.1923659078   -0.3410495903
 C   -1.2182175529   -4.0839037349    0.9025737115
 C   -0.9865772060   -2.7828777907    1.2119315769
 H   -0.4563965095    1.6056218864   -0.7434562007
 H    0.7795129992   -0.3717420526   -0.0678088442
 H    0.0007589454   -0.0125926943    1.4845849125
 H   -2.2217678460   -0.0505742953    0.3864842828
 H   -0.8943795463   -0.6708876583   -2.0028003142
 H   -2.2986600479   -2.8403809016   -1.8132227730
 H   -1.0637047259   -5.0110766837    1.4293078624
 H   -0.5697782223   -2.4105489203    2.1345175253