13

 N    0.1588736811    1.3285784091    0.1667872308
 C   -0.0537487233   -0.0307067587    0.0510251984
 C   -1.1840837231   -0.8035709775    0.0079813174
 C   -0.7228980387   -2.1517697830   -0.0225953686
 C    0.6429145284   -2.1203097196    0.0005323641
 O    1.0565916621   -0.7922305577    0.0473849608
 C    1.6306040789   -3.1121205228   -0.0175181977
 C    2.4742089418   -3.9741696973   -0.0336000507
 H    1.0492598673    1.6281729352   -0.2075405825
 H   -0.6032431188    1.8904842491   -0.1836440808
 H   -2.2037303122   -0.4543945852    0.0019164472
 H   -1.3246779742   -3.0460162226   -0.0611491131
 H    3.2145742507   -4.7345749590   -0.0479181054