12

 N    0.0397665884   -1.1418058779   -0.1334305233
 C    0.0567586786    0.0121480725   -0.0539593111
 C    0.0542753816    1.4277704499    0.1099041270
 O    0.2072312662    2.2831445923   -1.0231818052
 C    1.1342230348    2.4297847636    0.0414373725
 C    0.4680524280    3.2374628615    1.2129114142
 N   -0.9038004164    3.5877606127    0.7813679058
 C   -0.6162904838    2.2365598682    1.2905922498
 H    2.1894089105    2.3093395599   -0.1695536869
 H    0.9930538405    3.7634560884    1.9974701259
 H   -1.3350320856    4.1078685297    1.5457461226
 H   -1.1163054929    1.7931482191    2.1399345787