16

 N    0.0412225447   -1.1433648562    0.0652499072
 C    0.0368996703    0.0121473241    0.0491691402
 C    0.0121313138    1.4616240996    0.0587410911
 O    0.5099690439    2.0685608325   -1.1600175006
 C    1.3001946874    2.2003748172    0.0154323270
 C    1.3629732094    3.5559942160    0.6777885301
 C    0.0144183603    4.3022839502    0.6322439041
 C   -1.1485012621    3.4129832842    0.9818570334
 C   -1.1576441496    2.1063601823    0.7160739169
 H    2.2202389982    1.6161181952    0.0079591493
 H    1.6724452293    3.3952036538    1.7183710231
 H    2.1440072258    4.1611174237    0.2052949345
 H    0.0494374714    5.1655468768    1.3039960639
 H   -0.1386307965    4.7042148591   -0.3770109969
 H   -2.0191246161    3.8706119832    1.4424793875
 H   -2.0052282103    1.4754156983    0.9574890890