17

 C   -0.1236125507    1.4871186540   -0.0251050464
 C    0.0949240578   -0.0021780932    0.0418256048
 O    1.1494867029   -0.5548681490    0.2091114449
 O   -1.0894921043   -0.6560936691   -0.1187298392
 C   -1.0579536738   -2.0703180283   -0.1354485406
 C   -2.1162673588   -2.8214754287    0.7184485377
 C   -2.3923072020   -3.7814077221   -0.4792502316
 C   -1.6686150521   -2.7577692042   -1.3754683991
 O   -1.6889459602   -2.4944742789   -2.5397237100
 H    0.8165470861    2.0015241317    0.1685946472
 H   -0.4993664001    1.7580523655   -1.0160791291
 H   -0.8796333262    1.7912335809    0.7037071190
 H   -0.0382523393   -2.4208235131    0.0513635976
 H   -1.7570946858   -3.2684488236    1.6453122224
 H   -2.9729777210   -2.1779045631    0.9283529811
 H   -1.8453857807   -4.7270997328   -0.4161987630
 H   -3.4308754117   -3.9921425660   -0.7409579855