18

 C    0.0326537078    1.4414888286    0.1096535101
 N   -0.0420395646    0.0031878326   -0.0802421066
 C   -1.2489943683   -0.6450095997    0.0168507773
 O   -2.3221045528   -0.0737404067    0.1140881991
 N   -1.1459873644   -2.0308779838   -0.0102738065
 C   -2.3682344675   -2.8137026241   -0.1051844294
 C   -2.8335797518   -3.0665743945   -1.5505207423
 C   -2.1919797135   -4.0820912868    0.6213232369
 N   -2.0497256266   -5.0927273593    1.1627327183
 H    0.8346556559    1.8568872649   -0.5067156535
 H   -0.9202467645    1.8697719466   -0.2009840648
 H    0.2095014464    1.7196977170    1.1565308664
 H    0.7888012932   -0.5289534002    0.1249799372
 H   -0.3176455778   -2.4425722169   -0.4133930879
 H   -3.1318670609   -2.2224690286    0.4093705618
 H   -3.0148022047   -2.1034534422   -2.0325906208
 H   -2.0748832743   -3.6161679680   -2.1154415182
 H   -3.7588600016   -3.6488595888   -1.5622100470