25

 C   -0.0294202838    1.3982432384    0.0601190266
 O   -0.0043615563   -0.0061585359    0.0072414116
 C    0.6746935286   -0.5878392988    1.0999155663
 C    0.6796320145   -2.1092544178    0.9413446477
 C    1.4063718000   -2.5179663560   -0.3467388526
 C    1.2752773811   -2.7600793327    2.2024754777
 C    1.1655884712   -4.2877278547    2.2405653086
 C    1.6738025449   -4.8787979223    3.5491792889
 O    1.5455571475   -6.2909022821    3.4722126613
 H    0.9853739415    1.8277235733    0.0450738789
 H   -0.5744520807    1.7512898006   -0.8189918620
 H   -0.5402467168    1.7653884473    0.9650584657
 H    1.7115423906   -0.2074476198    1.1513778899
 H    0.1805314269   -0.3046709988    2.0456342388
 H   -0.3714729848   -2.4192628417    0.8588135771
 H    1.3053162931   -3.5878081967   -0.5481252943
 H    0.9987833901   -1.9701776726   -1.1991615937
 H    2.4775028598   -2.2893456645   -0.2781850671
 H    2.3313435820   -2.4670670459    2.2938648642
 H    0.7682537188   -2.3467014145    3.0857306998
 H    0.1210441662   -4.5941891115    2.1037594811
 H    1.7343266370   -4.7404725074    1.4213412386
 H    2.7242620671   -4.5824990123    3.7074268341
 H    1.0923243712   -4.4713606733    4.3929833238
 H    1.8635879304   -6.6672541802    4.2978186390