18

 C   -0.1097306695    1.6289063050   -0.0416586881
 C    1.3811532555    1.2882928767    0.0304659672
 N    1.1130516426    0.1243858223    1.0144434508
 C   -0.0496586144    0.1001515162   -0.0409097329
 C    1.2627290654    0.0234240464   -0.8988065057
 O    1.7710780929   -0.1561854739   -2.1767063461
 C    3.1040002773   -0.7059477751   -1.9387431348
 C    3.3609655384   -0.7687330889   -0.3824979310
 C    1.9140891793   -0.8533290283    0.1013749571
 H   -0.5360998763    2.0867091262    0.8542735398
 H   -0.4705425385    2.1074585512   -0.9541308824
 H    2.2328265388    1.9525035305    0.1798686240
 H   -0.8395407823   -0.6475051422    0.0403315868
 H    3.1393352575   -1.7058996351   -2.3850029696
 H    3.8330086902   -0.0708171693   -2.4496224625
 H    3.9924499477   -1.6191700929   -0.1176344240
 H    3.8582514969    0.1436539654   -0.0438973967
 H    1.5437259484   -1.8776191441    0.2046346979