17

 C   -0.0166869224    1.4499096881   -0.0249135406
 N   -0.0187661385   -0.0021168848   -0.0259682365
 C    0.5507855350   -0.6267609008    0.9481597715
 C    1.2254722787   -0.0121797833    2.1066066605
 N    1.7936089126   -0.6511847697    3.0774081064
 N    1.7888001620   -1.9987926607    3.0150078356
 C    1.1879575549   -2.7236727674    2.0110981807
 N    1.2262464852   -4.1058343288    2.2012295082
 C    0.5904202179   -2.0734175646    0.9818674483
 H    0.9957296852    1.8845853539   -0.0089931316
 H   -0.5054610243    1.8051182788   -0.9368163319
 H   -0.5680087936    1.8807729013    0.8260977722
 H    1.2651524474    1.0669209471    2.1987933376
 H    2.0889091525   -2.4550904851    3.8609199915
 H    2.1474737767   -4.4610224323    2.4304571909
 H    0.8477118601   -4.6113591003    1.4116857652
 H    0.1451586705   -2.6235647713    0.1619951319