20

 C   -0.0326327508    1.4818364044   -0.0923802990
 C   -0.0397616581    0.0285637566   -0.0243084366
 C   -0.0428191034   -1.1772042829    0.0272794674
 C   -0.0294989136   -2.5947133217    0.1161288201
 C    0.7937267578   -3.4824369634    1.0643244930
 C   -0.3871472005   -4.5111627623    1.0694390123
 C   -1.1633763740   -3.5908096200    0.1149345490
 C   -2.6442191712   -3.3871137934    0.0551220724
 N   -0.3059955020   -3.4588836779   -1.0803562329
 H    0.8803285478    1.8915123093    0.3541256339
 H   -0.0770644856    1.8324394624   -1.1297037712
 H   -0.8854884920    1.9158522053    0.4419536040
 H    1.7449237205   -3.8278135520    0.6536312733
 H    0.9560682625   -3.0210214250    2.0398950247
 H   -0.1711054295   -5.5077127975    0.6770388391
 H   -0.8589247002   -4.5975361815    2.0511327729
 H   -3.0696625304   -3.2964608229    1.0600705687
 H   -2.8892453873   -2.4740074001   -0.4979799928
 H   -3.1390748573   -4.2296915821   -0.4427918277
 H   -0.8079790326   -2.8676272852   -1.7443202605