19

 C    0.0728382565    1.4931852506   -0.1113767703
 C   -0.0642346116    0.0098406831    0.0902477444
 C   -1.3183000050   -0.7265132921   -0.3761876223
 C   -1.1884890003   -2.1429706102    0.2308804716
 C   -0.3234347048   -1.9464417067    1.4749861038
 C   -0.7341275829   -2.3083817104    2.8383882947
 O    0.2292698827   -3.0884742375    2.1238470524
 C    0.5360618171   -0.7485302589    1.2007569661
 O    1.1236175985   -0.7753432843   -0.1122280968
 H    1.0192855881    1.8527660580    0.2995163590
 H    0.0503529497    1.7385767425   -1.1790061537
 H   -0.7492019669    2.0308050568    0.3727788589
 H   -2.2005475411   -0.2070071553    0.0163307285
 H   -1.4039342188   -0.7394949721   -1.4673525871
 H   -2.1519066286   -2.6043128574    0.4573946452
 H   -0.6521307067   -2.8022226375   -0.4560303195
 H   -0.3463275669   -1.7573187144    3.6952123741
 H   -1.7017773198   -2.7840443491    2.9947787220
 H    1.1418418809   -0.3014908751    1.9847669491