17

 N    0.0617509366    1.1693707906    0.5745657517
 C    0.0806223124   -0.0139716186    0.1367814528
 N    1.0425886806   -0.9164167807   -0.3493093436
 C    0.0993558896   -1.9839484950   -0.6256426999
 C   -0.2156154453   -3.0533886170    0.4696061139
 C   -1.3815944390   -2.1327203813    1.0012455107
 C   -0.9947103294   -1.0913095841   -0.0821233951
 O   -1.7272716583   -1.0698537141   -1.3235403540
 C   -0.7204736471   -1.9346299191   -1.9399055678
 H    0.9875810642    1.6011762429    0.5561889473
 H    2.0247479158   -0.8018951935   -0.5557458236
 H   -0.5293905772   -4.0276937951    0.0885960263
 H    0.6049105004   -3.1973938953    1.1737053196
 H   -2.3820042935   -2.5382334671    0.8425845697
 H   -1.2922751400   -1.7919972652    2.0337757079
 H   -0.2261990309   -1.4480713207   -2.7871882778
 H   -1.1574388288   -2.8869494866   -2.2611141982