18

 C   -0.0958752621   -1.2614568375   -0.0842278490
 C   -0.0556811568   -0.0606906525   -0.0190830509
 C    0.0263655068    1.3863587227    0.0566834766
 C   -0.2550145317    2.0899930612    1.4059244143
 C    0.8017769283    1.7590571011    2.4178728542
 C    1.1092950271    2.7831963400    1.3569088454
 C    1.4305970154    2.0668185506    0.0635342777
 C    2.7045200716    1.5331544896   -0.4560260426
 N    2.0474811062    2.7047760109   -1.0856222671
 H   -0.1441412426   -2.3209768744   -0.1365624980
 H   -0.5823469552    1.8409334444   -0.7338838354
 H   -1.2199878206    2.4954317519    1.6807697677
 H    0.6259806558    2.1565211294    3.4122124239
 H    1.2904923005    0.7883931478    2.4021962980
 H    1.3666463326    3.8113778090    1.5760193521
 H    3.6395644201    1.7535245792    0.0516330596
 H    2.6743723523    0.5776507520   -0.9733754762
 H    1.5803228623    2.4241650146   -1.9452255804