19

 C    0.0551202775    1.4739613123    0.0680121188
 C   -0.0091957344   -0.0141565754   -0.0391180789
 C   -0.1256257742   -0.8257126194   -1.1584896599
 C   -0.0561881849   -2.1634380231   -0.6885448849
 C    0.1068366291   -2.1395792708    0.6681465131
 C   -0.0254058962   -3.5058963687    1.2610788129
 C    0.1635234405   -4.3513171297   -0.0402443444
 N   -0.2700810598   -3.4789727199   -1.1693042478
 N    0.0959956386   -0.8241644331    1.0740604782
 H    1.0463557107    1.8328627232    0.3763870450
 H   -0.1680401150    1.9251485518   -0.9017068485
 H   -0.6717090321    1.8678997484    0.7896689390
 H   -0.2396524357   -0.4720485264   -2.1720118337
 H    0.7171955577   -3.7773444279    2.0196354527
 H   -1.0184978280   -3.6777375635    1.7034292431
 H    1.2274707060   -4.6136655810   -0.1340872434
 H   -0.4162958770   -5.2781657808   -0.0254691232
 H    0.2337615680   -3.6955689107   -2.0217022386
 H    0.2498658891   -0.4875746753    2.0083064204