15

 C    0.0634538788   -1.1591392936   -0.0516912776
 C   -0.0026281055    0.0413975521    0.0069216187
 C   -0.0692812036    1.4581683187    0.0667138209
 C   -1.0670080508    2.2628631977    0.8992949847
 C   -0.5169845079    3.6295622436    0.4458530115
 O    0.8710675905    3.5435902297    0.7572443147
 C    1.1684475469    2.3829190143    0.0160092066
 C    0.2084576082    2.3864497547   -1.1378046691
 O   -0.5709969644    3.5488976998   -0.9759833461
 H    0.1170715590   -2.2182636132   -0.0996146743
 H   -2.1024867572    2.1088064684    0.5917924484
 H   -0.9534202761    2.1045797448    1.9728645982
 H   -0.9506982958    4.5561878353    0.8095460069
 H    2.1978345075    2.0588531803    0.0259340275
 H    0.3849306403    2.0655189474   -2.1529969709