17

 O   -1.0049429951    1.3178331633   -0.1414905987
 C    0.0808144024    0.9713550059    0.2469768442
 C    1.3511517683    1.7115478418   -0.0540195713
 C    2.3776343466    1.6985848630    1.0121995721
 O    2.4908330611    0.8326230605   -0.1048320449
 C    1.2597030462    2.8137551176   -1.0737188507
 C    2.5643887600    3.4277791215   -1.6261380872
 O    2.1849464436    3.1217996229   -2.9810435236
 C    1.0140557115    2.4021556013   -2.5456093538
 H    0.2339879762    0.0547427679    0.8580498165
 H    3.0875578990    2.5235059420    1.0484553382
 H    2.1732540421    1.2135620253    1.9659573056
 H    0.5384717566    3.5543461099   -0.7230477510
 H    2.6995181822    4.5036526223   -1.4676989851
 H    3.4768971896    2.8949378326   -1.3311543289
 H    1.0995917216    1.3252637894   -2.7397377968
 H    0.0968020781    2.7808744129   -3.0071801447