18

 C   -0.1035852220    1.4986850814   -0.0437638996
 C    0.0583761184   -0.0015638664    0.0539863760
 C    1.3857447557   -0.6849447136   -0.2127487111
 C    0.7895828340   -0.6829538872    1.1753674656
 C    1.4212358899    0.0639980373    2.3247672725
 O    0.1469274944   -1.8856268622    1.6025574786
 C    0.9266288491   -2.9721288222    1.7775449591
 O    0.4993230573   -4.0110722187    2.1844761970
 H    0.8028954295    2.0311016827    0.2585155952
 H   -0.3226848322    1.7907778762   -1.0760633011
 H   -0.9268604042    1.8538165511    0.5852184012
 H   -0.8054348586   -0.5688454827   -0.2815545374
 H    1.3803687542   -1.6102420745   -0.7776291722
 H    2.2583684891   -0.0611128993   -0.3805128279
 H    1.8538235280    1.0101461584    1.9927163557
 H    0.6755133839    0.2767167471    3.0972468546
 H    2.2226880607   -0.5260188442    2.7823466249
 H    1.9811257529   -2.7954781434    1.4956411388