18

 C   -0.0584753360    1.5044194270   -0.0888611132
 O    1.3515947059    1.6519977138    0.1726823996
 C    1.4899651093    0.2436238150    0.4440555885
 C    0.0414628182   -0.0383208878   -0.0057087472
 C   -0.9412862709   -0.7935584399    0.9106617078
 C   -1.8433762762   -1.5798995641   -0.0765713720
 O   -1.5079715751   -1.1192570014   -1.3816924238
 C   -0.1360619251   -0.7753163461   -1.3372074939
 H   -0.6688635480    1.9659272363    0.6998378599
 H   -0.3491970007    1.9259861558   -1.0589182539
 H    2.2834303513   -0.2180589762   -0.1586044152
 H    1.6914542804    0.0466844615    1.5061047337
 H   -0.4095454574   -1.4720752861    1.5847007067
 H   -1.5155189349   -0.1026093224    1.5331587312
 H   -1.6562968760   -2.6615703149    0.0047011487
 H   -2.9123669181   -1.4075161185    0.0722160341
 H    0.0958739017   -0.1677901230   -2.2160359692
 H    0.5026375316   -1.6771632992   -1.3587016320