18

 N   -0.0182345226    1.2780176105    0.3473020510
 C    0.0304300948    0.0578452201   -0.2623611165
 O    1.0331356483   -0.3323549200   -0.8397514325
 C   -1.2314958872   -0.7417138836   -0.1633843208
 C   -1.5085059491   -1.7637176208   -1.2507544434
 C   -1.1806871359   -2.2410402560    0.1248780866
 C    0.1259403488   -2.9651778684    0.4248109191
 C    0.0175120450   -4.4001217365    0.1814128420
 C   -0.0923422822   -5.5805766522   -0.0173465857
 H    0.8008355907    1.8616572333    0.3081412504
 H   -0.8342022020    1.6146434135    0.8257774828
 H   -2.0868090391   -0.2182800221    0.2527849381
 H   -2.5243158796   -1.8527561647   -1.6178911587
 H   -0.7296645670   -1.8506404677   -2.0005609583
 H   -2.0195054748   -2.5978477976    0.7157724505
 H    0.9260172103   -2.5327752071   -0.1831794427
 H    0.4082264504   -2.7962334833    1.4726052111
 H   -0.1745908285   -6.6234324075   -0.1979659929