19

 O    0.2398856785    1.2964688427   -0.4393178607
 C    0.0585959278   -0.0871601599   -0.1267129993
 C    0.8786953192   -0.4277724067    1.1010355474
 C    0.9263403708    0.2715676931    2.2343706543
 C    0.1723538816    1.5495600415    2.5500828004
 O   -1.2336820684    1.3732471880    2.7216227791
 C   -2.0521882240    1.5267125510    1.5691722607
 C   -2.2937394183    0.2435451399    0.7910333768
 C   -1.4010546672   -0.4535018042    0.0850464097
 H   -0.4014734498    1.5145216539   -1.1243261286
 H    0.4394444909   -0.6923519177   -0.9632848875
 H    1.4375522989   -1.3577473663    1.0359287178
 H    1.5470428652   -0.1200092569    3.0374417635
 H    0.5238262281    1.9391238733    3.5107568228
 H    0.3696872172    2.3046576282    1.7821738062
 H   -3.0126655232    1.8881006044    1.9509611325
 H   -1.6398123566    2.3033393408    0.9140673421
 H   -3.3020353727   -0.1599101111    0.8569801338
 H   -1.7140840880   -1.3914940140   -0.3687488310