16

 O    0.6862541689   -0.0620244285   -0.1451677339
 C    0.4031330951    1.0838001077    0.0325035127
 O    1.1779867542    2.1008399419   -0.3879422994
 C    0.7652993665    3.4485192749   -0.0964766725
 C    1.8279087581    4.1445204995    0.7659927073
 C    2.7328360936    4.7689001967   -0.3000923841
 O    1.8282375987    5.2224187475   -1.2995357083
 C    0.7763142606    4.2739087711   -1.4062627347
 H   -0.5141636053    1.4288292430    0.5497725861
 H   -0.2208413774    3.4220520369    0.3772417728
 H    1.3582954168    4.9310076368    1.3645011162
 H    2.3319943555    3.4428358006    1.4329558007
 H    3.3059430189    5.6308032523    0.0491357637
 H    3.4308913591    4.0202779056   -0.7054290069
 H    0.9344492968    3.5902581152   -2.2510711473
 H   -0.1584309100    4.8206763487   -1.5655992823