18

 C    0.0473532689    1.5720078570   -0.0292380909
 C    0.0377079037    0.0340358194   -0.0538901598
 C    0.7503003407   -0.5208971070    1.2090261682
 N    0.6068035862   -1.9724192161    1.2823424602
 N   -1.3137788726   -0.5181704909   -0.0458755274
 C   -2.2700199825   -0.2311966113   -0.9765403490
 O   -2.1959318489    0.6249774123   -1.8300814714
 C    0.7871296591   -0.4564607347   -1.2387585787
 N    1.4093081499   -0.8776778019   -2.1171079975
 H    1.0758047718    1.9363247356    0.0439166175
 H   -0.4171191003    1.9683357685   -0.9301689958
 H   -0.5164940104    1.9170655188    0.8417934742
 H    1.7882145259   -0.1595746279    1.1979381043
 H    0.2499498272   -0.0819563081    2.0779779305
 H    1.2157696567   -2.4243384411    0.6061435549
 H    0.8709603533   -2.3117656352    2.2000157562
 H   -1.3714242054   -1.4023104098    0.4483685762
 H   -3.1623783632   -0.8744231879   -0.8436046619