16

 O   -0.0465444771   -0.1020172986   -0.1925289861
 C    0.0731781101    1.0053418793    0.2803590549
 C    1.2615038311    1.8116279543    0.1815346691
 C    2.2450513953    2.5129943025    0.1222364654
 C    3.4269728132    3.3403036276    0.0097686157
 C    4.1534939648    3.4797767255   -1.3732745432
 N    4.0690647564    4.9781472787   -1.3325009329
 C    2.6283667902    5.2897552735   -1.3164426333
 C    3.2609495697    4.8669076569   -0.0545653991
 H   -0.7549201210    1.4868833137    0.8396698866
 H    4.1457254216    3.0528030081    0.7824224086
 H    5.1925234393    3.1502339385   -1.3432550517
 H    3.6485025563    3.0292913755   -2.2319802676
 H    2.4233048678    6.3482369543   -1.4397438177
 H    1.9350640934    4.6260436322   -1.8290757132
 H    3.4132059491    5.5348541281    0.7864339245