21

 C    0.2296771262    1.5211193483    0.1867515430
 C   -0.1211961366    0.0483062900   -0.0618773069
 C    0.6135090877   -0.5265098993   -1.2615592475
 O    0.3576306053    0.1451334252   -2.4648822858
 C    2.0029946956   -1.1118234134   -1.0945879465
 O    2.5728869869   -1.0711148797    0.1837291672
 C    0.8169973861   -2.0226748492   -1.4151863162
 C    0.3057912215   -3.0032532741   -0.3822775698
 O    0.7155424877   -2.4798706748   -2.7353335575
 H    1.2992248463    1.6389133854    0.3895080461
 H   -0.0317802534    2.1445994770   -0.6747612893
 H   -0.3203720918    1.9115144619    1.0479295591
 H    0.1198129616   -0.5283673578    0.8331188520
 H   -1.1989993617   -0.0520481552   -0.2381222636
 H    0.8429943276    0.9766885471   -2.4435617419
 H    2.6815858389   -0.9331633959   -1.9300924424
 H    3.0970617103   -1.8695258204    0.3080730213
 H    0.5221343749   -2.6787988869    0.6368600694
 H   -0.7730725192   -3.1530442730   -0.4860041964
 H    0.7906548838   -3.9775652590   -0.5275822220
 H    1.2859309421   -3.2522132061   -2.8207786224