18

 C    0.9687243065    1.1321280677    0.1510940383
 C    0.1807041318   -0.1444841397    0.1322325006
 C    0.7414135646   -1.4941521946   -0.3000391445
 C    0.1176397211   -1.3458913940    1.0530319957
 C    0.6991582957   -1.7122775468    2.3957630694
 C    2.1356414999   -1.4624880799    2.4738707010
 N    3.2709029316   -1.2518784609    2.5160426178
 O   -1.3046243716   -1.4515064815    0.9580448721
 C   -1.3435718094   -0.2558629644    0.1255972224
 H    2.0063222185    0.9507189964    0.4458250777
 H    0.9833967525    1.5994722730   -0.8406451276
 H    0.5408124618    1.8554951455    0.8540758126
 H    0.2389323692   -2.0989320716   -1.0507922578
 H    1.8262655553   -1.5355017503   -0.3190881835
 H    0.1912619517   -1.1468078447    3.1855848345
 H    0.5112808133   -2.7752544438    2.5954477714
 H   -1.8451633709    0.5613948981    0.6569399615
 H   -1.8408557217   -0.4359539785   -0.8345127115