14

 O   -0.1097938681   -0.0259421927   -0.0011654832
 C   -0.0398352728    1.1719291600    0.0081202414
 N    1.1637056078    1.8810083505    0.0005192546
 C    2.4412404688    1.3157146338   -0.0184807781
 C    3.3467286037    2.3281622556   -0.0202966155
 C    2.6140943973    3.5707963436   -0.0017124370
 C    3.1728598514    4.9202610254    0.0032235137
 O    4.3574278592    5.1700748581   -0.0078186811
 C    1.2774522265    3.2554631179    0.0106738798
 H   -0.9119830295    1.8493618623    0.0234166971
 H    2.5410943950    0.2437525050   -0.0284846518
 H    4.4212881620    2.2396154642   -0.0331222572
 H    2.4133270901    5.7340960652    0.0186941923
 H    0.4007030187    3.8843169811    0.0257473651