19

 C    0.1946599810    1.4160400166    0.0932282844
 O   -0.1231503220    0.0489117664   -0.0743768976
 C    0.5481543309   -0.5741754717   -1.1556737923
 C    1.9993291006   -0.6532710946   -0.9550617512
 C    3.1849749298   -0.7236671789   -0.7711138971
 C   -0.0778078642   -1.9682742688   -1.2825492181
 C   -1.5428244002   -2.0160806896   -1.7582192419
 C   -0.9726429189   -2.8008894063   -2.9573122947
 O    0.3787352049   -2.6572335553   -2.4618966959
 H    1.2603871713    1.5607860989    0.3130321357
 H   -0.0611557200    2.0014023199   -0.8034958066
 H   -0.3993971782    1.7778691223    0.9352804945
 H    0.3508148850   -0.0246669785   -2.0924504897
 H    4.2340847713   -0.7909815296   -0.6192458481
 H    0.1365498925   -2.5347713297   -0.3684541907
 H   -2.2300609627   -2.5619152915   -1.1117747049
 H   -1.9723456634   -1.0412345405   -1.9946495687
 H   -1.2716279579   -3.8543030909   -3.0167110278
 H   -1.0957475999   -2.3419190782   -3.9452473194