18

 C   -0.0067443715    1.4529711557    0.0061691825
 N    0.0064529141   -0.0085578865   -0.0242922511
 C   -1.2179133431   -0.6781658284   -0.0384640738
 O   -2.2727239646   -0.0797312833   -0.0355501098
 C   -1.0971212217   -2.1884365604   -0.0305057487
 C    0.1495995883   -2.6389946754   -0.7932837022
 N    1.3462206671   -1.9677172944   -0.3101703840
 C    1.2168828763   -0.7357010945   -0.0076672142
 N    2.3342686003    0.0282691275    0.3017754366
 H    0.7671633927    1.8453595257   -0.6546363717
 H   -0.9922106655    1.7766793171   -0.3247550523
 H    0.1550277393    1.8418862088    1.0194517143
 H   -1.0215450820   -2.5084889927    1.0175927666
 H   -2.0235453047   -2.6007694514   -0.4355154059
 H    0.2870222998   -3.7193291459   -0.6898412217
 H    0.0184654417   -2.4432244956   -1.8697488205
 H    3.1494433488   -0.5616003304    0.3986090638
 H    2.2296845946    0.6809040341    1.0660003521