13

 C   -0.0218556718    1.4817629925    0.0227476256
 C    0.0019728230    0.0292821526    0.0020952927
 C    0.0320759230   -1.1730231580   -0.0218546310
 C    0.0227761548   -2.6392036181   -0.0312243395
 O   -1.2761635658   -3.1826702803   -0.1872785199
 C    0.8229876841   -3.1440956665   -1.1755846590
 N    1.4586139055   -3.5159074452   -2.0634193980
 C    0.6402951198   -3.1390969610    1.2331417251
 N    1.0727808379   -3.5166152973    2.2347816136
 H    0.7773683557    1.8888465752   -0.6049199480
 H   -0.9758298791    1.8617871581   -0.3566969126
 H    0.1170530475    1.8615093439    1.0398900499
 H   -1.8583067846   -2.7144893862    0.4248323114