21

 C    0.0555891139    1.5028409540   -0.1181049278
 C   -0.0151530444   -0.0272018549   -0.0257378766
 C    0.8290259819   -0.5350564685    1.1507007814
 C   -1.4950708591   -0.5140980438    0.0835469006
 C   -2.2785804896   -0.0067802077   -1.0485108193
 N   -2.8834107436    0.3643113917   -1.9615720107
 C   -1.6310583271   -2.0349911368    0.1850719964
 C   -2.8073571049   -2.7739790118   -0.3312677284
 N   -1.4920776621   -2.9023835758   -0.9906936952
 H    1.0933014167    1.8288889753   -0.2350978596
 H   -0.5164018712    1.8877422640   -0.9665105441
 H   -0.3372079619    1.9684321384    0.7938306980
 H    0.3932941568   -0.4508597728   -0.9519300932
 H    0.4071477478   -0.2103257385    2.1096542269
 H    0.9144453626   -1.6240641970    1.1658138225
 H    1.8422647897   -0.1277883273    1.0836395850
 H   -1.9238137154   -0.0762730270    0.9969658540
 H   -1.1433862814   -2.4324300680    1.0705901443
 H   -3.1484757843   -3.6650166258    0.1875324234
 H   -3.5844453592   -2.2129328378   -0.8415009548
 H   -1.4928222651   -2.3397173499   -1.8401656128