12

 N    0.0338908084    1.3716709368    0.1505001736
 C   -0.0599195120    0.0146711710    0.0549560795
 C   -1.2150930280   -0.7095986307    0.0298386496
 C   -1.1424297033   -2.1400126409   -0.0133272559
 O   -2.0753656933   -2.9305424866   -0.0414695205
 C    0.2655103127   -2.6283270958   -0.0246209037
 N    1.3381710951   -1.9292619772   -0.0072648387
 O    1.1709416338   -0.5360798179    0.0291005535
 H    0.9196955920    1.7800789453   -0.1049833310
 H   -0.7837691924    1.9069637834   -0.0914988258
 H   -2.1759937339   -0.2112977331    0.0497005462
 H    0.4306938308   -3.7025389242   -0.0530180868