19

 C   -0.1615774368    1.5459363392   -0.1127087558
 N    0.1287458666    0.1232324017    0.0302487654
 C    0.7149250954   -0.4869653737   -1.1539874904
 C    1.2193986731   -1.9171744232   -0.8224917348
 C    2.2761586850   -1.8953824968    0.1816196267
 C    3.1431946876   -1.8476839296    1.0167027671
 C    4.1995072928   -1.8183257994    2.0186187168
 C   -0.2859369145   -0.5573284499   -2.2342060186
 N   -1.0515786500   -0.6164084893   -3.0973437997
 H    0.7089074496    2.1522126548   -0.4189057446
 H   -0.9487385148    1.6874745277   -0.8600083258
 H   -0.5327176977    1.9312858653    0.8403366888
 H    0.7763778149   -0.0283587440    0.7973987083
 H    1.5702668181    0.0882705555   -1.5562336741
 H    0.3652824299   -2.5053684905   -0.4688930859
 H    1.5759080950   -2.3868078762   -1.7454804184
 H    4.9687354609   -2.5671871967    1.8012114362
 H    4.6903685260   -0.8395951045    2.0502033591
 H    3.8060654088   -2.0263456305    3.0194310697