24

 C    0.0440444719    1.5941375087   -0.0162984044
 C    0.0178989228    0.0634448345   -0.0040277390
 C   -1.4000083363   -0.5176770628    0.0226817031
 C   -1.4303691888   -2.0490155456    0.0236159879
 C   -2.8459105992   -2.6326986529    0.0594293677
 C   -2.8799531184   -4.1644095932   -0.0245655919
 C   -4.2982183717   -4.7239360804    0.0927678914
 O   -2.2385942025   -4.6395523198   -1.2087079297
 H    1.0690920719    1.9777071275   -0.0347948203
 H   -0.4758647995    1.9921370638   -0.8950672295
 H   -0.4490816930    2.0060424471    0.8715051733
 H    0.5479438785   -0.3202558082   -0.8858658747
 H    0.5758120134   -0.3058969538    0.8667325113
 H   -1.9300527641   -0.1380634289    0.9080482680
 H   -1.9607931029   -0.1424815461   -0.8454498811
 H   -0.9142389083   -2.4339554443   -0.8634915258
 H   -0.8651631953   -2.4238442837    0.8885606704
 H   -3.3595524929   -2.3160052407    0.9771647363
 H   -3.4378730706   -2.2241366751   -0.7745940098
 H   -2.2682135254   -4.5736674866    0.7900366517
 H   -4.9391487265   -4.3267011707   -0.7049172479
 H   -4.2854364782   -5.8140047734    0.0084916578
 H   -4.7553092753   -4.4532286773    1.0501823333
 H   -2.7647726695   -4.3424967181   -1.9598532981