13

 O   -0.1253705089    0.0468893185   -0.3764101830
 C   -0.0600842195    1.1692891071   -0.0264782840
 O   -1.1319080121    2.0519112174    0.2875692050
 C   -0.1649978769    2.8957194360    1.0525192512
 C    0.7791204175    4.1758030383    0.9337500655
 O    1.8756898276    3.1553789055    1.0923884074
 C    0.9254283252    2.3650724700    0.2100798245
 C    0.9177778280    3.2435387628   -1.0570332715
 C    0.8225945390    4.4723585879   -0.5523141566
 H   -0.1916892763    2.5522203494    2.0856644498
 H    0.8156346240    4.9565612627    1.6913497216
 H    0.9819443943    2.8803394042   -2.0712194604
 H    0.7856270879    5.4421018703   -1.0246631594