18

 C   -0.1954282886    1.5302582622    0.1372795068
 C   -0.0698388578    0.0272921988    0.1493608048
 N    1.2258231137   -0.5414232631   -0.2792782622
 C    0.7837824387   -0.7391990402    1.0990268271
 C    1.6096372145   -0.1045421316    2.2139606813
 O    1.1693162247   -0.7333293359    3.4292833635
 C    0.4627113678   -1.8692713960    3.1795821765
 O    0.0229117853   -2.5553472515    4.0537666972
 C    0.3620410460   -2.0784450768    1.6708423545
 H    0.7493538728    2.0074882302    0.4084180384
 H   -0.4655675978    1.8806767279   -0.8642017203
 H   -0.9717882801    1.8655836501    0.8332934612
 H   -0.9640755548   -0.5014960362   -0.1809309435
 H    1.0924425134   -1.3886868915   -0.8260413886
 H    2.6784931560   -0.3017108326    2.0732581876
 H    1.4613822037    0.9715212516    2.3207748296
 H   -0.6418983847   -2.4083496409    1.3983932087
 H    1.0638712871   -2.8771465145    1.3963201274