21

 C    0.0340880899    1.5937743478    0.0625623452
 C   -0.0183537203    0.0605620325    0.0574820048
 C   -1.4408405700   -0.5114931486    0.0188712957
 O   -2.2633308427    0.0112452058    1.0444697137
 C   -2.0837810370   -0.5620510966   -1.4055065067
 O   -1.5752001280    0.3718347625   -2.3328638203
 C   -1.6517278509   -2.0479355133   -1.5240098966
 C   -1.4826840984   -2.0613130788    0.0197190045
 O   -0.3493810356   -2.6808040534    0.5784663245
 H    1.0725351649    1.9380999151    0.0483600378
 H   -0.4738694690    2.0104605788   -0.8105174509
 H   -0.4183634146    2.0134857570    0.9691901251
 H    0.5399680015   -0.3168087730   -0.8042203950
 H    0.4741662862   -0.3366428689    0.9499956269
 H   -2.2168258970    0.9722495184    1.0067293146
 H   -3.1732991041   -0.4697262611   -1.3004663826
 H   -1.9936315875    0.2111559289   -3.1844236248
 H   -2.3518934306   -2.7558718872   -1.9732980965
 H   -0.6782009634   -2.1270251012   -2.0153242165
 H   -2.4050961872   -2.3827950008    0.5201348931
 H   -0.4987306661   -3.6308222140    0.5909166640