15

 C    0.0186162332    1.4712848613    0.0081949005
 C   -0.0981117910   -0.0100822840    0.0515471043
 C   -1.1136639335   -0.8761665925   -0.2057308148
 C   -0.5224022290   -2.1441369067    0.0364635671
 O   -1.1922572963   -3.3098283740   -0.0937801399
 C   -0.4823088373   -4.4835356521   -0.0548797737
 N   -1.1307804437   -5.5599509316   -0.0516107179
 N    0.7309049321   -2.0630268862    0.4125297915
 O    1.0047959444   -0.6931994323    0.4154299853
 H    0.7967647944    1.7802028926   -0.6971036844
 H   -0.9292450301    1.9149464748   -0.3008939646
 H    0.2875771243    1.8695573932    0.9917951276
 H   -2.1213923741   -0.6658226452   -0.5190094631
 H    0.5982694218   -4.3332807593   -0.0430351209
 H   -0.4884112952   -6.3502457781   -0.0454908370