17

 C   -0.0042752075    1.5724691479    0.0212500703
 C    0.0436826716    0.0695086727    0.0525989723
 C   -1.2047519974   -0.8159147495    0.1948298373
 N   -0.3671910661   -1.9086582386    0.7951993119
 C    0.9354985210   -1.8553734505    0.0373646946
 C    0.6679422982   -0.8976958524    1.1391492868
 C    0.8885364432   -0.7349855979   -0.9915406693
 O    0.4102652872   -0.9405141033   -2.2959888833
 H    1.0005118571    2.0060005955    0.0685760600
 H   -0.4694417646    1.9164378020   -0.9096995139
 H   -0.5854275116    1.9767407954    0.8570175760
 H   -1.8976967102   -0.4583090617    0.9611953208
 H   -1.7720463562   -1.0826556093   -0.7074460755
 H    1.5293177557   -2.7601633830    0.0427924657
 H    1.1111052961   -0.7709464329    2.1174531424
 H    1.8767067798   -0.2767682347   -1.0968412868
 H   -0.3444545963   -1.5359650195   -2.2553865993