23

 C    0.0164541727    1.5251121425    0.0099811242
 C    0.0068605775   -0.0084441619   -0.0710696776
 C   -1.4244582355   -0.5576857388    0.0185950619
 C    0.7133473641   -0.5019251904   -1.3155106543
 C    2.1942653647   -0.2164581255   -1.7340193696
 C    1.6084944839   -1.1160057959   -2.8399498698
 O    2.3397081573   -1.5266866249   -3.9394133571
 C    0.9682178724   -1.9896430798   -1.7203210177
 C    0.3231396277   -0.2331049563   -2.8076587366
 H    1.0357579824    1.9222677107   -0.0147950838
 H   -0.5355841820    1.9650973018   -0.8282963543
 H   -0.4559486900    1.8685642612    0.9359927895
 H    0.5704042990   -0.3946762099    0.7910207061
 H   -2.0338123127   -0.2019104334   -0.8200077158
 H   -1.4368495948   -1.6517817799    0.0020300105
 H   -1.9094384218   -0.2300494541    0.9438036089
 H    2.4370636639    0.8105239037   -2.0195785239
 H    2.9726983260   -0.6582491610   -1.1053506725
 H    1.7738455347   -2.0762632623   -4.4922302356
 H    1.6566700785   -2.5575998581   -1.0878803315
 H    0.0891477930   -2.5805379897   -1.9958388590
 H   -0.6032129821   -0.6955147389   -3.1624334143
 H    0.4279502413    0.7937272910   -3.1681037376