20

 C    0.0867478839    1.5584280271    0.1380897992
 C    0.0342648639    0.0334929583    0.0354814826
 C    0.7192423440   -0.4932074065   -1.2420844165
 O    2.0828103750   -0.0764678404   -1.3258373575
 C    0.5904906610   -1.9487136520   -1.3527403114
 C    0.5088638898   -3.1516936819   -1.4058431909
 C    0.4344469300   -4.5828579245   -1.4819643647
 C   -0.2238154064   -5.2297793536   -2.6584648447
 N    1.2294585923   -5.3147943046   -2.5011845189
 H    1.1199079924    1.9116149859    0.0929806411
 H   -0.4627686000    2.0279959338   -0.6854247655
 H   -0.3579497100    1.9034728806    1.0759974622
 H    0.5248257980   -0.4275275988    0.9024001531
 H   -1.0029084826   -0.3210086894    0.0420850891
 H    0.2393574450   -0.0229132525   -2.1104537997
 H    2.5826097721   -0.6094874979   -0.6971686287
 H    0.3901303208   -5.1018340997   -0.5278751752
 H   -0.7575226100   -6.1648286138   -2.5140074947
 H   -0.6361070324   -4.5744292958   -3.4196850575
 H    1.6791722333   -4.6356208241   -3.1109194914