21

 C   -0.0439324531    1.5362273371    0.0330810643
 C    0.0813134215    0.0106323643    0.0003325361
 C    0.7083835168   -0.5591673149    1.2771089515
 C    0.8311249059   -2.0741463819    1.2406579835
 O    1.4239441494   -2.5009329398    2.4697848623
 C    1.6053486269   -3.8281051858    2.6071665995
 N    2.1193125404   -4.3045868910    3.6515967667
 C    2.2792604946   -5.7413788467    3.7172866730
 H    0.9367283270    2.0105407263    0.1479479361
 H   -0.4938845060    1.9182965846   -0.8882231917
 H   -0.6690269169    1.8631901625    0.8710650798
 H   -0.9109883234   -0.4348476551   -0.1501506284
 H    0.6833430042   -0.2885642141   -0.8678853436
 H    1.7057464629   -0.1305949666    1.4321614576
 H    0.1089392276   -0.2772381071    2.1509687659
 H   -0.1574672111   -2.5402458698    1.1211844612
 H    1.4566859124   -2.3919744144    0.3941864116
 H    1.2708952441   -4.4271732140    1.7441124909
 H    1.7381951878   -6.1335063659    4.5862842822
 H    1.9231337842   -6.2753413002    2.8202682491
 H    3.3369402448   -5.9885599774    3.8652705626