20

 C    1.0175332003   -2.3189564458    1.1129681753
 C    0.0484281255   -1.5482898691    0.2017849467
 N   -0.3524608701   -0.2269990269    0.7014804906
 C    0.6303104643   -1.3733599733   -1.2038015697
 C    0.4318691357   -2.4397296217   -2.2441630138
 N   -0.1995609776   -1.1462102815   -2.3913867007
 C   -1.6467628481   -1.0325256609   -2.2525409740
 C    1.8694615160   -0.6122337913   -1.2186723254
 N    2.8572650889   -0.0117265578   -1.1820391598
 H    1.2356592814   -3.3168543621    0.7175244159
 H    1.9647770928   -1.7807394046    1.2207112385
 H    0.5791431227   -2.4381095370    2.1089655055
 H   -0.8667087363   -2.1403397276    0.0990782802
 H   -0.7401881081   -0.3199462798    1.6362097332
 H    0.4697960646    0.3660164843    0.7948144369
 H    1.2251011474   -2.6771361034   -2.9473889568
 H   -0.1839885929   -3.2864761299   -1.9380747118
 H   -2.1093650579   -1.8370663816   -1.6621025366
 H   -1.8841413441   -0.0767402104   -1.7817448305
 H   -2.0828593945   -1.0570129196   -3.2554326939