19

 N   -0.1946237288    1.4671617945    0.0888421364
 C   -0.0780623540    0.0316813257    0.0345898755
 C    1.0296482678   -0.4837378968   -0.7469953054
 N    1.9264852091   -0.8506900732   -1.3809755155
 C   -0.4595710576   -0.8165149029    1.2488441280
 C   -1.2238123000   -0.1475016297    2.3834789954
 C   -2.4798279007    0.4984016145    1.7426373678
 C   -2.6674298465   -0.1884800485    0.3647951122
 C   -1.3339531710   -0.8413112166    0.0261106577
 H    0.6458657910    1.8777675037    0.4840029716
 H   -0.3043534230    1.8508402230   -0.8449254340
 H    0.2064153988   -1.6386076110    1.4841864679
 H   -1.5030632956   -0.9270532328    3.1011446309
 H   -0.6211354249    0.5851012643    2.9292209003
 H   -3.3627523006    0.3778513591    2.3764926082
 H   -2.3121682963    1.5651815922    1.6010873807
 H   -3.4217487623   -0.9815025154    0.4181636185
 H   -3.0028469855    0.5175196168   -0.4012434369
 H   -1.3253853899   -1.6820494069   -0.6578828592