22

 C   -0.0351653759    1.5064891035    0.0018906352
 C    0.0263408665   -0.0249983766   -0.0128258301
 C   -1.4131331842   -0.5479580858   -0.0754830477
 C    0.9650235732   -0.6127214510   -1.1257738165
 C    1.9711724706   -1.3225042037   -0.2057324505
 O    2.9898873912   -1.9803077264   -0.8882905015
 C    1.0276194930   -1.9664774433    0.8447596793
 N    0.7158704824   -0.5349357435    1.2463647842
 C    2.1715884215   -0.2614350018    0.9089249087
 H    0.9496427269    1.9778035515    0.0012638420
 H   -0.5671205296    1.8665059965   -0.8845493963
 H   -0.5747431050    1.8510678980    0.8894991869
 H   -1.9176668194   -0.1452604444   -0.9595900214
 H   -1.4744542200   -1.6363217716   -0.1362707890
 H   -1.9671572168   -0.2267268198    0.8119826452
 H    0.4610444319   -1.3162866186   -1.7945513321
 H    1.4473804919    0.1538075358   -1.7389899625
 H    3.5711896272   -2.3947031075   -0.2420448966
 H    0.1857439235   -2.5777279339    0.5187353744
 H    1.5569588696   -2.4682222841    1.6600413460
 H    2.8080781095   -0.6034505960    1.7302265369
 H    2.4282843322    0.7646513229    0.6444737355