20

 C   -0.3679712237    1.5590538335    0.3060445225
 C   -0.0450435857    0.0782000917    0.1386074506
 C    0.5419477892   -0.4430838404   -1.1743552686
 C    1.9368829097   -0.0207080974   -1.4571540283
 C    2.5397558406    1.2613607978   -1.2076953456
 C    3.1112406148    2.3182527344   -1.1304809087
 N    1.7113358779   -1.1309659554   -0.4899125622
 C    1.1870528720   -0.5982746135    0.8315541633
 C    2.1426037164    0.1549510080    1.7401050757
 H    0.4869411771    2.1986786643    0.0828959119
 H   -1.1868154486    1.8479412400   -0.3622664873
 H   -0.6923979743    1.7666358267    1.3316179708
 H   -0.9419397630   -0.5013607061    0.3778261346
 H   -0.0337293309   -0.9456244188   -1.9473159377
 H    2.3236252433   -0.4592850770   -2.3765894539
 H    3.6024885688    3.2548258025   -1.0324579590
 H    0.8464859614   -1.4909265781    1.3646034564
 H    2.4750420446    1.1038385241    1.3208957083
 H    1.6568040473    0.3537340706    2.7018628402
 H    3.0274664129   -0.4606101170    1.9342284669