19

 O    0.2495207975    1.3185509539    0.4865592291
 C    0.1901659658   -0.0791990991    0.3218855480
 C   -0.7016647571   -0.8166595884    1.2978874875
 O   -1.3044457203   -0.0736105126    2.3121832444
 C   -1.1340272183   -0.6102107284   -0.1360741908
 C   -2.3785762084    0.1858847224   -0.5374571468
 C   -2.8783090012   -1.0986942725   -1.2646165844
 O   -3.5088007156   -0.9904743838   -2.5130302537
 C   -1.4390020030   -1.6922591933   -1.1765057184
 H    0.9958435584    1.5151520357    1.0644677450
 H    1.1025931916   -0.5421601698   -0.0522830060
 H   -0.4283973787   -1.8141288406    1.6320024620
 H   -1.1097083779    0.8529298004    2.1122005474
 H   -2.9964316034    0.5803016115    0.2722665171
 H   -2.1524917297    0.9930903315   -1.2435679562
 H   -3.5712770468   -1.6598283265   -0.6324078793
 H   -2.9359512870   -0.4765793558   -3.0923711257
 H   -0.8870109429   -1.5366386651   -2.1120381511
 H   -1.3376892632   -2.7397364394   -0.8789244781