19

 C   -0.1241756557    1.5379530450    0.0785968924
 C    1.2203085349    0.8077818614   -0.0313682132
 C    2.3342976848    0.4255848906    0.9208754291
 C    2.6400279926   -1.0493277569    0.6589397229
 C    1.7693831522   -2.0086550853    0.3023192086
 C    0.2504954528   -1.9035053229    0.2108623363
 C   -0.2862209577   -0.9115214984    1.2589126055
 C   -0.0463918643    0.0499622099    0.1066972307
 O   -0.2509267469   -1.0050713274   -0.8549478921
 H   -0.4329433388    2.0062063995    1.0100458330
 H   -0.4431571778    2.0682798931   -0.8123751533
 H    1.5547602753    0.7877499286   -1.0664047149
 H    3.2412991352    1.0210955413    0.7671802408
 H    2.0481072186    0.5807805801    1.9696654280
 H    3.6885710580   -1.3330282659    0.7328917834
 H    2.1723390002   -3.0011516113    0.1144163231
 H   -0.2151504686   -2.8863584835    0.1171816101
 H   -1.3537210178   -1.0482982826    1.4490236098
 H    0.2611052732   -0.7912730551    2.1942635900