17

 C   -0.0221993265    1.5422131254    0.1056460997
 C    1.2883032314    0.8010052083   -0.0421226928
 C   -0.0216794079    0.0426691434   -0.0291986997
 C   -0.2647447837   -0.5993147909   -1.3865320469
 O   -0.2359421031    0.3765386266   -2.4193906861
 C    1.1423351274    0.6054032749   -2.6305116486
 C    1.8444031203   -0.6163706223   -2.1292378820
 O    0.8324869796   -1.4769959608   -1.6580076895
 C    1.9864075935    0.7064835284   -1.3684916090
 H   -0.2495319885    1.9466319664    1.0856198467
 H   -0.3842358589    2.1280952513   -0.7298110516
 H    1.9290876624    0.7371403415    0.8315857259
 H   -0.2793278923   -0.5720381027    0.8262019637
 H   -1.1934621122   -1.1674386727   -1.4601059290
 H    1.3493702227    1.1482794119   -3.5428113419
 H    2.6647526624   -1.1369947065   -2.6038198325
 H    2.9379348232    1.2176411378   -1.4776720264