13

 C   -0.0394753831    1.5047123368   -0.0002859858
 C   -0.0171726198    0.0019997767    0.0304980631
 N   -0.2540431766   -0.6324129324   -1.1278172677
 C   -0.2336298231   -1.9629871857   -1.0974439689
 N   -0.0036759894   -2.7489036450   -0.0432644611
 C    0.2306105513   -2.1061476291    1.1032151565
 C    0.2356449935   -0.7205766302    1.1966700357
 H    0.1628861532    1.9347699961    0.9831665219
 H    0.7053901761    1.8769712369   -0.7106177048
 H   -1.0147185443    1.8588623671   -0.3488157188
 H   -0.4267725250   -2.4684494124   -2.0413178420
 H    0.4209712899   -2.7252336017    1.9774952700
 H    0.4285847273   -0.2213062372    2.1393388119