21

 C   -0.2327212336    1.5234206096    0.0850679377
 C   -0.0087522983    0.0201890008    0.0155405582
 C    0.7291334691   -0.5411472447    1.2264682711
 O   -1.3308764730   -0.5788657415   -0.0712481081
 C   -1.4235704626   -1.7824634228   -0.6661651876
 O   -0.4847473591   -2.3911142733   -1.1225114130
 C   -2.8581658979   -2.2607861254   -0.6883071372
 C   -3.0035693200   -3.6303473114   -1.3359644120
 O   -4.3833941307   -3.9625639359   -1.2960059148
 H    0.7284312626    2.0447338613    0.1212696313
 H   -0.7836874941    1.8755466857   -0.7911165827
 H   -0.8028190103    1.7901414953    0.9804901135
 H    0.5311909529   -0.2486337050   -0.8967180574
 H    0.8692622905   -1.6193279322    1.1241627459
 H    1.7152041251   -0.0742702625    1.3141190626
 H    0.1700772288   -0.3392862376    2.1458253265
 H   -3.2417338559   -2.2828446439    0.3376805037
 H   -3.4703646301   -1.5234193584   -1.2193949406
 H   -2.6216408437   -3.5941189616   -2.3660083493
 H   -2.3913304176   -4.3634377969   -0.7916160074
 H   -4.4932076321   -4.8266926497   -1.7027761302