21

 C   -0.0643717634    1.5976699633    0.0444489376
 C    1.4592176180    1.2672230350    0.0574833870
 C    1.1342442891    0.1937934591    1.1404628017
 C    0.0154431691    0.0407880318    0.0654887046
 C    1.1399286945    0.1731694453   -0.9946977163
 C    1.0136766136    0.3117432160   -2.5344549890
 C    2.5629916504    0.1455405655   -2.5863938696
 C    2.0713607513   -0.9270650373   -1.5673200489
 C    0.9268312652   -1.2443133029   -2.5773218158
 H   -0.4604660510    2.0697874297    0.9478633400
 H   -0.4649145732    2.0634237057   -0.8589501587
 H    2.2863059606    1.9788343620    0.0645435484
 H    1.8384124318   -0.6345912684    1.2473138924
 H    0.8148927337    0.5761594817    2.1139889768
 H   -0.8205241271   -0.6602187398    0.0817273338
 H    0.4089988151    1.0199267063   -3.1030990796
 H    2.9730236602   -0.2372171227   -3.5251765745
 H    3.1652936566    0.9673558948   -2.1922581330
 H    2.6849187618   -1.6458547181   -1.0219724913
 H    0.0209042585   -1.7034979538   -2.1749080748
 H    1.2322446440   -1.7160390520   -3.5154797681