18

 C   -0.2969709658    1.0712251078    0.2459213959
 O    0.5669042679    0.0171465759   -0.1488653195
 C    1.1104443846   -0.6755829854    0.9233541136
 C    0.3034319074   -1.6030421479    1.7829252546
 N   -0.8152655429   -2.1457079782    0.9846018067
 C    0.1695199171   -2.8048531410    0.0673581948
 C   -0.0090391581   -2.4945238971   -1.4092681492
 O    0.7039932453   -2.9544263937   -2.2638304086
 C    1.3578078114   -2.1443142406    0.7993612487
 H    0.2351926079    1.8190393659    0.8518448353
 H   -0.6536840523    1.5482746627   -0.6694040624
 H   -1.1519646904    0.6866371044    0.8147578483
 H    1.8923407127   -0.1396163599    1.4664930074
 H    0.2752856070   -1.5661378819    2.8658220498
 H   -1.3242396034   -2.8460091296    1.5129545551
 H    0.2042666565   -3.8922849037    0.1919878996
 H   -0.8598487125   -1.8191876910   -1.6358551531
 H    2.3296504775   -2.6006082767    0.9328273531