18

 C   -0.3194248296    1.4214531769    0.1067474164
 C    0.1133298794    0.0039105573   -0.1047456188
 N   -0.7201533319   -1.1471527415    0.3319793341
 C    0.6738003352   -1.0328981860    0.8194272305
 C    1.5351191698   -1.6608529707   -0.2785742069
 C    1.0384034916   -0.5051709472   -1.2188337706
 O    0.5589014067   -0.7440637192   -2.5381445826
 C   -0.4283942935   -1.6481310116   -2.7544671823
 O   -0.8463331199   -1.8510368600   -3.8567040027
 H    0.5209591780    2.1119666875   -0.0194434493
 H   -1.0970144742    1.7071771781   -0.6104523339
 H   -0.7237582823    1.5632832376    1.1148229955
 H   -1.3372588246   -0.7986466900    1.0654193168
 H    0.8914335623   -0.9567145181    1.8771325226
 H    2.6120308210   -1.6228265687   -0.1074050777
 H    1.2415169627   -2.6754543863   -0.5543909249
 H    1.8460062971    0.2146018461   -1.3668975372
 H   -0.7882310875   -2.1364238443   -1.8375017391