21

 C    0.0842519157    1.6411282792   -0.0224667039
 C    0.1344194965    0.1120581025   -0.0626650299
 C    0.6027852698   -0.5056281749    1.2641162492
 C    0.6555251661   -1.9995330847    1.2454323470
 C    1.3216658776   -3.0458170994    2.1428453495
 C    0.0103248924   -3.8077418307    2.3233432370
 C   -0.3975835952   -3.1584859439    0.9770329060
 O    0.4948930444   -3.7769961523    0.0084968568
 C    1.5413057262   -3.0218676719    0.6164173644
 H    1.0719433814    2.0651050719    0.1912437629
 H   -0.2547652240    2.0536422157   -0.9776647007
 H   -0.6013469434    1.9959098101    0.7553413816
 H   -0.8584785247   -0.2829794704   -0.3119445996
 H    0.8028900336   -0.2192161050   -0.8664826214
 H    1.6031561661   -0.1250401845    1.5133742045
 H   -0.0554305075   -0.1667590384    2.0771744499
 H    2.1296467069   -2.8991664616    2.8491293098
 H    0.0225078202   -4.9020844619    2.3492089469
 H   -0.5718569487   -3.4088235238    3.1582490244
 H   -1.4275488259   -3.0853832850    0.6327439538
 H    2.5042951024   -2.9614911009    0.1257222617