20

 C   -0.0818829476    1.5218177348    0.0188940264
 C   -0.0191549066    0.0074676316    0.0041493836
 C   -0.7677308802   -0.7424646662    1.0598046429
 C    0.7592845534   -0.6802045433    1.1253886802
 C    1.5457410035   -1.9108838031    0.8354740953
 O    2.4160717670   -2.3116934612    1.5795577234
 C    1.2467362101   -2.5811209748   -0.5069197839
 N    1.1621840103   -1.6033509589   -1.5948975430
 C    0.0816104256   -0.6387828612   -1.3969576059
 H    0.8085743625    1.9599795366   -0.4462818310
 H   -0.9577804241    1.8819021780   -0.5333861467
 H   -0.1515377056    1.9080529324    1.0406100216
 H   -1.3034701395   -0.1844439234    1.8204121863
 H   -1.2245412104   -1.6920116810    0.8000712196
 H    1.1854672754   -0.0650064621    1.9113990434
 H    2.0389844664   -3.3067942746   -0.7065639935
 H    0.2964729599   -3.1308025199   -0.4603513252
 H    2.0478270438   -1.1093072891   -1.6566530591
 H   -0.8648068851   -1.1443885765   -1.6299278735
 H    0.2054964514    0.1515071818   -2.1437619910