22

 C   -0.3342410575    1.3947456549    0.2233583793
 N   -0.2011567377   -0.0459605733    0.3156743981
 C    0.9398196179   -0.6539277214    0.7517664980
 O    1.9292891239   -0.0343294446    1.1081131107
 C    0.9056400168   -2.1824740142    0.7580442186
 C    1.8802457714   -2.7311747968   -0.2967992055
 C    1.2708211316   -2.6699868991    2.1637938139
 O    1.1735305827   -4.0777880499    2.1881898211
 C    1.5491195108   -4.6290868460    3.4271467852
 H   -0.5415082739    1.7117004448   -0.8048649881
 H   -1.1361872986    1.7652378188    0.8718228643
 H    0.6136043569    1.8267656242    0.5464066372
 H   -0.9773943805   -0.6238363252    0.0408202408
 H   -0.1071066678   -2.5409248868    0.5348617953
 H    2.8787250591   -2.3170939857   -0.1298015259
 H    1.9313356941   -3.8194367976   -0.2270076617
 H    1.5631508602   -2.4584747238   -1.3081431016
 H    2.2894586098   -2.3360638647    2.4119275272
 H    0.5901467728   -2.2273277177    2.9113863395
 H    0.9060230654   -4.2698697164    4.2465555513
 H    1.4459247086   -5.7141902606    3.3482977496
 H    2.5928802842   -4.3876499991    3.6824778423