15

 C    0.0368618188    1.6370983384   -0.0081022956
 C    0.1312642496    0.1192304274   -0.0122198230
 C    0.8088222368   -0.6377471362   -1.2000439191
 O    1.6900496176    0.2429855711   -1.8651339059
 C    1.5330068746   -1.5832020493   -0.1898806598
 C    1.1433278291   -0.5803903474    0.9131245359
 O    1.5360786650   -0.3662902299    2.0220012434
 H    0.9938491808    2.0834240123   -0.2845924835
 H   -0.7210132300    1.9898596912   -0.7139223593
 H   -0.2341566474    1.9892838444    0.9914267261
 H   -0.8514675473   -0.3334334984    0.1772134181
 H    0.1225237797   -1.1259061968   -1.9019365818
 H    2.2302994718   -0.2725749817   -2.4720047481
 H    1.0352756820   -2.5493498422   -0.0553760812
 H    2.6021557590   -1.7463451230   -0.3476009862