23

 C    0.0288363706    1.6017492543    0.1137385722
 C   -0.0705513414    0.0852708951   -0.0887659099
 C    0.7052200944   -0.4588524203   -1.2993528640
 C    0.2336810842    0.1556223307   -2.6137360877
 C    2.2503204321   -0.4764700319   -1.0588156280
 C    2.1655901577   -1.9629925796   -0.6348595617
 C    0.7592722691   -2.0439247746   -1.3045594589
 C   -0.2866848958   -2.8127603109   -0.6638702244
 C   -1.1522373119   -3.4487415127   -0.1206925305
 H    1.0695927670    1.9350137084    0.1915519310
 H   -0.4361594691    2.1557990924   -0.7071324843
 H   -0.4794892363    1.8974619181    1.0366985107
 H    0.2846815818   -0.4200120895    0.8174381259
 H   -1.1238184242   -0.2022022703   -0.1918232038
 H    0.4205774249    1.2339086257   -2.6452178059
 H    0.7568586555   -0.2915749877   -3.4657084420
 H   -0.8415450653   -0.0018901972   -2.7601693139
 H    2.8089783998   -0.3425199590   -1.9898312881
 H    2.6413244078    0.2272711078   -0.3203155303
 H    2.9247776623   -2.6465999857   -1.0199852869
 H    2.1011879944   -2.0892268782    0.4477632392
 H    0.8699527239   -2.3819021890   -2.3413144489
 H   -1.9144573415   -4.0140473559    0.3552808103