21

 C    0.0307816501    1.4967073728   -0.0033418239
 C    0.0003613608    0.0423323562    0.0568678025
 C   -0.0253919568   -1.1604097131    0.0996856784
 C   -0.0750878208   -2.6155261944    0.1608724146
 C   -1.4768684963   -3.2046671777   -0.1239050130
 O   -1.9689878076   -2.7982338254   -1.3926736852
 C   -1.4726732376   -4.7111318912    0.0324249339
 C   -1.7479335388   -5.3402816371    1.3767594026
 C   -2.7647276442   -5.4442097467    0.2679125762
 H    0.9696166018    1.8588953658   -0.4373480322
 H   -0.7884769937    1.8855528807   -0.6184002468
 H   -0.0645915611    1.9417303320    0.9934870907
 H    0.6343777735   -3.0473629671   -0.5614406318
 H    0.2537670876   -2.9660676845    1.1476694604
 H   -2.1840225357   -2.7740136652    0.5948033632
 H   -1.3706718149   -3.1392889021   -2.0666733785
 H   -0.7357236859   -5.2176357243   -0.5896887723
 H   -1.1899100257   -6.2272972829    1.6550880507
 H   -1.9714229422   -4.6801241436    2.2089119904
 H   -3.6683129405   -4.8492198290    0.3472555511
 H   -2.9070457318   -6.4055288632   -0.2128582408