19

 O   -0.3214061994    0.1643750392   -0.1611180630
 C   -0.1158467914    1.3430862836   -0.0689028968
 C    1.2776224360    1.9787143397   -0.0061319023
 C    1.5337664162    2.8548116381   -1.2656701068
 C    1.5627747823    2.0553093600   -2.5490150300
 C    0.2997955004    1.8092172131   -3.3390829605
 C    1.3564320947    2.7431413956   -3.8743293232
 C    1.3700973990    2.7670633093    1.2173082723
 C    1.3986674457    3.4307556810    2.2194603484
 H   -0.9444105300    2.0849811281   -0.0186283818
 H    2.0000240295    1.1546865375    0.0174012368
 H    0.7600835471    3.6308280766   -1.3210191648
 H    2.4843050350    3.3785727083   -1.1150098859
 H    2.2818950541    1.2397829370   -2.5479885315
 H    0.1689607648    0.8436721458   -3.8137096666
 H   -0.6228032238    2.2505914892   -2.9759035635
 H    1.1436568178    3.8073192890   -3.8646559661
 H    1.9528639665    2.4191982799   -4.7197970187
 H    1.4447203754    4.0063056591    3.1108644741