19

 C    0.0340784840    1.5045759353   -0.0910946694
 N   -0.0419793997    0.0601764581    0.0463998570
 C   -1.4101290576   -0.4801917687    0.2366363011
 C   -1.1815763840   -1.3733595455    1.4452171453
 O   -2.2519878531   -2.1292151866    1.8671661039
 C   -0.2604825542   -0.6085769322    2.4622889599
 N    0.3318307907   -1.9436698598    2.8465396266
 C    0.2632596197   -1.9809982205    1.3382230088
 C    0.6579740469   -0.4924106985    1.1930224107
 H    1.0816800394    1.8077933458   -0.1890944017
 H   -0.4886484006    1.8167142463   -1.0006115779
 H   -0.4046164021    2.0597131669    0.7588182217
 H   -2.1433230954    0.3076331582    0.4557204326
 H   -1.7589963103   -1.0388091438   -0.6388794857
 H   -1.9274869220   -2.6346537535    2.6268979557
 H   -0.5444369935    0.1362556975    3.2075196671
 H    1.3015622373   -1.8265780679    3.1530201002
 H    0.5978414455   -2.8370993568    0.7508187854
 H    1.7002961990   -0.1890249945    1.2995512486