18

 C   -0.0583998534    1.5400025366   -0.0696142843
 C   -0.0014462480    0.0258296680    0.0537979335
 O    0.6358599241   -0.5138719307   -1.1050201964
 C    1.1484775323   -1.8016258516   -0.7925387120
 C    1.5044907087   -1.7536802282    0.6844641871
 C    2.3067404352   -0.5464306505    1.1477414326
 C    3.0704773418    0.2669466966    0.2397737333
 N    3.7393693621    0.9156382363   -0.4462602913
 C    0.7852740489   -0.5515380477    1.2244838807
 H    0.9448717383    1.9682608716   -0.1211179182
 H   -0.5992634991    1.8186976540   -0.9779067331
 H   -0.5855205834    1.9686955259    0.7883090243
 H   -1.0288456946   -0.3723933974    0.1327960935
 H    0.3945305793   -2.5880082575   -0.9574363774
 H    1.9985339207   -1.9868812874   -1.4558727606
 H    1.6084286424   -2.6788889845    1.2380302596
 H    2.8007814758   -0.6708331309    2.1064600561
 H    0.3394333489   -0.5362957828    2.2118059626