21

 C   -0.2702614204    1.5365485538   -0.0448419980
 C    0.0713411293    0.0596229240   -0.0197136664
 O    1.2634472799   -0.2434454200   -0.7894902532
 C    1.9116595823   -0.8506178287    0.3403393287
 C    0.6965307951   -0.5798850862    1.2561184518
 C    0.9259906437    0.2806506396    2.4875700594
 O   -0.3099502520    0.7218705855    3.0692828840
 C    1.7500833673   -0.4294159287    3.5663621017
 O    1.8924934738    0.3851800399    4.7077385770
 H    0.5779582388    2.1473534490    0.2760426789
 H   -0.5319759470    1.8341240446   -1.0649155131
 H   -1.1174133492    1.7465220789    0.6138510871
 H   -0.7803828328   -0.5208936268   -0.4006027267
 H    2.1504326097   -1.9066824499    0.1657092455
 H    2.8352485047   -0.3233087097    0.6161267257
 H    0.1778350489   -1.4977977082    1.5567641389
 H    1.4446243747    1.2074965445    2.2192436235
 H   -0.8557311025   -0.0591338617    3.2231902999
 H    1.2620715008   -1.3916796929    3.8126946107
 H    2.7553991226   -0.6598604086    3.1966735237
 H    1.0294059525    0.8014957616    4.8330359909