21

 C   -0.1090556795    1.5061725309   -0.0007781036
 C    0.0737587911    0.0153938861    0.0120108729
 C    1.0094104084   -0.7765654515   -0.9373631844
 C    0.7238410271   -1.9004518719    0.0840005067
 C    0.6867403366   -0.8074083123    1.2031744366
 C   -0.3066639647   -1.2397805963    2.2896308557
 C   -1.1975609092   -2.2823728828    1.5496599051
 C   -0.8191848739   -2.0318577445    0.0885959702
 O   -1.1888870067   -0.6576618397   -0.1975542689
 H    0.8525736935    2.0139122235    0.1165460948
 H   -0.5585460558    1.8272082207   -0.9459739909
 H   -0.7711733471    1.8220700520    0.8118211345
 H    0.6736446071   -0.8982051841   -1.9703179864
 H    2.0481533186   -0.4394723943   -0.9008832990
 H    1.3096042850   -2.8163067578    0.1579198584
 H    1.6558810273   -0.4367767611    1.5384608076
 H    0.2060303983   -1.6756949770    3.1518459204
 H   -0.8947198834   -0.3935354301    2.6578590146
 H   -0.9498955884   -3.3086016584    1.8460933180
 H   -2.2669186088   -2.1308135580    1.7154498752
 H   -1.2698859956   -2.7007499433   -0.6480333376