19

 C    0.6385106152    1.4851765599    0.2103113809
 C   -0.2325915071    0.2628248560   -0.1074464848
 C    0.2177406526   -0.4299790195   -1.3689029334
 O    1.4221094652   -1.2148573114   -1.3076620717
 C    0.1943600510   -1.8802650965   -1.6146467374
 C   -0.2869339822   -2.9178221788   -0.6090836557
 O   -1.5933452070   -3.3180230310   -0.9111481016
 C    0.6534987429   -4.1114017359   -0.6303757345
 O    0.2460385060   -5.2246735249   -0.8606170379
 H    1.6819577557    1.1884477503    0.3519596270
 H    0.6056584209    2.2176342250   -0.6033979936
 H    0.2976607117    1.9827666350    1.1225633840
 H   -0.2095311065   -0.4332577967    0.7361856018
 H   -1.2782791495    0.5678916773   -0.2396133246
 H    0.1709011698    0.1986053547   -2.2616354912
 H    0.0998357714   -2.2199405313   -2.6478812112
 H   -0.2206101423   -2.4920205686    0.4056444142
 H   -1.5480611992   -4.2814683771   -1.0272750792
 H    1.7198937513   -3.8995956665   -0.4269272413