22

 C   -1.1425271653   -2.1724628456    1.9472569412
 C   -0.3578509608   -0.8928949974    2.2581436773
 N    0.6458518543   -0.5558921906    1.2533785706
 C    0.2803008713    0.1815356660    0.1627398924
 O    1.0075250914    0.5126242799   -0.7510528331
 C    2.0311563565   -0.9614843567    1.4006381728
 C    2.9091097214   -0.3798789062    2.5445618141
 C    3.6456967575   -1.7467029563    2.5839375656
 C    2.4154356470   -2.3865421792    1.8823352764
 H   -0.4791242069   -3.0365701137    1.8568800016
 H   -1.8679714727   -2.3773591872    2.7414891700
 H   -1.6889323311   -2.0697342630    1.0047542975
 H   -1.0531155132   -0.0504999621    2.3472113355
 H    0.1410136837   -0.9783291407    3.2281940240
 H   -0.7918282390    0.4616015153    0.2005277163
 H    2.4989953230   -0.7497542918    0.4382031308
 H    3.4842907023    0.5223140979    2.3261242485
 H    2.3304784669   -0.2160514206    3.4593966290
 H    4.5276859521   -1.7501973019    1.9381943981
 H    3.9266967243   -2.1413807214    3.5618311953
 H    1.7106341898   -2.7742771924    2.6232597386
 H    2.5810146273   -3.1516225924    1.1201135878