17

 O    0.0449859857    1.3454845257    0.3104164463
 C   -0.0000462559   -0.0196581738   -0.0880704613
 C   -1.4350740254   -0.4692728709    0.0041801613
 C   -1.9903203445   -1.0861663229    1.2429002829
 N   -1.7139362149   -1.9247718368    0.0686202081
 C   -2.8904489849   -2.1686330424   -0.7991455133
 C   -3.2945092319   -0.8130299613   -1.3388823883
 C   -2.4618283423    0.1300529158   -0.9003807864
 H    0.9345435575    1.6734859594    0.1504476685
 H    0.3573611263   -0.1443405435   -1.1223587073
 H    0.6201206105   -0.6573689216    0.5584622232
 H   -1.3414382922   -1.2820220661    2.0931918337
 H   -3.0248105213   -0.8599788096    1.4916055330
 H   -2.6079913809   -2.8627111004   -1.6023128988
 H   -3.6889069929   -2.6582760158   -0.2267574848
 H   -4.1582445425   -0.6599208411   -1.9756515011
 H   -2.4894809204    1.1871765853   -1.1296328157