16

 O   -0.4977874754    0.6022779240   -0.5486782969
 C    0.2974326485    0.8387088410    0.3239894987
 C    1.3725922885    1.8985860239    0.1937588843
 C    1.2018933630    3.0096037652   -0.8757309686
 C    1.4302304979    4.0492127302    0.2579465209
 C    0.2112127146    4.7051646111    0.9419584816
 C    0.1491467474    3.3998575912    1.7670477845
 O   -0.6560349509    2.8555796718    2.4636453499
 N    1.4129744618    2.9399693667    1.2876375123
 H    0.3095210743    0.2748105084    1.2789438950
 H    2.3403323195    1.3822780648    0.1514140507
 H    1.9373393174    3.0145539283   -1.6806982799
 H    0.1982628525    3.0170153872   -1.3076506749
 H    2.3489174382    4.6341038373    0.2001596556
 H    0.4347395902    5.6059788289    1.5188268274
 H   -0.6770191576    4.8796972401    0.3312803995