19

 C   -0.1675195542    1.4243358157   -0.1548494904
 O    1.0769039021    1.7024569062    0.5368855969
 C    1.5337317242    0.3317799407    0.4266321303
 C    1.3250150566   -0.4808953414    1.7202047303
 C   -0.1394700503   -0.8033847378    1.2803328499
 C   -0.4621617749   -2.2354311918    0.8213997244
 C   -0.0328790715   -2.2442602466   -0.6617076139
 O   -0.2226263880   -0.9064544180   -1.1315247196
 C    0.1051375635   -0.0686462331   -0.0768321970
 H   -1.0419663721    1.8130744606    0.3801873302
 H   -0.1571300858    1.8170072199   -1.1801485378
 H    2.4700976641    0.2470127903   -0.1318113073
 H    1.9655938649   -1.3673663852    1.7782354095
 H    1.4315069928    0.0965886683    2.6407315285
 H   -0.9170284242   -0.3878531656    1.9236630321
 H    0.0509445093   -3.0059623179    1.4034751150
 H   -1.5380112536   -2.4181575290    0.8965826612
 H    1.0258288101   -2.5271351376   -0.7633376926
 H   -0.6273893130   -2.9086884578   -1.2925181798