16

 C    0.0080969169    1.5459121332   -0.0009464900
 C    0.0376395266    0.0279638223    0.0278290392
 O    0.7716446323   -0.4594868054   -1.1165722641
 C    1.5466020967   -1.5503600619   -0.6908230706
 C    2.5304194254   -1.3132897173    0.4447017735
 O    2.1763905389   -0.1127432450    1.1312473058
 C    0.7932111915   -0.5890960397    1.2037459878
 C    1.2062000519   -1.9921966138    0.7036371005
 H    1.0222117535    1.9370724929    0.1028313776
 H   -0.4135791783    1.8973247159   -0.9461575524
 H   -0.6117670385    1.9317206496    0.8151372694
 H   -0.9870686702   -0.3799444797   -0.0017289047
 H    1.7837576479   -2.2605100341   -1.4739895976
 H    3.5591433857   -1.6513149444    0.4957442546
 H    0.3576587335   -0.4559524514    2.1946795770
 H    0.9096260364   -2.9665116911    1.0660752541