14

 O   -0.2169643908    1.3980369393    0.0561775117
 C   -0.0144375315    0.0443798837    0.0680410053
 C   -0.1501417007   -0.8233920560   -1.2521405973
 C    0.7133051074   -2.0475548138   -1.3833683600
 C    0.6428771275   -2.7134932052   -0.2319596899
 N   -0.1877571422   -1.9905569849    0.7347001048
 C   -1.0419744114   -1.0633978421   -0.0914074892
 C    0.6181895790   -0.7992972041    1.1248053035
 O    1.3910300525   -0.6645903254    2.0193537411
 H    0.5615481481    1.8283597534   -0.3148809800
 H   -0.4910134018   -0.2454615460   -2.1037780695
 H    1.2666666664   -2.3200304713   -2.2705320542
 H    1.1439581202   -3.6160381143    0.0848354043
 H   -2.1192092828   -1.0322603734    0.0079004293