11

 N   -0.0850251061    1.3314331847    0.0087000216
 C    0.1017825556   -0.0007479391    0.0014382664
 O    1.1422081560   -0.6079573212   -0.0095366456
 N   -1.1480802273   -0.7227004918    0.0103769144
 C   -1.3432132902   -2.0591061097    0.0080854321
 N   -2.6313783770   -2.2991246601    0.0178430495
 N   -3.2369072515   -1.0722983833    0.0275944609
 N   -2.3676146168   -0.1268789776    0.0233487004
 H    0.7274943284    1.9232026293    0.0030363815
 H   -1.0132394325    1.7228513749    0.0174935989
 H   -0.5400512586   -2.7757623361   -0.0013113100