19

 O   -0.0115686972    1.4084259398   -0.0764889702
 C    0.0164779810   -0.0051779601   -0.0125064399
 C    0.6465693889   -0.5841611919    1.2680300275
 C   -0.0471973189   -1.9344681843    1.4566493417
 O    0.3419428980   -2.8562493420    2.1330341710
 C   -1.3007430597   -1.9188810532    0.6294356989
 C   -1.6343607308   -3.2081614427   -0.1143265772
 C   -2.4626473665   -2.7888397719    1.0543861379
 C   -1.4290188749   -0.5364467387    0.0114621783
 H    0.8939397003    1.7256563253   -0.1501666515
 H    0.5373307069   -0.4209252870   -0.8895684362
 H    1.7344821943   -0.6843668755    1.2588657900
 H    0.3720887457    0.0606331776    2.1143327788
 H   -2.0470131035   -3.1019975172   -1.1119791138
 H   -0.9465095695   -4.0349175190    0.0242328189
 H   -2.3333784923   -3.3334262618    1.9835894034
 H   -3.4589277250   -2.3998076526    0.8736456745
 H   -2.0190583663    0.1306015298    0.6520553902
 H   -1.8878376705   -0.5351448046   -0.9803365622