22

 C   -0.2935473591    1.5019499968   -0.1446772291
 C    0.1446620879    0.0470831913    0.0799629546
 C    0.8740894805   -0.5395587405   -1.1059489887
 C    2.2569022633    0.0145378640   -1.4728497569
 C    2.9559018988   -1.1667646380   -2.1096928099
 C    2.1918645270   -2.2587617914   -2.1129158854
 C    0.8482441199   -1.9816058475   -1.5088952806
 C    0.0950895494   -3.0899132696   -0.8199998716
 N    0.1082241186   -0.9546626578   -2.3109814915
 H    0.5683931773    2.1541824596   -0.3176005922
 H   -0.9504506191    1.5845862890   -1.0166601173
 H   -0.8344755367    1.8874031486    0.7248642918
 H    0.7941659415   -0.0057388891    0.9636342959
 H   -0.7361617889   -0.5641808630    0.3105206856
 H    2.1802320482    0.8619634085   -2.1644638736
 H    2.7940013167    0.3749036932   -0.5841177531
 H    3.9509547735   -1.0934610632   -2.5340948655
 H    2.4637463998   -3.2265166255   -2.5192533846
 H    0.7151436273   -3.5725949014   -0.0565993551
 H   -0.8146914126   -2.7257118392   -0.3337535090
 H   -0.2021390712   -3.8609677481   -1.5405872549
 H   -0.8774678622   -1.0028542567   -2.0468931190