13

 N    0.2694468800   -0.9150573608   -0.6411337019
 C    0.2207982826    0.1458640704   -0.1862725935
 C    0.1675672804    1.4997644794    0.3895981497
 N    1.4407896795    2.2020835113    0.3070149310
 C    1.7803474528    2.6422610265   -0.8211154291
 O    1.0959757136    2.5463087741   -2.0035495997
 C    1.8669745487    3.1846712778   -2.9610484224
 C    2.9669758767    3.6461372009   -2.3790906950
 O    2.9386814089    3.3206672373   -1.0365480085
 H   -0.6487206985    2.0424940327   -0.1080564879
 H   -0.1025134663    1.4061287279    1.4455997349
 H    1.4877572259    3.2049186177   -3.9666586140
 H    3.8245542258    4.1892955246   -2.7325947036