23

 C    0.0199527306    1.4772155344   -0.1478212976
 C    0.2563259065   -0.0146018861   -0.0655590650
 C    1.6314931449   -0.5580980443    0.2818574838
 C    0.4834082394   -0.6909944373    1.2525847471
 O    0.4383558771    0.1048964437    2.4007740462
 C    1.0702540185   -0.4736882074    3.5052194727
 C    2.5365438008   -0.2211314691    3.7587371836
 C    1.4760082947    0.4375029151    4.6239903054
 C    1.2377771621    1.9290637305    4.5424001709
 H    0.5766331520    2.0066672848    0.6286235722
 H    0.3331708671    1.8682355559   -1.1218491770
 H   -1.0405069618    1.7168937263   -0.0144746979
 H   -0.3123675517   -0.5993374333   -0.7842446244
 H    2.0014536865   -1.4439081212   -0.2234134423
 H    2.3926248551    0.1739537211    0.5287526891
 H    0.0558388406   -1.6840076385    1.3979860731
 H    0.6736016614   -1.4562855772    3.7644294737
 H    3.1464073856   -1.0178708742    4.1711717826
 H    3.0477557727    0.4196482202    3.0486320311
 H    1.3538446129    0.0173504424    5.6191708994
 H    1.3243026369    2.2851041758    3.5134066922
 H    0.2346881490    2.1887049300    4.8976464907
 H    1.9633087092    2.4736855983    5.1561781304