16

 N   -0.1337564075   -1.1399080178    0.2360386734
 C   -0.0907344945    0.0047840022    0.0855022957
 C   -0.0151369299    1.4559013023   -0.1170128533
 C    1.4012809698    1.9717134881   -0.0884582804
 C    2.1376958269    2.4033171065    1.1490023029
 C    1.8869875120    3.4083698129    0.0504678607
 C    2.8424291844    3.1711806999   -1.1627585543
 O    3.7255120571    2.0811693502   -0.8649531922
 C    2.3924958236    1.7901883990   -1.2930181045
 H   -0.4979406167    1.6916687805   -1.0743057903
 H   -0.6098586519    1.9475244228    0.6610890485
 H    1.5135279400    2.5317113548    2.0281194096
 H    3.1402387795    2.0443380392    1.3414919117
 H    1.2970942034    4.3050548264    0.1879825239
 H    3.1688798320    3.8995865826   -1.8942259562
 H    2.2620703216    1.1370605803   -2.1477142151