14

 O   -0.0353276000   -0.0043415185    0.2018121669
 C   -0.0732557346    1.1945755124    0.1011277461
 C   -1.2618571012    2.0562626383   -0.0703218449
 C   -0.9132928829    3.3471211911   -0.0886778653
 C    0.5661540690    3.5746203275    0.0784134903
 C    1.1714080557    2.1455806704    0.0971341540
 C    2.0919290064    1.8832467591    1.1876758994
 C    2.8400193146    1.6791284671    2.1055880873
 H   -2.2602438242    1.6467950934   -0.1522139504
 H   -1.6037111307    4.1768568834   -0.1986448723
 H    0.9762484571    4.1916111873   -0.7286047660
 H    0.7740324937    4.1080544950    1.0125925116
 H    1.6793774467    1.9502414504   -0.8565522946
 H    3.5043574304    1.4847510332    2.9106977579