20

 C   -0.1453803516    1.4385042364   -0.1522900452
 C    1.2708147629    0.9882648768    0.0942575899
 C    0.1515626955   -0.0269738038    0.0675216447
 C   -0.2811759985   -0.6996328140    1.3252221313
 C   -0.3642174097   -0.1684556175    2.7571801595
 N   -0.8527147517   -1.5954815618    2.9726456854
 C   -1.5745982143   -1.5452053092    1.6002024753
 C   -0.9403512324   -2.8715649179    1.1716835871
 C    0.1559552186   -2.0918721399    1.9033460991
 H   -0.6503458083    1.9757743730    0.6436357919
 H   -0.4201996669    1.7609743334   -1.1502879589
 H    1.9701525930    1.0009989627   -0.7341601577
 H    1.7155365601    1.2236525524    1.0554920471
 H    0.1047382168   -0.6583000947   -0.8164941714
 H    0.5704147861    0.0540670313    3.2840882700
 H   -1.1220986177    0.5886633691    2.9875481607
 H   -2.6119602134   -1.2095072858    1.5385024056
 H   -1.3117093035   -3.7650948406    1.6802362611
 H   -0.8063602488   -3.0412975513    0.1006842730
 H    1.1606109338   -2.4012149785    2.1993023115