19

 C    0.0371167474    1.4915279261    0.0894845417
 C    0.0604918660    0.0002011345   -0.0132677057
 C    0.0284832390   -0.7803655159   -1.1168261495
 C    0.0276355774   -2.2530671708   -0.7613571135
 C    0.4866280011   -2.2609006851    0.7147601734
 O    1.8837839331   -2.4860570307    0.8392925617
 C    0.0892285772   -0.8565465170    1.2332863885
 C   -0.0358505343   -0.3282141705   -2.5053699085
 O   -0.0897275403   -1.0816736534   -3.4558187353
 H    0.9233138916    1.8503083001    0.6276822929
 H   -0.0012987958    1.9928428522   -0.8787591497
 H   -0.8301577474    1.8176560186    0.6774752534
 H   -0.9789270746   -2.6753268857   -0.8755818228
 H    0.6910305562   -2.8522442567   -1.3910350795
 H    0.0217786268   -3.0611182547    1.2947627466
 H    2.3357714809   -1.8620407109    0.2599432855
 H    0.7932849467   -0.5009442783    1.9939169885
 H   -0.9060205973   -0.8637409048    1.7014897330
 H   -0.0298311037    0.7720314427   -2.6603510708