18

 C    0.0845938262    1.5724291362   -0.0580332552
 C    0.0763722488    0.0539372489    0.0039416870
 C    1.0037305042   -0.7606837034   -0.9416205516
 C    1.2932334559   -1.7406921277    0.2243978606
 O    2.5921049215   -2.1984902816    0.4444715532
 C    0.7648848516   -0.6385909693    1.2232072733
 O    1.8404294243    0.1580337047    1.6870032668
 C   -0.0919538199   -1.0721531648    2.3269711423
 N   -0.7659720949   -1.4438245666    3.1902751833
 H    1.0961675432    1.9650759749    0.0683223288
 H   -0.2987871305    1.9102404936   -1.0262627270
 H   -0.5469997876    2.0054387881    0.7239397675
 H   -0.9480842404   -0.3235989121   -0.0639502111
 H    0.5665485479   -1.1773410835   -1.8503518450
 H    1.9009576116   -0.1932720646   -1.2088768923
 H    0.6399660074   -2.6156920926    0.2122215608
 H    3.1673942434   -1.4239496695    0.4323890430
 H    2.3042122775   -0.3460420207    2.3667941256