17

 C    0.0449863510    1.5514840800   -0.0782538828
 C    0.0377563026    0.0973595842   -0.0129321832
 C    0.0365706321   -1.1072810631    0.0278077356
 C    0.0323847749   -2.5550842629    0.0960038722
 C    0.2682784641   -3.2457219862    1.4799982150
 C   -1.1176796617   -3.8544643835    1.3096521868
 C   -2.1389575386   -2.8164798100    1.0801540415
 N   -1.3198851978   -3.2445900063   -0.0692759432
 H    0.9830187540    1.9241370402   -0.5043751543
 H   -0.7729649583    1.9222917080   -0.7058080491
 H   -0.0696345155    1.9989591595    0.9152269052
 H    0.6958941097   -2.9680654436   -0.6682978520
 H    1.0796233338   -3.9742104912    1.4406109325
 H    0.4132659060   -2.5927253828    2.3442188815
 H   -1.3741732108   -4.8901898925    1.5073716395
 H   -3.1721339018   -3.1377106881    0.9912310075
 H   -2.0044406236   -1.8133093917    1.4776166774