19

 C    0.1139805359    1.2664322687   -0.9920121567
 C   -0.1461538179    0.5770771572    0.3466987524
 O   -0.1928960841    1.5060261410    1.4278178286
 C   -1.4322894339   -0.2338483315    0.3095391296
 C   -1.4589322401   -1.6983714092   -0.0524656254
 C   -0.2159247594   -2.3746612018   -0.3356747243
 N    0.7706119037   -2.9368019659   -0.5597794804
 N   -1.7756578407   -1.2314892176    1.3029521106
 C   -0.8643317756   -1.5194881091    2.4099521258
 H    1.0039749059    1.8962467702   -0.9182631867
 H    0.2700604132    0.5327185699   -1.7886177952
 H   -0.7343385077    1.9011242851   -1.2776079498
 H    0.6999391121   -0.0743338955    0.5803201489
 H   -0.8803795279    2.1539664559    1.2351422784
 H   -2.2938554721    0.3468612202   -0.0284660834
 H   -2.3020540318   -2.0973795973   -0.6108698517
 H    0.1784077005   -1.6901773065    2.1145385198
 H   -0.8948797720   -0.6739626612    3.0999756855
 H   -1.2233200083   -2.4151435626    2.9239378139