20

 C    0.0886816203    1.5570590391   -0.0371090643
 C   -0.0393465819    0.0680956313    0.0839094505
 N    1.1045094245   -0.7756046645   -0.2783735277
 C    0.5526331209   -0.9229763553    1.0682262863
 C    1.4154977683   -0.7505720593    2.2792259958
 C   -0.7180748256   -1.7697151209    0.9946198154
 O   -1.6870052072   -1.4120926612    2.0008742311
 C   -2.3509828207   -0.4938445350    1.1049324399
 C   -1.3294161731   -0.7494508790   -0.0226106829
 H    1.0882171608    1.8809967962    0.2640122720
 H   -0.0667035244    1.8790728943   -1.0737489258
 H   -0.6471672033    2.0737670545    0.5879668329
 H    0.8556896571   -1.5426483792   -0.9028798937
 H    2.0941433543    0.0979164822    2.1578277652
 H    0.7910555806   -0.5846144678    3.1622231311
 H    2.0261506651   -1.6436651964    2.4565492119
 H   -0.6353100047   -2.8539476593    0.8628787932
 H   -3.3672855120   -0.8361083381    0.8748309412
 H   -2.4010704899    0.5252629163    1.5075149744
 H   -1.7147854192   -0.9921252581   -1.0151878864