18

 C   -0.2623066808    1.5701166966    0.0189215733
 C    0.0189058465    0.0644554013   -0.0363061872
 C    0.7984417230   -0.4480214768   -1.2406219432
 C    2.2599176541   -0.0731244892   -1.4221575415
 O    2.8550591506    0.9849481015   -0.7383838397
 C    1.9000258287   -1.3567343170   -0.7114525303
 N    1.8253491917   -1.2477866079    0.7173159242
 C    0.8287194993   -0.4161229934    1.1848380561
 O    0.6508010626   -0.1132776241    2.3421859750
 H    0.6612881545    2.1381044904   -0.1081760087
 H   -0.9591781397    1.8626417289   -0.7717614070
 H   -0.7033912330    1.8240453703    0.9864616184
 H   -0.9375582864   -0.4731962692    0.0125819717
 H    0.2464726555   -0.7323025317   -2.1288606184
 H    2.6433439974   -0.1667064073   -2.4346271887
 H    3.0525563984    0.6874567877    0.1583268036
 H    2.1265160776   -2.3360075138   -1.1176874481
 H    2.4973726800   -1.6541436565    1.3491329106