17

 C    0.0301390596    1.5110032831    0.1166611221
 C   -0.1210757956   -0.0012197987   -0.0750796378
 C    0.6812504599   -0.5407530300   -1.2533597481
 C    2.2586361978   -0.5504524145   -1.1658628035
 C    2.2114299780   -2.0705601381   -1.3605154425
 O    1.4252392591   -2.6081425343   -0.2893758214
 C    0.7423762577   -2.0703801395   -1.4289381513
 H    1.0753586974    1.7875097148    0.2928468123
 H   -0.3115569723    2.0609679294   -0.7676555512
 H   -0.5540962212    1.8623539640    0.9727462461
 H    0.1962507135   -0.5299799299    0.8304741305
 H   -1.1811987739   -0.2470243963   -0.2238145438
 H    0.3656186932   -0.0622460219   -2.1874813571
 H    2.7318772913   -0.0145663563   -1.9918208214
 H    2.6995097343   -0.2261225493   -0.2195197452
 H    2.9416296082   -2.7300598078   -1.8150123883
 H    0.0523524231   -2.7293710148   -1.9445450393