18

 C   -0.0876091283    1.5263974920    0.0293353596
 C    0.0300045262    0.0331242162    0.0061155543
 C    0.7638174173   -0.7970220266   -1.0888629711
 C   -0.2763915912   -1.8218129188   -0.5928817027
 C    0.1852946441   -2.1710620497    0.8415964736
 C    0.4243429154   -0.7290976513    1.2609403192
 N    0.8247201255   -0.1961629056    2.3369047377
 O    1.0955547600   -1.1703735584    3.3179189466
 O   -1.1979040008   -0.7123050668   -0.3479738006
 H    0.8792514443    1.9724004620    0.2793374810
 H   -0.4149557351    1.9035060563   -0.9426756507
 H   -0.8075682731    1.8370041917    0.7915900256
 H    0.5307910126   -0.4241575193   -2.0872540912
 H    1.8298994543   -1.0101103840   -0.9724756162
 H   -0.6870640166   -2.6122272839   -1.2192150052
 H   -0.6053346416   -2.6458831752    1.4280756030
 H    1.0854948432   -2.7900243243    0.8994800003
 H    1.3709675736   -0.6322585244    4.0679128769