15

 O    0.1294502137    1.2413148077   -0.4129411624
 C    0.0462682501    0.0034012548    0.2690228366
 C   -1.3406004319   -0.6047525337    0.1766753197
 C   -1.8817850213   -1.1968541056   -1.1055289554
 O   -0.9265317891   -1.5644034440   -2.0820771314
 C   -0.1563812207   -2.5918974487   -1.6100976207
 O    0.7300092908   -3.1050570339   -2.2084761551
 O   -0.5368016832   -2.9152766227   -0.3399010391
 C   -1.6107167445   -2.0906904857    0.0637956873
 H    0.0725789377    1.0569628981   -1.3567220817
 H    0.8107573340   -0.7031664261   -0.0777651196
 H    0.2705678492    0.2180796426    1.3181843954
 H   -2.1043306405   -0.0778661660    0.7433214062
 H   -2.8482730220   -0.9520630058   -1.5250482517
 H   -2.3435706223   -2.6142610610    0.6628869719