18

 C    0.8434512238    1.5553994812   -0.2171869887
 C    0.1258614011    0.2492332634    0.0877023923
 C    0.0884272300   -0.7573311295   -1.0947997712
 C    1.0586367730   -1.8683412324   -0.6527788422
 O    2.3528246971   -1.4793169161   -1.0809149685
 C    0.9016448211   -1.7883322891    0.8828968639
 O    0.8268051751   -0.4125766177    1.1550565193
 C    0.7162276308   -3.2017555038   -1.1791718624
 N    0.4765327558   -4.2631161773   -1.5688070313
 H    1.8504307409    1.3507377773   -0.5904927827
 H    0.2941355285    2.1280885073   -0.9711910305
 H    0.9211197401    2.1638229848    0.6879899136
 H   -0.8999607458    0.4577496459    0.4225395505
 H   -0.9125676687   -1.1680594732   -1.2398675123
 H    0.4266350643   -0.3241126838   -2.0373118736
 H    3.0009919724   -2.0807256603   -0.6964541908
 H   -0.0049257064   -2.3326728694    1.1941419871
 H    1.7602774669   -2.2093521374    1.4155850375