17

 C   -0.4844663185    0.9435569581    1.1388648686
 C    0.2345444038    0.4532656120   -0.1326403138
 N    1.6121017834    0.0227803518    0.1306252372
 C    1.8259081702   -1.0357566934    0.7685616393
 C    3.0688800353   -1.7756393808    1.2120658750
 C    2.0539487664   -2.7879689460    1.7841875725
 O    0.9507431876   -1.9517144464    1.3077266620
 C   -0.5629788246   -0.5760680191   -0.8271938771
 N   -1.1895634412   -1.3639421921   -1.3948187526
 H    0.1232772397    1.7191589410    1.6113680353
 H   -1.4622648094    1.3628754113    0.8881047358
 H   -0.6232246483    0.1202506644    1.8419863671
 H    0.3077336516    1.2960311728   -0.8293189756
 H    3.7006531928   -2.1334713884    0.3980222062
 H    3.6804347110   -1.2450902274    1.9434140852
 H    2.0263286543   -3.7695627156    1.3074514435
 H    2.0220228859   -2.8876893920    2.8709771015