13

 C    0.3901362863    1.3674421075    0.1164689456
 C    0.2773157156   -0.1348285899    0.1276877428
 O    0.1113574320   -0.8088484418    1.1141170633
 C    0.3892387282   -0.8181715651   -1.2569666641
 O    0.5553309399   -0.1628051522   -2.2649192602
 C    0.2830544607   -2.2541434527   -1.2539658421
 C    0.1990486119   -3.4639357558   -1.2985230363
 C    0.1032227854   -4.8158525639   -1.3378631441
 C    0.0175704454   -6.0201051289   -1.3747387771
 H    1.3484652038    1.6681575214   -0.3189388995
 H   -0.3843612439    1.7970390513   -0.5268747960
 H    0.2967770978    1.7484358179    1.1333960489
 H   -0.0576413731   -7.0796092577   -1.4036336111