13

 O    0.5008220680    1.1122345055   -0.3888737706
 C    0.0803313136   -0.1711269317   -0.0620147957
 C    0.1403060317   -0.6861706423    1.4301189081
 O    1.0151384237   -0.9118516817    2.2055278741
 C   -1.3749343300   -0.9144211861    1.4326152989
 O   -1.9310319178    0.3597247716    1.0769364751
 C   -1.4340036144   -0.4476560825    0.0042658560
 C   -2.3836286670   -0.9275716407   -1.0261588486
 O   -2.0315427290   -1.3402668100   -2.1012275680
 H    0.0241645399    1.7299789347    0.1792578468
 H    0.6027793137   -0.8768564305   -0.7153802804
 H   -2.0106253501   -1.6140774700    1.9627590198
 H   -3.4483131326   -0.8795425764   -0.7137868655