16

 C    0.0322945896    1.5045447369    0.0536063129
 C   -0.0129977756    0.0068147055   -0.0345230215
 C    0.6412776039   -0.8129538936   -1.1803085632
 C    0.7412843601   -1.8223197871   -0.0152422926
 O    0.8866399462   -0.6964711088    0.9058435612
 C   -0.7387156836   -2.1652967008    0.2271872093
 O   -1.2716680091   -3.2286765210    0.3697009316
 C   -1.3384173166   -0.7398981234    0.2368865015
 H    1.0501102257    1.8708146218   -0.1063176739
 H   -0.6225394091    1.9490506154   -0.7028070581
 H   -0.3069007132    1.8416477693    1.0382958867
 H    0.0487593049   -1.0663083557   -2.0637532258
 H    1.6221297039   -0.4198943929   -1.4524595084
 H    1.4909953833   -2.6050441655    0.0743308101
 H   -1.7591781671   -0.4866853557    1.2134190321
 H   -2.1104976134   -0.6173934844   -0.5281559619