21

 C    0.0542592953    1.3205797952   -0.3497961925
 O   -0.0128960015   -0.0401473563    0.0104359068
 C   -1.3329457607   -0.5449330814    0.1344781326
 C   -1.9311331992   -0.9402476584   -1.2286372652
 C   -1.3235224724   -2.3285069611   -1.4310530638
 O   -1.3318287440   -2.9253744661   -0.1364593462
 C   -1.2927347889   -1.8980866484    0.8723107750
 C   -0.0769593762   -2.1453978145    1.7611392976
 O   -0.1429025153   -3.4408610629    2.3296947714
 H    1.1107532758    1.5986184804   -0.3599058107
 H   -0.3681849733    1.5156080607   -1.3465286842
 H   -0.4747122408    1.9562023801    0.3772883066
 H   -1.9551242728    0.1821203024    0.6749111644
 H   -3.0215008383   -1.0064720947   -1.1528472846
 H   -1.6826015749   -0.2322560354   -2.0223416567
 H   -1.8984686859   -2.9693416869   -2.1057017859
 H   -0.2964301655   -2.2477568076   -1.8153536043
 H   -2.1981462772   -2.0116598494    1.4836456181
 H    0.8392705365   -2.0027802146    1.1749663116
 H   -0.0612518146   -1.4298218296    2.5897781043
 H   -0.2827399761   -4.0418274114    1.5879817256