14

 N    0.1567404813    1.5003461018    0.1422535521
 C    0.0219656250    0.0631632573    0.0036663669
 C   -1.4514741499   -0.4665350803   -0.1370827179
 N   -1.0131446823   -1.1807550835   -1.3440608926
 C    0.2359269406   -0.5832538280   -1.4004816109
 N    1.1931267121   -0.4642830572   -2.2111396916
 C    0.7765341082   -0.6159668883    1.0563203680
 N    1.3738755824   -1.1615937332    1.8809081093
 H    1.1433257774    1.7442596469    0.1669141667
 H   -0.2247317203    1.9498238860   -0.6861090971
 H   -1.8193914873   -1.1077118241    0.6663446601
 H   -2.1521742264    0.3565264472   -0.3144711378
 H   -1.5876117252   -1.4723752332   -2.1211426814
 H    1.0203043344   -0.9364354914   -3.0996891638