16

 C    0.2607068717    1.3821688156    0.3858342262
 C   -0.2103748705    0.0227206801   -0.1621960185
 C    0.5658345869   -0.4281182086   -1.3577236886
 N    0.2183184423   -0.2586847854   -2.6117130803
 C    1.2509637408   -0.7908602446   -3.3611163655
 C    2.2363408727   -1.2891815620   -2.5405823660
 N    1.7877979684   -1.0507163219   -1.2701972174
 C    1.2451237287   -0.8021978703   -4.7811477411
 N    1.2624228266   -0.8215663567   -5.9385783244
 H    1.3058585748    1.3442828773    0.7102314008
 H    0.1748658872    2.1554335229   -0.3821856437
 H   -0.3472636184    1.6802476926    1.2447095106
 H   -0.1509835574   -0.7378417700    0.6259942359
 H   -1.2577635811    0.0883160335   -0.4667608853
 H    3.1726940013   -1.7775312279   -2.7500867513
 H    2.2695685560   -1.2992538147   -0.4214913713