19

 C   -0.3944530851    1.3555584356    0.1032310354
 C   -0.1488914205   -0.1298939891    0.0793394193
 O    0.1041307102   -0.7814983774    1.0709188837
 C   -0.1935534704   -0.7988219091   -1.3269018595
 O   -0.2513867035   -0.0801356920   -2.2962470208
 C   -0.1229799503   -2.3370591516   -1.3955443139
 C   -0.6711943373   -2.8218032818   -2.7354971199
 C    1.3427284676   -2.7717218948   -1.1998184761
 O   -0.9648327141   -2.8857280786   -0.3878739251
 H    0.2930929593    1.8628564077   -0.5792643561
 H   -1.4026627387    1.5677531826   -0.2692144776
 H   -0.2818328229    1.7306209264    1.1204104948
 H   -0.1187729568   -2.3794421184   -3.5660091689
 H   -0.5908995397   -3.9105922191   -2.7838813370
 H   -1.7243158505   -2.5474476762   -2.8342663298
 H    1.7296456015   -2.4281900874   -0.2367474675
 H    1.3897591710   -3.8643829411   -1.2226308223
 H    1.9838172875   -2.3766807621   -1.9941608523
 H   -0.6054983573   -2.6007033036    0.4629792137