19

 C   -0.0341768489    1.5314104851    0.0935574629
 C    1.2452508825    0.7447454464   -0.0865694651
 C   -0.0659325122    0.0316154874    0.0279301099
 C   -0.4682492708   -0.9830760951    1.0868808642
 C   -1.9437752731   -1.2566849420    1.0019621768
 C   -1.0291290606   -1.9031389799   -0.0090034709
 C   -0.6302056185   -0.8808026335   -1.0560674519
 C   -1.1738597543   -0.6105771815   -2.3870419465
 O    0.1192113747   -1.2212043334   -2.2084407304
 H   -0.2151943129    2.0024785569    1.0544350523
 H   -0.4152729046    2.0902438510   -0.7555391029
 H    1.7188977091    0.7433858704   -1.0625152667
 H    1.9330532501    0.6874981960    0.7508707161
 H    0.1290119113   -1.2526588382    1.9491458475
 H   -2.3425593605   -1.9298701563    1.7546483941
 H   -2.6292028873   -0.4692824975    0.6982656351
 H   -0.9339761901   -2.9752706256   -0.1224797415
 H   -1.9429834619   -1.2602118698   -2.8033029865
 H   -1.1538912221    0.4008399797   -2.7918748463