13

 O    0.0467382963    1.3781106230    0.0095940516
 C   -0.0079714251   -0.0200772778    0.0026325784
 C   -1.4691221877   -0.4231088737    0.0123704050
 O   -2.4147796867    0.3082136163    0.0233548878
 N   -1.6762120186   -1.8423941433    0.0065797939
 C   -2.8461548600   -2.5297927794    0.0125680197
 N   -2.5860486640   -3.8102076438    0.0033566413
 N   -1.2159111714   -3.9108613730   -0.0084949736
 N   -0.6645124679   -2.7544345248   -0.0067829654
 H    0.9720758931    1.6399253522   -0.0019618651
 H    0.4597750240   -0.4769132757   -0.8837892989
 H    0.4740084241   -0.4861121069    0.8766052318
 H   -3.8126894261   -2.0556617130    0.0231666634