15

 C    0.0235244097    1.5153087960   -0.0520092257
 N    1.3824080429    2.0381405397    0.1203563002
 C    2.3653180481    1.2635488904    0.2688935105
 O    2.4109541673   -0.1063542807    0.3033258894
 C    1.1872454601   -0.7084230960    0.1506727254
 C    0.9225650916   -2.0544625311    0.1426064664
 N   -0.4385659562   -2.1647687447   -0.0379872356
 C   -1.0137970841   -0.9228784416   -0.1419425996
 C   -0.0143809759    0.0165540132   -0.0263026050
 H   -0.6011498613    1.9569023829    0.7366731706
 H   -0.3677843925    1.9212730785   -0.9950375093
 H    3.3719849828    1.6536584339    0.3965128721
 H    1.5626148428   -2.9132170974    0.2465684189
 H   -0.9370675544   -3.0347931929   -0.0868739855
 H   -2.0764432508   -0.8138819601   -0.2876137427