14

 O    0.0141220705   -0.0047498583    0.0035337935
 C   -0.0024557850    1.1990922496    0.0093078737
 C   -1.2516363466    2.0918689350    0.0312309196
 C   -0.7294138360    3.5396842034    0.0319261892
 C    0.7679419390    3.3954493910    0.0116988648
 C    1.1885198059    2.1159307391   -0.0005918544
 C    2.5194002366    1.6400695664   -0.0202068356
 C    3.6400219025    1.2008563569   -0.0369295360
 H   -1.8712488061    1.8593412792   -0.8394423686
 H   -1.8472828832    1.8499153530    0.9159595008
 H   -1.0756041151    4.1152441869   -0.8355152451
 H   -1.0528210424    4.1061622990    0.9140134225
 H    1.4296275191    4.2543842845    0.0078471938
 H    4.6283203008    0.8127719343   -0.0516902982