19

 O    0.0371670073   -0.1328886612   -0.1230330106
 C    0.0160066481    1.0685200637    0.0097039315
 C   -1.3088437829    1.8265149702    0.0669360285
 C   -1.6712673935    2.6347264840   -1.2109573465
 O   -1.3837116477    4.0190124078   -1.1801899661
 C   -0.0479009330    4.4070568088   -0.8556102965
 C    1.0101469628    3.6840295253   -1.6405199197
 C    1.6050687614    2.5660431611   -1.2192071369
 C    1.3233612409    1.8710998387    0.0965898702
 H   -2.0751378513    1.0619451606    0.2161096601
 H   -1.3349007022    2.5033092348    0.9290859036
 H   -1.2184134264    2.1520687261   -2.0875448154
 H   -2.7563287921    2.5982052567   -1.3404837056
 H   -0.0205476087    5.4816453179   -1.0564420736
 H    0.1259835580    4.2732362688    0.2220003982
 H    1.2507291474    4.0752746683   -2.6256110606
 H    2.3145957941    2.0637078739   -1.8715348663
 H    1.2453215726    2.5973479393    0.9128341928
 H    2.1205446653    1.1648167150    0.3337649729