18

 C   -0.1477406521    1.5925823070   -0.0184283595
 C    0.0642999635    0.0825506369   -0.0293179839
 C    0.7443193784   -0.5790520325   -1.2323027291
 C    2.2518230550   -0.4718326722   -1.0995901008
 O    2.8119404087    0.5497191671   -0.2994731648
 C    2.3775929334    0.3001722071    1.0459543210
 C    1.1495506788   -0.5932667615    0.8907888793
 C    1.5432176479   -1.5070689371   -0.3034107627
 H    0.7783301941    2.1269253233   -0.2430628129
 H   -0.8884563113    1.8760124314   -0.7746881019
 H   -0.5242248827    1.9364383485    0.9520552397
 H   -0.8890154075   -0.4250974709    0.1545591538
 H    0.2743544756   -0.8133268835   -2.1820540539
 H    2.8651452404   -0.7298129840   -1.9546597995
 H    3.1737292164   -0.2034070772    1.6157852421
 H    2.1637314730    1.2632209350    1.5203907066
 H    0.7975227945   -1.0473952016    1.8165558441
 H    1.7066405438   -2.5761018959   -0.3129256576