14

 O    0.0361166514   -0.0267725795    0.0052161355
 C    0.0284565117    1.1823552018    0.0105720818
 N   -1.0879374001    2.0204868176    0.0287698778
 C   -0.6534929357    3.3412191958    0.0291160972
 N    0.6180843602    3.4993243176    0.0136171107
 C    1.1581274102    2.1680572583    0.0007975742
 C    2.4534005095    1.8443376940    0.7276419291
 C    2.4345838674    1.8510596437   -0.7614297605
 H   -2.0407790101    1.6957686083    0.0395475431
 H   -1.3729082036    4.1518962112    0.0419875836
 H    2.9171072339    2.6761053450    1.2435909793
 H    2.4763022030    0.8874650464    1.2371490314
 H    2.4444885193    0.8988306085   -1.2799750999
 H    2.8851938228    2.6875064613   -1.2814030732