16

 O    0.3191275785    1.3103166485   -0.0582912630
 C    0.0263049823   -0.0435103905   -0.0148997636
 C    0.1273489303   -0.8811131507   -1.3085191161
 O   -1.2450832095   -1.3248436772   -1.1719942825
 C   -1.4297586877   -0.5739289412    0.0396390094
 C   -1.1067929986   -1.4055175697    1.3054219246
 C    0.3506262663   -0.8160764777    1.3179144773
 C    1.4754549517   -1.7320273082    1.3198599161
 N    2.3736842079   -2.4602797395    1.2804304821
 H    1.2522704939    1.4252678667   -0.2742864476
 H    0.2616480953   -0.2598425985   -2.2019746223
 H    0.8415650776   -1.7117356042   -1.3167396149
 H   -2.3230435559    0.0527449576    0.0282057719
 H   -1.6772046222   -1.1431532452    2.1976724388
 H   -1.1679142331   -2.4796572395    1.1304783129
 H    0.4719297633   -0.0853543809    2.1212343369