13

 O   -0.1640661951    0.0463798666   -0.0004544043
 C   -0.0064653583    1.2459282063    0.0081253034
 C    1.2939459070    1.9025151482   -0.0010578260
 C    2.5781597089    1.3651935380   -0.0204287047
 C    3.4876655995    2.4314973224   -0.0214415831
 C    2.7425774720    3.6105101606   -0.0028550043
 N    1.4167408115    3.2690904132    0.0093242105
 C    3.1655354262    4.9584340500    0.0039665396
 N    3.5005162371    6.0678163248    0.0097413020
 H   -0.8748880625    1.9450115623    0.0241061583
 H    2.7988675107    0.3098537015   -0.0321121960
 H    4.5647621148    2.3813923249   -0.0340942385
 H    0.6537743181    3.9271801813    0.0237323631