15

 O   -0.0783276329    1.4770792246   -0.0642374541
 C    0.0032519714    0.0711265471    0.0480779699
 C   -1.3748118288   -0.5708150307    0.0401231566
 O   -1.9770760407   -0.2350617601   -1.2003896832
 C   -3.3112459509   -0.6552896556   -1.3231211225
 C   -3.8281528044   -0.2160370288   -2.6826853780
 O   -4.9404600517   -0.4422466989   -3.0761299094
 H   -0.6329497037    1.6508979236   -0.8333881068
 H    0.6060922832   -0.3666734584   -0.7633976469
 H    0.5045498784   -0.1500555404    0.9958187339
 H   -1.3006227688   -1.6644111219    0.1533817376
 H   -1.9794028943   -0.1766704455    0.8717962011
 H   -3.4068554876   -1.7512105644   -1.2458931487
 H   -3.9554233080   -0.2202775955   -0.5405346946
 H   -3.0770260614    0.3393922548   -3.2870653549