18

 O    0.1231444668    1.4385951386    0.0903030853
 C    0.0824193006    0.0229452993    0.0815971129
 C   -1.3620011136   -0.5060317787    0.0284693311
 C   -2.0727468907   -0.0891685170   -1.2745162319
 C   -2.2652726590    1.4089499364   -1.3999156060
 O   -1.8158482865    2.0780521536   -2.2970297213
 C   -1.4015322063   -2.0459830752    0.1711269040
 C   -0.8569560934   -2.5227524665    1.4414130311
 N   -0.4286612330   -2.8873821415    2.4508569804
 H    0.1513128836    1.7602685972   -0.8160618877
 H    0.6627172055   -0.3963784793   -0.7543355706
 H    0.5567337402   -0.3140909560    1.0090173643
 H   -1.8985589543   -0.0682160113    0.8793075620
 H   -1.5234842854   -0.4414072405   -2.1548623010
 H   -3.0754687601   -0.5395692870   -1.2953506530
 H   -2.8879731687    1.8638698372   -0.5983298992
 H   -2.4337334001   -2.4031863156    0.0865228961
 H   -0.8403903855   -2.5155816537   -0.6464594064