19

 O    0.3676462743    0.7444252036   -0.8743211884
 C   -0.1062322986    0.4651820459    0.4402716274
 C   -1.4444983450   -0.2628766124    0.4032440728
 C   -1.5494960629   -1.6866632978   -0.1436636185
 C   -1.2829978428   -2.7754406159    0.9364017715
 C   -0.5772821845   -2.3950403153    2.1938378986
 C   -1.1263321631   -1.2815334987    2.6916289194
 C   -2.1730353336   -0.7732527772    1.7257192570
 C   -2.5892715086   -2.0338493544    0.8940664437
 H    0.5583505905   -0.1003008561   -1.2945386954
 H    0.6349065202   -0.1044999979    1.0147936105
 H   -0.2215825777    1.4412793968    0.9262050812
 H   -2.1599932227    0.3558400214   -0.1479193859
 H   -1.5292174117   -1.9669797721   -1.1908694644
 H   -1.2316941117   -3.7863891060    0.5482382383
 H    0.2700558444   -2.9364608537    2.5961890626
 H   -0.7843217348   -0.7258585183    3.5561721300
 H   -2.9385082234   -0.1126761147    2.1298530182
 H   -3.5738653682   -2.4732409573    0.7904375414