18

 C   -0.0116329408    1.5496228496   -0.2008575029
 C    1.5653262756    1.5305966267    0.0546028669
 C    1.3416425640    0.2212378549    0.8744872891
 C    1.0710354841    0.2533896757    2.3517295847
 C    0.1355427693   -0.6861976234    2.5234632407
 C   -0.0806458195   -1.2049585178    1.1221745331
 N    1.3610002933   -1.3663478204    0.5149309053
 C    0.7553077551   -0.9632286534   -0.8232576124
 C    0.0464462291    0.0270649675    0.1097379507
 H   -0.5209741925    2.1233081918    0.5780978592
 H   -0.3686422289    1.8679544605   -1.1837049418
 H    2.1408270031    1.4209441652   -0.8651169999
 H    1.9731726059    2.3687942021    0.6249410960
 H    1.5703507600    0.8785891356    3.0792304497
 H   -0.3406268593   -1.0470352374    3.4234032449
 H   -0.7403920358   -2.0543622262    0.9335269967
 H    1.4900795123   -0.5873966931   -1.5395879807
 H    0.1495832650   -1.7508354078   -1.2809399794