18

 O   -0.0408055826   -0.0293115131   -0.1227021886
 C   -0.0436219629    1.1723043529    0.0078680471
 C   -1.2889649310    2.0886322461    0.1184256101
 C   -0.6824529864    3.4006147591    0.4874545161
 C   -0.9594184867    4.4344311083    1.2754198976
 C    0.2721951666    5.2961935116    1.4921393687
 C    1.4320753520    4.3425819126    1.0820416783
 C    0.7724071907    3.4064210021    0.0513176626
 N    1.0705372688    1.9816615246    0.0651171031
 H   -1.7770580192    2.0911122117   -0.8655535227
 H   -2.0063205315    1.6897748138    0.8382007742
 H   -1.9150092741    4.6400088458    1.7441464437
 H    0.2525627721    6.2000933443    0.8669120501
 H    0.3648202258    5.6408102025    2.5273127346
 H    2.3098174167    4.8698284838    0.6987213340
 H    1.7384135845    3.7482725626    1.9489721872
 H    0.8932903943    3.8143563939   -0.9667270906
 H    1.9666662026    1.5934189574   -0.1865645156