23

 C    0.2484382983    1.6417864578    0.0472995542
 C    0.0891153204    0.1297758297    0.0262685124
 C    0.9623213786   -0.7116914952   -0.9507235126
 C    1.3202512808   -1.6963322892    0.2129734572
 C    0.6817250182   -3.0725498733    0.1007974981
 C    2.7968000800   -1.7070377045    0.6257329181
 C    2.9670326385   -0.3492498211    1.3180746684
 O    1.7174524554   -0.0717703858    1.9477756322
 C    0.6680459159   -0.6910800861    1.2196630375
 H    1.2867719316    1.9297775272    0.2351834743
 H   -0.0584459766    2.0800036299   -0.9088338853
 H   -0.3627610108    2.0934714315    0.8359270743
 H   -0.9684546557   -0.1278727530   -0.1007074023
 H    0.4395677718   -1.1604215100   -1.7996538218
 H    1.8286618773   -0.1641736990   -1.3364704065
 H    1.1468180078   -3.6596032974   -0.6996615178
 H    0.7888699443   -3.6353456363    1.0349709173
 H   -0.3877103645   -2.9998170990   -0.1260125238
 H    2.9809015070   -2.5202789650    1.3367948563
 H    3.4779593432   -1.8351274309   -0.2212564798
 H    3.7397613606   -0.3441914997    2.0923294332
 H    3.2164902936    0.4360685993    0.5877691988
 H   -0.0586719956   -1.0672646097    1.9466685378