20

 C    0.5181573890    1.4494455154    0.1372017752
 C    0.0395268720    0.0293619977   -0.0494347737
 C   -0.0127548827   -0.5219709715   -1.2645474631
 C   -0.4181087107   -1.9242948329   -1.6402904510
 O   -0.0175883128   -2.9412113311   -0.7411757067
 C   -0.8591266521   -3.1144355537    0.3674264247
 C   -0.7426172345   -2.0549421551    1.4445203155
 N    0.5983742802   -1.6185166065    1.8399971596
 C   -0.3420191345   -0.6380518216    1.2301688901
 H    1.4080340086    1.4790186150    0.7786331086
 H    0.7707561000    1.9204529992   -0.8157167897
 H   -0.2449987656    2.0650385754    0.6311101817
 H    0.2850941154    0.0958014173   -2.1105927808
 H   -1.5102401231   -1.9796086913   -1.8043480767
 H    0.0531724404   -2.1765095760   -2.5966829755
 H   -1.9157961942   -3.1742442920    0.0498050591
 H   -0.5893363554   -4.0841811896    0.8025487192
 H   -1.4731063486   -2.2115323189    2.2412283230
 H    0.6445158139   -1.4775087068    2.8462079783
 H   -0.7905817652    0.0645943071    1.9338993925