25

 C    0.2092283853    1.6578755718    0.2458278169
 C    0.0944277546    0.1415530501    0.0210438663
 C    0.5665275187   -0.6320263374    1.2638113515
 C   -1.3537997554   -0.2336357846   -0.3104791253
 O    0.8203210001   -0.2691871800   -1.1479123885
 C    2.2059987484    0.0096944944   -1.2145984148
 C    2.7593964929   -0.6592832833   -2.4450445227
 C    2.6508450622    0.0194500368   -3.7844057701
 C    3.9930019345   -0.0974935082   -3.1057464242
 H    1.2239466849    1.9540307972    0.5277049693
 H   -0.0692029673    2.1998826390   -0.6632221919
 H   -0.4604128769    1.9741110555    1.0516273692
 H   -0.0852929941   -0.4163794060    2.1162667918
 H    0.5374811241   -1.7088160987    1.0724556713
 H    1.5851820723   -0.3610531394    1.5561826497
 H   -1.6859151150    0.2985804704   -1.2062108390
 H   -1.4294233416   -1.3069660607   -0.5059286318
 H   -2.0236580241    0.0194661480    0.5166202184
 H    2.3932938381    1.0939856772   -1.2740473245
 H    2.7315583249   -0.3613317591   -0.3213931600
 H    2.6572389659   -1.7405325525   -2.4412206003
 H    2.4588275871   -0.5935699157   -4.6577985810
 H    2.1802706453    0.9965892771   -3.8160731638
 H    4.4298781429    0.8030828417   -2.6858915555
 H    4.7202573023   -0.7928633234   -3.5096028610