18

 C   -0.5155043451    1.2966737583   -0.2220120324
 N   -0.0936182852   -0.0997111063   -0.1129835036
 C    1.2433581829   -0.4386158091   -0.7758673519
 C    1.9948864626    0.1409395283    0.4673260253
 C    0.7291419397   -0.4722184589    1.1374566780
 C    0.2004519094   -0.0751493116    2.4784895711
 O    0.8014334989    0.6070275420    3.2697901318
 C    0.9276911326   -1.9703814144    0.8224256188
 C    1.2829572724   -1.9367902195   -0.4628696342
 H    0.2397992661    2.0619842857    0.0151520820
 H   -0.8551067710    1.4648733639   -1.2494945371
 H   -1.3760236985    1.4581014271    0.4354481488
 H    1.4045152276   -0.0896086038   -1.7955371131
 H    2.9644393479   -0.2872031773    0.7262185370
 H    2.0338382544    1.2301371656    0.5106775466
 H   -0.8204279582   -0.4612273952    2.7015880604
 H    0.7853813674   -2.7946247214    1.5052370739
 H    1.5228433361   -2.7381488833   -1.1458449614