15

 C    0.0656068045   -1.1683407446   -0.0063168912
 C    0.0596966831    0.0321311056    0.0017486904
 C    0.0073982877    1.4843164681    0.0120658500
 O    1.3510615491    1.9951765972   -0.0003414639
 C    1.4219378781    3.3341546596    0.0069980891
 N    0.4373068903    4.1928685384    0.0238848990
 C    1.0596406989    5.4330410131    0.0241152702
 C    2.4155626980    5.2980664475    0.0072785250
 N    2.6445450113    3.9265672854   -0.0038215619
 H    0.0723947778   -2.2302988822   -0.0134715443
 H   -0.5351127326    1.8691138869   -0.8594737759
 H   -0.5143754882    1.8573179952    0.9012250614
 H    0.4814920429    6.3437321462    0.0365140193
 H    3.2246711624    6.0081134791    0.0020726072
 H    3.5295731968    3.4497742446   -0.0172064843