8

 N    0.0182739952    1.3062968461    0.0092909354
 C    1.2902771006    1.7678511133   -0.0003663889
 C    2.0478313593    0.6228996592   -0.0145334460
 N    1.2126159855   -0.4546547500   -0.0121499923
 N   -0.0206913478   -0.0399538567    0.0027830920
 H   -0.8458134205    1.8241362515    0.0205633403
 H    1.5325328382    2.8168209459    0.0031402487
 H    3.1194237895    0.5101089307   -0.0259224092