15

 O   -0.0241587437   -0.0820883224   -0.1801225803
 C    0.0329109741    1.1247436541   -0.1896060051
 C    1.2238327458    1.9357923368    0.0621611713
 C    1.2369241933    3.3328788138    0.0395150969
 N    2.5324298645    3.6382029739    0.3245231205
 C    3.7090905104    4.5026669632    0.5710436468
 C    4.5321308701    3.1674126231    0.7798931833
 C    3.2085494438    2.4744155291    0.4969889869
 N    2.4813301305    1.4042579638    0.3533665975
 H   -0.8709731447    1.7431363800   -0.4034336430
 H    0.4584438409    4.0532141528   -0.1479604553
 H    3.9958423735    5.1038621872   -0.2943192140
 H    3.6054017618    5.1368411538    1.4539861307
 H    5.3236994360    3.0011836981    0.0465192623
 H    4.9350952238    3.0336234727    1.7857606615