12

 N    0.0055665119    1.4161546361    0.1506068076
 C    0.0113519599    0.0356433176    0.0198090581
 N   -1.0172743079   -0.7715702900   -0.0017226450
 N   -0.5760783312   -2.1091084148   -0.0209984645
 C    0.7122000990   -2.0129923735   -0.0312568273
 O    1.7695129671   -2.8484540537   -0.0579490506
 N    2.9392955948   -2.0428372318   -0.0191708158
 C    2.5432004324   -0.8109252061    0.0189255752
 N    1.1737718624   -0.7184292950    0.0038037157
 H    0.4450954044    1.8995655005   -0.6260267213
 H   -0.9502281101    1.7391118012    0.2504008193
 H    3.2270079873    0.0217623695    0.0607032285