23

 C    0.2779685243    1.7197528841    0.2200464147
 C    0.0561749430    0.2029943377    0.0793840629
 C    0.5121943387   -0.3801721840   -1.2790576168
 C   -0.3025794921   -0.0067791401   -2.5359007029
 C    0.2387725926   -0.8065739942   -3.7321576421
 C   -1.8057652082   -0.2656769744   -2.3613692703
 O   -0.0709864145    1.3906225371   -2.7655097501
 C    0.8402551289   -0.5051987994    1.1687449122
 O    0.3717898153   -1.2310657533    2.0072529603
 H    1.3419123561    1.9669093613    0.1266296103
 H   -0.2510891241    2.2606625354   -0.5637389766
 H   -0.0666267254    2.0716404049    1.1977237611
 H   -0.9953286860   -0.0435731056    0.2560197253
 H    1.5532904782   -0.0882090597   -1.4648449549
 H    0.5007067970   -1.4744698676   -1.2049046528
 H    0.0854963231   -1.8823571106   -3.6003214067
 H   -0.2750698738   -0.5084887314   -4.6536726836
 H    1.3082241632   -0.6193791127   -3.8642892533
 H   -2.2297856045    0.3793055541   -1.5884179234
 H   -2.3362073076   -0.0605471284   -3.2986552386
 H   -2.0040392302   -1.3079262587   -2.0915729751
 H   -0.5672292452    1.6439597982   -3.5512998756
 H    1.9384404210   -0.2990547926    1.1403720358