19

 O   -0.0049753945    1.4361935022   -0.0771383809
 C    0.0318351753    0.0256443334    0.0078653197
 C    0.6478880055   -0.5434761825    1.3315790622
 C   -0.5310967339   -1.3328941333    1.9460981029
 C   -1.6155386393   -0.3243398293    2.3502039986
 O   -2.1409891198    0.1522085499    1.0917985020
 C   -1.4100846394   -0.5205616632    0.0711930135
 C   -1.2002436914   -1.9213639878    0.6869726598
 O   -0.3216653230   -2.7851677961   -0.0052729529
 H    0.9007473821    1.7483911100   -0.1623621505
 H    0.5428700859   -0.4057604329   -0.8632894678
 H    1.4979888652   -1.1973584500    1.1282333420
 H    0.9776802144    0.2714172942    1.9827110875
 H   -0.2647143261   -2.0449765582    2.7279672815
 H   -2.4280459124   -0.7837855072    2.9281827996
 H   -1.2144274603    0.5190145394    2.9248128985
 H   -1.9736828018   -0.4451672536   -0.8605206776
 H   -2.1603401772   -2.4070646019    0.9057916263
 H   -0.7585630195   -3.0721662931   -0.8131726546