17

 C   -0.3961123495    1.3670558488    0.3296512243
 O   -0.4299137673   -0.0312049848    0.4857210946
 C   -0.8593708288   -0.7055076677   -0.6745565751
 C   -0.8455083472   -2.1942069531   -0.3794441044
 C   -1.9836577492   -2.7635348151    0.4932541941
 C   -2.3441987020   -3.5783742534   -0.7654512584
 O   -1.2857973609   -2.9545619375   -1.5270499133
 H   -0.0509703804    1.7944901016    1.2742756086
 H    0.2947033289    1.6713252677   -0.4725088227
 H   -1.3918638307    1.7765310050    0.0964084727
 H   -1.8765211919   -0.3912012123   -0.9651715856
 H   -0.1947069264   -0.4957480018   -1.5299389472
 H    0.1624989398   -2.4902789677   -0.0607938050
 H   -1.6701404738   -3.3430852653    1.3619372365
 H   -2.7261934195   -2.0260386800    0.8033900231
 H   -2.1992340476   -4.6626375751   -0.6824741907
 H   -3.3302914136   -3.3875071593   -1.2053466014