17

 C   -0.1384442538    1.5170734003   -0.0398924380
 C    0.0300977341    0.0352478009   -0.0071205966
 C    0.0720511203   -1.0917104926   -0.9685792202
 O    1.2253904631   -1.7245255963   -0.4060904605
 C    0.9473349272   -0.9631426701    0.8004290394
 C   -0.3889431899   -1.5511539744    1.3132832037
 O   -0.7872102634   -1.9189874585    2.3842328083
 C   -1.0674203737   -1.1192570481    0.0538843017
 C   -2.5292805430   -1.0672309387   -0.2577065619
 H    0.7800306178    2.0114848949   -0.3736899461
 H   -0.9418098964    1.8000870382   -0.7273609401
 H   -0.3938548606    1.9087213136    0.9503102662
 H   -0.0959365646   -1.1485398702   -2.0376630958
 H    1.8096173396   -0.7560540141    1.4284698935
 H   -3.1000297154   -0.7261584155    0.6116366619
 H   -2.7388896466   -0.3895102709   -1.0920538687
 H   -2.9038639748   -2.0579688684   -0.5356008169