17

 O   -0.0871059314    1.3144863281    0.0084173054
 C   -0.0033653540   -0.0698306529   -0.0466183691
 C    1.0183047318   -0.7229042959   -0.9817213448
 C    0.3786850236   -2.0897318037   -1.3392389739
 C   -0.7409079229   -2.2652000817   -0.2927713927
 C   -1.2622540727   -0.8346812905    0.0188174397
 C   -0.3523421388   -0.7945584606    1.2864422124
 C   -0.1561671288   -2.2617056772    1.1450742093
 O    0.1671589634   -3.1395153333    1.8983987870
 H    0.7302233309    1.6526266247    0.3909445009
 H    1.1510760349   -0.0890998553   -1.8631391996
 H    1.9956384978   -0.8322496263   -0.4998861510
 H   -0.0541716806   -2.0562710581   -2.3438984690
 H    1.0910718574   -2.9183847489   -1.3107876811
 H   -1.4593400910   -3.0579502591   -0.4987316772
 H   -2.2657240744   -0.4459475504   -0.0747878337
 H   -0.4569391053   -0.2042972190    2.1890014274