20

 C   -0.3531941745    1.5362829937    0.1354987520
 C    0.1675162486    0.1109739361   -0.0774966454
 C    0.8068456194   -0.4843818776    1.1759722089
 C   -0.0965024495   -1.1067086848    2.2383667292
 C    0.8039595958   -1.9952109915    1.4282590551
 C    0.2607485422   -2.9994820586    0.4359407702
 C    1.9702255234    0.2244083388    1.6451348770
 C    2.9477154461    0.8198844726    2.0182836587
 H    0.4550929703    2.2044417571    0.4461450698
 H   -0.7890538013    1.9335407549   -0.7862694173
 H   -1.1242890007    1.5610869586    0.9127409304
 H   -0.6564784467   -0.5323546680   -0.4007455205
 H    0.9051407045    0.1056809213   -0.8890524745
 H    0.1374020077   -0.9243631924    3.2805361211
 H   -1.1582862081   -1.1244089178    2.0098611633
 H    1.6930921438   -2.3378553868    1.9498197596
 H   -0.6720122994   -2.6667842371   -0.0266233784
 H    0.9802568716   -3.2013716302   -0.3649940403
 H    0.0510878540   -3.9491725299    0.9406066155
 H    3.8087811628    1.3427552215    2.3531287255