21

 C    0.0083396952    1.5356698206    0.0929309146
 C    0.0182923440    0.0190346430   -0.0239298430
 C    0.6508082706   -0.4872620473   -1.3235424268
 C    0.5444705105   -2.0161409900   -1.4180635200
 O    1.3956265992   -2.5589371145   -2.4228026351
 C    0.8728832383   -2.6897467754   -0.1050724487
 C    2.1865720207   -2.4515651254    0.6083139742
 C    0.9169108776   -1.8592370906    1.1557345822
 O    0.7628960604   -0.4700846024    1.0908041416
 H    1.0265368552    1.9305944114    0.0229527887
 H   -0.5941145324    1.9788966240   -0.7056505327
 H   -0.4105562150    1.8394607229    1.0559273660
 H   -1.0180637637   -0.3571061702    0.0380607763
 H    0.1579888644   -0.0293212246   -2.1904179115
 H    1.7049341200   -0.1871978328   -1.3470775374
 H   -0.5058972831   -2.2616832139   -1.6500963326
 H    1.1419130428   -2.1673141616   -3.2654838220
 H    0.4583404531   -3.6880208002   -0.0056583543
 H    2.6458481073   -3.2898706285    1.1201747668
 H    2.8852216340   -1.7531359573    0.1623960102
 H    0.4898124109   -2.2807380970    2.0629660935