21

 C    0.0125222397    1.5759081289    0.0360140899
 C    0.0864799592    0.0476312716    0.0130695659
 C    0.8048227475   -0.4967236227   -1.2385766202
 O    2.1723684571   -0.0539777307   -1.2785960527
 C    0.7800907319   -2.0246123059   -1.2112625830
 O    1.5096426364   -2.4768532426   -0.0815454577
 C    0.8938042496   -2.0700204387    1.1396420306
 C    0.7561431455   -0.5436960435    1.2756917617
 O    2.0024407779    0.0699754725    1.5653638722
 H    1.0086225734    2.0232338035    0.0248232331
 H   -0.5359168980    1.9480182248   -0.8358429020
 H   -0.5015637765    1.9274171923    0.9361223674
 H   -0.9386051718   -0.3484866772   -0.0224388580
 H    0.3136993825   -0.1246198558   -2.1465279462
 H    2.7078504091   -0.8205473360   -1.0336691946
 H   -0.2573434021   -2.3944470243   -1.1896528975
 H    1.2801351029   -2.4409602893   -2.0915650449
 H   -0.1022222703   -2.5375719613    1.2210605564
 H    1.5290668499   -2.4512443031    1.9423585449
 H    0.1146904018   -0.3544817050    2.1472454312
 H    2.4142562444    0.2770533025    0.7166548334