13

 C   -0.0129073214    1.3838758019    0.0137697748
 O    0.0170182478   -0.0485980077   -0.0240035238
 C    0.6164970455   -0.5812769662   -1.0749008227
 N    1.1661428731    0.1105649403   -2.0503999277
 O    1.6545242720   -0.8893121079   -2.8998335773
 C    1.3343922434   -2.0640325611   -2.3261875864
 N    0.6946201443   -1.9423731650   -1.1980370373
 C    1.7176399646   -3.2505436644   -2.9879495402
 C    2.0490930597   -4.2535559946   -3.5604347633
 H    1.0031139671    1.7891589362    0.0240297029
 H   -0.5466611637    1.7799636946   -0.8550705524
 H   -0.5361752215    1.6427671157    0.9335313099
 H    2.3396996191   -5.1443688818   -4.0623083865