22

 C   -0.0919982331    1.5177547827   -0.3525267620
 C    0.0041938460    0.1520914227    0.3226318117
 N   -1.2507069755   -0.5776031769    0.1403944220
 C   -1.5729439532   -1.3463851270   -1.0343112647
 C   -0.3702416068   -2.1272236321   -1.5971787018
 C   -0.2674411219   -2.8581100208   -0.2112644429
 O    0.9246122163   -2.8052077393    0.5292722743
 C    1.9268570675   -3.6648335323    0.0326656752
 C   -1.4149393084   -1.9976947189    0.3291205400
 H    0.8163512614    2.1014682615   -0.1740265976
 H   -0.2163420819    1.4117369586   -1.4357493786
 H   -0.9495028015    2.0790616443    0.0296524493
 H    0.8835549804   -0.3931833394   -0.0392744452
 H    0.1404642394    0.2727638456    1.4031203247
 H   -2.4851605275   -1.1209223062   -1.5757099288
 H   -0.6354461148   -2.8038816141   -2.4121658633
 H    0.4933738098   -1.5287874669   -1.8997526061
 H   -0.5970170141   -3.9034364303   -0.3185372149
 H    1.5942607433   -4.7149191963    0.0322055441
 H    2.2280722326   -3.4001187201   -0.9919966201
 H    2.7940936538   -3.5692520013    0.6902534511
 H   -2.1639808917   -2.3418424134    1.0347786335