19

 C   -0.0479837193    1.5557178652    0.0844879944
 C    0.0885752651    0.0312808976    0.0428059211
 C    0.6770318289   -0.4780013315   -1.2768160900
 C    0.8155282586   -1.9988608747   -1.3238290153
 C    1.3992142302   -2.5297224945   -2.6278055148
 C    1.5583033170   -4.0382210102   -2.7270655075
 O    1.7188097661   -1.7951048858   -3.5343764213
 H    0.9252939451    2.0427151075   -0.0413397086
 H   -0.7016763180    1.9154707827   -0.7177170453
 H   -0.4699941524    1.8941888219    1.0359221204
 H    0.7195693213   -0.3031237591    0.8775100322
 H   -0.8951805435   -0.4294158126    0.2061865009
 H    0.0529562715   -0.1494127357   -2.1160186651
 H    1.6599121897   -0.0237296532   -1.4479428543
 H    1.4465947493   -2.3623528727   -0.4994421837
 H   -0.1571356296   -2.4878026444   -1.1662083153
 H    0.5892723988   -4.5341322973   -2.6007030702
 H    1.9822569712   -4.3034519129   -3.6962655131
 H    2.2092646299   -4.4076697004   -1.9266483046