17

 O    0.1555053135    1.4442142500    0.0652991088
 C    0.0406125160    0.0406316196    0.0349555823
 C    0.6574700715   -0.5332779169   -1.1862548951
 N    1.1672088769   -0.9895296658   -2.1175384778
 C    0.6930130773   -0.5587609783    1.2658364884
 C    0.3432038626   -0.2629006376    2.7476100291
 C    1.6704353827   -1.0587235620    2.7144803870
 C    1.0341623996   -2.0183057571    1.6676324629
 N    2.1154594925   -0.1198487727    1.5967848162
 H    1.0307357870    1.6352233931    0.4349765864
 H   -1.0284806769   -0.2006983280    0.0184457174
 H    0.4223453301    0.7802597311    3.0512492668
 H   -0.5319582141   -0.7678212344    3.1581207824
 H    2.3311353090   -1.3021429216    3.5455409110
 H    0.2142063889   -2.6647919651    1.9940441465
 H    1.7294195416   -2.5434481769    1.0077587761
 H    2.7670985720   -0.6189212273    0.9819363316