20

 C    0.2910252456    1.2217101014   -0.5648502131
 C   -0.0078206012   -0.0063117258    0.2927048934
 O    0.2206534786    0.2471282246    1.6866870672
 C   -1.3942641133   -0.5447190651    0.0823342779
 C   -2.3159789972   -0.4169917687   -0.9354397114
 C   -3.4620022579   -1.2000993053   -0.5989400444
 C   -4.7123218306   -1.3631538345   -1.4102988820
 C   -3.1956102332   -1.7771931117    0.6233174360
 N   -1.9434837923   -1.3828241819    1.0210976957
 H    1.2996144814    1.5842543753   -0.3513083409
 H    0.2253048231    0.9808697403   -1.6300366910
 H   -0.4248867896    2.0243554566   -0.3564312691
 H    0.7327889307   -0.7833747398    0.0582187071
 H   -0.3967223584    0.9400179201    1.9505686879
 H   -2.1871234752    0.1655942818   -1.8356273290
 H   -4.5067814511   -1.8055630021   -2.3924121475
 H   -5.4304882577   -2.0134107785   -0.9017575641
 H   -5.2091472301   -0.4026006754   -1.5919081448
 H   -3.8002091154   -2.4252095575    1.2386336962
 H   -1.4937522161   -1.5902770737    1.8964011461