21

 C   -0.0773997848    1.6726190279    0.0245055320
 C    0.0481439897    0.1575039545   -0.0002981459
 C    1.1435937550   -0.5793223754   -0.8081557325
 C    2.4405782170    0.0252160286   -0.1503161520
 C    2.0647027603    0.0094988230    1.3947496153
 C    0.7246523604   -0.6662358635    1.1699695905
 O   -0.1520206650   -1.4406646635    1.9887404402
 C   -0.2798581522   -2.3803345788    0.8643320910
 C    0.9803728639   -1.7856102214    0.1567285999
 H    0.8657041056    2.1842381642    0.2330379796
 H   -0.4450421158    2.0451893099   -0.9384676929
 H   -0.7969870822    1.9827889390    0.7901663662
 H   -0.9332754021   -0.2721707918   -0.2084106161
 H    1.1441516600   -0.6367201514   -1.8982432934
 H    3.3201586925   -0.5912039944   -0.3540314294
 H    2.6469392426    1.0326557925   -0.5183497015
 H    2.7508892953   -0.6028706592    1.9840688975
 H    2.0226889218    1.0100158926    1.8328843762
 H   -0.1428220768   -3.4082190620    1.2094789094
 H   -1.2506214722   -2.2890849284    0.3679144480
 H    1.8561858871   -2.4247757925    0.2871454081