18

 C   -0.2789683129    1.3933670198    0.1668448854
 C   -0.5192838641   -0.0509003105   -0.2334284904
 O   -0.3857953023   -0.4152133139   -1.3977823299
 N   -0.8922562040   -0.8825518992    0.7740790503
 C   -1.0854535821   -2.2975043150    0.6737840161
 C   -2.4967747352   -2.8296849535    0.9378916387
 O   -3.5076466412   -1.9042146655    1.1536017155
 C   -1.9237077686   -2.8910792883   -0.4494257412
 O   -2.5424947858   -2.0475762654   -1.3611904840
 H   -0.9656718787    2.0329162382   -0.3940250862
 H   -0.4028287876    1.5831067294    1.2354039779
 H    0.7364602557    1.6688136662   -0.1294748860
 H   -1.0886902065   -0.4690609625    1.6723445449
 H   -0.2457821285   -2.8994209541    1.0156243041
 H   -2.6040927236   -3.7327011856    1.5305292372
 H   -3.7078497013   -1.5396400691    0.2766170686
 H   -1.5851562990   -3.8470834749   -0.8455407425
 H   -1.8378278742   -1.4594644461   -1.6995725985