21

 O    0.4306838440    1.1889777802    0.5913472459
 C    0.0766514061   -0.0800300407    0.0304661249
 C   -1.4384141339   -0.3137898826    0.1208803225
 C   -1.8184376741   -1.7343199930   -0.2409358948
 C   -3.0696166883   -2.0525875514   -1.0248120647
 C   -1.7133116550   -2.1740377346   -1.6776619237
 C   -1.2556999273   -1.1711156851   -2.7285830083
 C    0.1368583307   -0.6196644470   -2.4986987527
 C    0.6769648834   -0.1962569536   -1.3529238100
 H    0.1124874057    1.8651216335   -0.0174588289
 H    0.5778455897   -0.8030477359    0.6899741604
 H   -1.7542767354   -0.0761919517    1.1426003737
 H   -1.9495480852    0.4012980558   -0.5357102913
 H   -1.5227207419   -2.4714992996    0.5016488375
 H   -3.6172485750   -2.9569672690   -0.7826416708
 H   -3.7004021287   -1.2218655086   -1.3277169827
 H   -1.3432757823   -3.1824211088   -1.8393713433
 H   -1.2932701657   -1.6430398205   -3.7165876650
 H   -1.9722974223   -0.3414255991   -2.7855377611
 H    0.7665714996   -0.5660692368   -3.3850946901
 H    1.7054497558    0.1613622384   -1.3784711473