18

 C   -0.0468253588    1.5356182744   -0.0067536003
 C    0.0231104675    0.0180225376   -0.0027425861
 C   -1.2288040043   -0.7653327298    0.4826454255
 O   -0.4306944033   -1.5459307971    1.3986030212
 C    0.7060954882   -0.6842175391    1.2027933054
 C    1.9862671694   -1.4184873268    0.8804088981
 O    1.9738242314   -2.0432022184   -0.4078097925
 C    1.2904326466   -1.4056219177   -1.3838127703
 N    0.4466434250   -0.4656107903   -1.3067857804
 H    0.9464100980    1.9677776475   -0.1674147077
 H   -0.6919310956    1.8783705779   -0.8208700965
 H   -0.4399544451    1.9159991147    0.9411469010
 H   -1.9670505721   -0.1483893952    1.0118176675
 H   -1.7250744034   -1.3820817276   -0.2719955546
 H    0.8713378328   -0.0335929631    2.0739965571
 H    2.8220593229   -0.7061281143    0.9126273626
 H    2.1760435535   -2.2159810526    1.6033105692
 H    1.5551298872   -1.8275113301   -2.3520871791