16

 N    0.1382778584    1.4085462216    0.1395569494
 C   -0.0421580302    0.0245555564    0.0464433417
 C   -1.1479823654   -0.7906297397    0.0331150701
 C   -2.6467498374   -0.8573678853    0.0153293803
 C   -2.8732845375   -2.3675873605   -0.0216745471
 C   -1.7180772995   -3.0597099712   -0.0274605512
 C   -0.6170934257   -2.1043604563    0.0089569008
 N    0.7053240790   -2.1506602580    0.0039797322
 N    1.0365940581   -0.8212925228    0.0281010714
 H    0.7906407917    1.7734889889   -0.5452145917
 H   -0.7391407229    1.9033256422    0.0518756040
 H   -3.1226393250   -0.4106849881    0.8994983807
 H   -3.1044238841   -0.3694526873   -0.8569880918
 H   -3.8668058563   -2.7982602334   -0.0382610278
 H   -1.6150537016   -4.1363508952   -0.0524596776
 H    2.0031537886   -0.5623023412    0.1280443967