14

 N   -0.0992605516    1.2075722358   -0.4498319270
 C   -0.0497159845   -0.0099964790   -0.0819798084
 N   -1.1864127265   -0.7440773004    0.1691670895
 C   -1.0959637133   -1.9653525661    0.9434924645
 C    0.0462935703   -2.7827338987    0.3730832442
 O    1.2814814695   -2.0482603080    0.4007402514
 C    1.2875284830   -0.7355956342    0.0852424081
 O    2.3283840459   -0.1501441125   -0.0309483568
 H    0.8538566504    1.5363422609   -0.6091049903
 H   -2.0259344329   -0.1865712908    0.2407567296
 H   -0.9266714556   -1.7821122190    2.0164714135
 H   -2.0282178065   -2.5290902062    0.8431023845
 H    0.2297127105   -3.6836180594    0.9615155205
 H   -0.1713820088   -3.0687759523   -0.6622460232