17

 O    0.0163435291    1.3555560343   -0.0665100893
 C    0.0095624739   -0.0546925351    0.0179210448
 C   -1.3936173227   -0.5749943232    0.1391308441
 C   -2.5214032522   -0.1701702466    1.1208578093
 C   -3.1200640854   -1.0162235144   -0.0204367314
 O   -2.3125443019   -0.2453410091   -0.9934875806
 C   -1.9495030395   -2.0402326493    0.1248816026
 C   -1.6289464833   -2.9079051180   -1.0577395620
 O   -1.3132455459   -4.0687775546   -0.9559565567
 H   -0.5798871891    1.5959776598   -0.7856717896
 H    0.4960845546   -0.5243914656   -0.8516043824
 H    0.5823879754   -0.3287626552    0.9100139800
 H   -2.5010229925   -0.5970586984    2.1256505240
 H   -2.7870737766    0.8863055819    1.1026708756
 H   -4.1601345807   -1.2119887245   -0.2784277456
 H   -1.8876607039   -2.6030174337    1.0586612546
 H   -1.7058530893   -2.4073439882   -2.0427681275