19

 O   -0.0706830401    1.4485217209    0.3055580957
 C   -0.0245765317    0.0761215888    0.0784065094
 C   -0.3984533762   -0.8553897757    1.1933858728
 O   -1.0650445205   -0.1959564072    2.2482307816
 C   -2.4665541507   -0.0731629537    1.9512113131
 C   -2.9824040231    1.3782940728    1.7745103283
 C   -3.1152633008    1.1466852691    0.2385706564
 C   -2.6383136533   -0.3323243110    0.4280199820
 C   -1.2716921928   -0.7996705579   -0.0445970300
 H   -0.2039482029    1.5536658071    1.2579867230
 H    0.8015988781   -0.2093109727   -0.5684694968
 H    0.2008338085   -1.7047905534    1.5052388251
 H   -3.0298932218   -0.6999252485    2.6511667124
 H   -3.9300322001    1.5624344390    2.2864890244
 H   -2.2730588913    2.1476866789    2.0859953738
 H   -4.1357889384    1.2327808931   -0.1406091297
 H   -2.4537675352    1.7572998697   -0.3727060409
 H   -3.3953997787   -1.0747845711    0.1671025684
 H   -1.2260807389   -1.5955356780   -0.7795488291