27

 C   -0.1825540431    1.6878545737    0.1028530036
 C   -0.1057741108    0.1578334668    0.1220427827
 C    0.5179497480   -0.4515757994    1.3939916216
 C   -0.3275443703   -0.1581845797    2.6418700196
 C    0.7289131451   -1.9658729147    1.1835231707
 C    1.4370227165   -2.7581333133    2.2987323438
 C    1.4067346628   -4.2620613185    1.9908080847
 C    2.8754551559   -2.2821015308    2.5114733241
 O    3.4335122069   -3.0101801307    3.5980979996
 H    0.8077692642    2.1357590462    0.2445362510
 H   -0.5726155711    2.0458330397   -0.8552909698
 H   -0.8379867245    2.0783350548    0.8871642818
 H   -1.1124876982   -0.2613048569   -0.0163829100
 H    0.4794981667   -0.1755956136   -0.7446707243
 H    1.5000239542    0.0241833796    1.5301169738
 H   -1.3167910091   -0.6253613150    2.5586807104
 H    0.1431097608   -0.5408119136    3.5519877595
 H   -0.4779068251    0.9156446823    2.7841414422
 H   -0.2545658003   -2.4268051281    1.0147219687
 H    1.2879344667   -2.1138473583    0.2481615961
 H    0.9085541107   -2.6006512214    3.2475093686
 H    1.8939386751   -4.4733494122    1.0307048829
 H    1.9300566711   -4.8260440966    2.7655084021
 H    0.3770185640   -4.6286822477    1.9279678024
 H    3.4532824899   -2.4452050678    1.5851548812
 H    2.8931848783   -1.2026644996    2.7228531725
 H    4.3411372555   -2.7183102854    3.7203429207