25

 C    0.0020296066    1.5443494142   -0.2293389808
 C   -0.0105621229    0.0366842439   -0.0551065385
 C   -1.2511571588   -0.6274874228   -0.6249583317
 C    1.2959440410   -0.7161796853   -0.1652566646
 C    0.6036577809   -0.6016610905    1.1784587114
 C    1.2138418923    0.1689997851    2.3167686360
 C    0.3179590034    0.5868851333    3.5215809120
 C    1.5038615976    0.2635173983    4.4687522624
 C    2.1272126147   -0.5868550890    3.3295580654
 H    0.9193099923    2.0000848182    0.1512085840
 H   -0.0778719409    1.8073398089   -1.2909514847
 H   -0.8441536297    2.0116492074    0.2887511253
 H   -1.3462194121   -0.4303610848   -1.6998476346
 H   -1.2241095460   -1.7131031597   -0.4875206733
 H   -2.1600157830   -0.2521437639   -0.1390695166
 H    1.3046191738   -1.6781832767   -0.6678297440
 H    2.2026439963   -0.1355086551   -0.3086599937
 H    0.0938536417   -1.5058195865    1.5098694987
 H    1.7502490103    1.0467048880    1.9419027718
 H   -0.0894756828    1.6012454471    3.5285262209
 H   -0.5083868434   -0.1189704092    3.6576173103
 H    2.1037891471    1.1527817329    4.6840254006
 H    1.2793149023   -0.2374663239    5.4133305752
 H    1.8360096955   -1.6396472305    3.4093132168
 H    3.2086104536   -0.5379376395    3.1785330617