19

 C   -0.3114452525    1.6266088988   -0.1577629338
 C   -0.0775291835    0.1434970071   -0.0357998180
 C    0.5836734787   -0.8399341941   -1.0342734426
 N    0.1882885565   -1.7872073387    0.1178184597
 C    0.7337388982   -0.6564653344    1.0119420493
 C   -1.1528718952   -0.9922715565    0.1410946944
 C   -2.0275050502   -1.1197101394    1.3891743557
 C   -2.0082256617   -1.2581689705   -1.0222440927
 N   -2.7321830007   -1.4404443543   -1.9053893817
 H    0.6368958643    2.1593783818   -0.2838793008
 H   -0.9435141833    1.8507115185   -1.0232707685
 H   -0.8044347535    2.0245308148    0.7355123853
 H    0.0801530192   -1.0522927830   -1.9786396361
 H    1.6649886014   -0.7675370040   -1.1675086982
 H    1.8215152552   -0.5743033711    0.9600559378
 H    0.4046479796   -0.6910853581    2.0493001545
 H   -1.5201743565   -0.8077978200    2.3015097847
 H   -2.9260100698   -0.5070802227    1.2743877130
 H   -2.3436777065   -2.1599917643    1.5086483381