20

 C   -0.2189384984    1.6195179973   -0.1037204204
 C   -0.0198860698    0.1207832295    0.0377143299
 C    1.1903805035   -0.5722072807   -0.6510018991
 C    2.2152511156   -0.1215345828    0.4163369605
 C    2.5556139561   -1.5457129163    0.8512000714
 C    2.4163483335   -1.6202439791    2.3893798495
 C    1.1076721548   -0.7721216523    2.6203421040
 C    0.8735014331   -0.4368521350    1.1642751806
 N    1.1226883282   -1.7394508795    0.3569108648
 H    0.7211349797    2.1669289222    0.0211281475
 H   -0.6215608984    1.8661020334   -1.0918658147
 H   -0.9264617230    1.9948697663    0.6433321637
 H   -0.9565708645   -0.4349893813   -0.0853595662
 H    1.3441196879   -0.7537012237   -1.7164120547
 H    2.8126058267    0.7954119590    0.4628620392
 H    3.3382386542   -2.1520107562    0.3887365855
 H    2.2951396624   -2.6535556682    2.7255756494
 H    3.2846659811   -1.1962280863    2.9023180693
 H    0.2990989287   -1.3647511605    3.0548683187
 H    1.2752878986    0.1079852144    3.2463833013