17

 C   -0.1013419042    1.5218551855   -0.1725008256
 C   -0.0053503823    0.0251639525    0.0069171813
 C    1.2861303221   -0.7059116355   -0.2020258035
 C    0.7174070100   -0.6117865735    1.1986636720
 C    1.3753302680    0.1930377867    2.2372391419
 N    2.3132683155    1.0803583566    2.0070232131
 O    2.6113016831    1.5888215645    3.2802322568
 C    1.8212133620    0.9346641819    4.1293330391
 N    1.0377330701    0.0676728952    3.5767452175
 H    0.8080904916    2.0238497756    0.1667869725
 H   -0.2489831303    1.7682589198   -1.2295414834
 H   -0.9467292320    1.9350054347    0.3883097390
 H   -0.9025427508   -0.5182358516   -0.2780688976
 H    1.2774063093   -1.6792446785   -0.6798370665
 H    2.1704592448   -0.1100541273   -0.4009042227
 H    0.2486184663   -1.4967622507    1.6123025278
 H    1.9104768668    1.1851258139    5.1765032285