17

 O   -0.0009486457    0.0015405296   -0.0120590797
 C   -0.0258447245    1.1952581770   -0.0131060225
 C   -1.0623893228    2.3254869586    0.0686036802
 C    0.0106614739    3.0286693399    0.9986000321
 C    0.9929532828    2.3586820184   -0.0180508728
 N    2.3826813663    2.1026490078   -0.4850340069
 C    1.8098407243    2.2336397832   -1.8963668108
 C    0.6096732816    3.0485990512   -1.3072278338
 N   -0.8844191376    2.9486542493   -1.2910574005
 H   -2.0965873203    2.2039046188    0.3796350809
 H    0.0148360839    4.1199405303    1.0058007471
 H   -0.0168499371    2.6170308187    2.0092297152
 H    2.9599502777    2.9245424733   -0.3084639368
 H    2.4571821578    2.7453702441   -2.6108895462
 H    1.5506456628    1.2388629409   -2.2667474921
 H    0.8960757641    4.1074857860   -1.3156251067
 H   -1.2558348771    2.3280187629   -2.0060055566