18

 O    0.0016554756   -0.1109922635    0.2477550181
 C    0.0132046184    1.0396383436   -0.1088536122
 C    1.2909924313    1.8569319212   -0.1802317974
 N    2.4554833373    0.9986774879   -0.2273910769
 C    3.7158039759    1.7199693865   -0.1470172686
 C    3.8644066046    2.5733082416   -1.4099068460
 C    2.6606058567    3.5188336855   -1.5797765396
 C    1.3161486046    2.8424683078   -1.3611793673
 O    0.3307782717    3.0995951447   -2.0101829040
 H   -0.9092934397    1.5891801109   -0.3733815809
 H    1.2546087455    2.5099508428    0.7283584583
 H    2.3607792286    0.2528235208    0.4514304468
 H    3.7852731296    2.3675896723    0.7498514009
 H    4.5302640236    0.9921897855   -0.0853854494
 H    4.7902040902    3.1565317326   -1.3737453522
 H    3.9272109708    1.9040088564   -2.2741711343
 H    2.7178229399    4.3102617414   -0.8161617511
 H    2.6450960952    4.0135067017   -2.5539156240