24

 C   -0.0185777113    1.5493953539   -0.0111527621
 C   -0.0059310334    0.0107551155   -0.0021026709
 C   -1.4637207745   -0.4904711178    0.0802030295
 C    0.6635996895   -0.5222428692   -1.2904461798
 C    0.9897194827   -2.0147135708   -1.1881759876
 C    1.9954069653   -2.2839228337   -0.0638995459
 N    1.6715522938   -1.6334793155    1.2203192385
 C    2.2032015489   -0.2883550617    1.4314887467
 C    0.7443101405   -0.4878238465    1.2371263128
 H    0.9953127959    1.9553656472   -0.0802139443
 H   -0.5935201160    1.9286551083   -0.8640670514
 H   -0.4767655935    1.9467248344    0.9014262795
 H   -2.0385210112   -0.1605829925   -0.7919470286
 H   -1.5234579567   -1.5815416866    0.1312756443
 H   -1.9579218201   -0.0939299222    0.9733952940
 H    0.0010950886   -0.3268877402   -2.1417020476
 H    1.5874115055    0.0376636510   -1.4887068714
 H    0.0714469446   -2.5849338629   -1.0080126386
 H    1.4027787762   -2.3861483063   -2.1326408957
 H    2.0612904308   -3.3624107690    0.1211752867
 H    2.9943689461   -1.9616323929   -0.3861529323
 H    2.6102452337   -0.0850363520    2.4197636502
 H    2.7664613882    0.1663284960    0.6170861425
 H    0.1266131666   -0.4743777265    2.1357952314