20

 C    2.9155982191   -0.6894861446    0.3813263786
 N    1.5973443397   -1.2948503867    0.4928883900
 C    1.4079963896   -2.3188469348    1.5121545204
 C    0.7419212559   -0.9883885999    1.6441838767
 C    1.1268763623   -0.0287874312    2.7404485304
 C    0.8295611345    1.5109947111    2.5412561511
 C   -0.0761040871    1.4484026993    3.7765835862
 O   -1.0926437391    0.4758461104    3.5029235436
 C    0.1823776009    0.0118711843    3.9606111901
 H    3.4744487863   -0.6148794338    1.3279839996
 H    3.5158563937   -1.2893399487   -0.3104899169
 H    2.8203666456    0.3163473774   -0.0408270726
 H    0.8455709889   -3.1998858091    1.2133176451
 H    2.2397009115   -2.5221977511    2.1879501138
 H   -0.3104077374   -0.9176216889    1.3769140917
 H    2.1596743398   -0.1740370516    3.0657767295
 H    1.7209147064    2.1276699170    2.6772070894
 H    0.3234627088    1.7945252752    1.6153284582
 H   -0.3150566248    2.2217728716    4.4969098852
 H    0.1917411454   -0.6077635958    4.8503050696