17

 O   -0.0537773003    1.4439960844   -0.1189287214
 C    0.0026297649    0.0355457479   -0.0238771777
 C   -1.3874496816   -0.5761345127    0.0436305437
 O   -2.0531389304   -0.2150923420   -1.1582869929
 C   -3.4049412488   -0.6023081690   -1.1971781656
 C   -3.9644128833   -0.1340970264   -2.5464755913
 C   -5.3701472876   -0.4902567222   -2.7088832318
 N   -6.4826611112   -0.7811410633   -2.8196351663
 H   -0.6508509498    1.6367716910   -0.8507710657
 H    0.5471937239   -0.4070598631   -0.8731080235
 H    0.5532242451   -0.2060096430    0.8908744369
 H   -1.3308748694   -1.6718682385    0.1427059580
 H   -1.9336075319   -0.1763015660    0.9119192822
 H   -3.5061880264   -1.6944965320   -1.1056809380
 H   -3.9728608495   -0.1464165893   -0.3717585124
 H   -3.8535183063    0.9521637987   -2.6297133127
 H   -3.3796028675   -0.5820230747   -3.3565837415