22

 C    1.5244942463    1.2185076715   -0.7337578002
 C    0.9305744580   -0.1141665334   -0.3291387648
 N    1.7375997194   -1.3088525851   -0.0406972121
 C    3.1974451391   -1.2340261579   -0.0845483523
 C    3.6897080526   -1.4340560335   -1.4464897245
 C    4.1006329209   -1.5831425263   -2.5656449489
 C    0.9815606868   -0.6830573034    1.0593566715
 C    1.6798419019    0.0544296407    2.1886171644
 C   -0.1843733224   -1.5303929987    1.5373160846
 H    2.3441595764    1.5491888956   -0.0934071989
 H    1.9032147240    1.1694126187   -1.7599551930
 H    0.7502141623    1.9922672394   -0.7004344479
 H    0.0438425861   -0.3616273169   -0.9144005648
 H    3.6236885323   -0.2962660712    0.3031661801
 H    3.5852598328   -2.0335774788    0.5596688697
 H    4.4634417744   -1.7231877671   -3.5535623901
 H    2.4951159067    0.7004673590    1.8607175029
 H    0.9589766261    0.6832946453    2.7223302129
 H    2.0881826674   -0.6580016593    2.9150991600
 H    0.1458561724   -2.2645442774    2.2815757814
 H   -0.9566522514   -0.9067288654    2.0024620002
 H   -0.6301160522   -2.0753908760    0.7021737800