17

 C    0.1506926125    1.6123785264   -0.0815442625
 C    0.1439845246    0.0814294591   -0.0435718969
 N   -1.2169296579   -0.4087703549    0.0523408910
 C   -1.6953653255   -1.1970549248   -0.8131511520
 N   -2.9941143793   -1.7036081042   -0.7950776790
 C   -4.0215985637   -1.4813765752    0.1135024018
 N   -3.9394121865   -0.7340968166    1.1337092734
 C   -0.9555962504   -1.7036278544   -1.9706886625
 N   -0.3662167251   -2.0987952953   -2.8839872949
 H    1.1790446159    1.9857017022   -0.0703235699
 H   -0.3385380686    1.9807528694   -0.9882427393
 H   -0.3825760018    2.0178603810    0.7819687840
 H    0.6909135154   -0.3223868959   -0.9091913760
 H    0.6684226723   -0.2554408052    0.8595422608
 H   -3.2182246108   -2.3228223239   -1.5569784957
 H   -4.9086110765   -2.0512788484   -0.1907129412
 H   -4.8280896148   -0.7434870393    1.6322803489