15

 N    0.0762897620   -1.0820602730   -0.1028488321
 C    0.0359271194    0.0735116730   -0.0386368436
 C   -0.0292330468    1.4922459381    0.0501583451
 C   -1.1353043725    2.3449172305    0.6803053647
 C   -0.4885787932    3.5408793925   -0.0665128935
 C    0.8979201553    3.7064370118    0.6188863425
 C    1.2541289634    2.3654044647   -0.0153321251
 C    0.1897336939    2.5121418899   -1.0624779334
 H   -2.1099995708    2.0781695909    0.2658047256
 H   -1.1933420401    2.3987485157    1.7722416821
 H   -1.0832575369    4.4054875375   -0.3482748299
 H    1.4798388227    4.5124571752    0.1644103504
 H    0.9151559885    3.8033479787    1.7094317694
 H    2.2189632852    1.8850091719   -0.1091939234
 H    0.1898814200    2.3774433424   -2.1338039787