18

 O    0.1491811298    0.0265763930   -0.0756973431
 C    0.0233595675    1.2153514678    0.0107507452
 C   -1.1559616538    2.1513078672    0.3077057909
 C   -0.1087996419    3.2588452354    0.6393917684
 C    1.0339230482    2.3802734222    0.0338940377
 C    2.3310859135    2.1756803422    0.8108084756
 C    3.2358294024    1.1218497774    0.1354538962
 C    4.4765151145    0.9024211740    0.8740797003
 N    5.4528928356    0.7456886316    1.4720616712
 H   -1.7413691334    2.3602626826   -0.5936788755
 H   -1.8390324616    1.8273756586    1.0963134697
 H   -0.2657981777    4.2292652456    0.1682049653
 H    0.0135002389    3.4036641659    1.7154070003
 H    1.2527069976    2.6871896442   -0.9978386875
 H    2.8701947963    3.1252995211    0.8966636459
 H    2.1031854904    1.8485901401    1.8313939313
 H    2.6934119172    0.1749144525    0.0482486197
 H    3.4899546866    1.4374602186   -0.8835122316