13

 O    0.1101621484    1.3165994458    0.0630376958
 C    0.0704969117   -0.0224558802    0.0520850109
 N    0.0760395830   -0.6306700998   -1.1266758175
 C    0.0356714480   -1.9736003296   -1.1083110725
 N   -0.0092444611   -2.7487116057   -0.0200554503
 C   -0.0134338725   -2.1001151111    1.1512817611
 C    0.0253733433   -0.7222250331    1.2622497352
 C    0.0416008256   -2.6328823216   -2.3810997923
 C    0.0466085515   -3.1848500150   -3.4490217365
 H    0.1371054483    1.5966706723   -0.8638850807
 H   -0.0498503028   -2.7230708241    2.0416433930
 H    0.0216324442   -0.2070370713    2.2133214779
 H    0.0508933625   -3.6757894668   -4.3909748740