12

 N    0.0825332711   -1.1482399911   -0.1120919556
 C    0.0677859869    0.0080529131   -0.0414263344
 C    0.0291486601    1.4212427838    0.0698880668
 N    0.2108211768    2.3427215182   -1.0847490435
 C    1.1534855867    2.4082391107    0.0362827834
 C    0.4719004216    3.2044642867    1.2073535511
 O   -0.8453367541    3.5756125538    0.8016511936
 C   -0.6321013940    2.2496699776    1.2476267643
 H    0.6541354523    1.8043547074   -1.8302979582
 H    2.2113579314    2.2108973518   -0.0712271319
 H    0.9618946562    3.7821576917    1.9797341665
 H   -1.2366138750    1.8464150763    2.0496150478