15

 C   -0.0618192698    1.4574116663    0.0105292744
 C    1.3973934768    1.8733670071   -0.0012181898
 C    2.1889322927    0.7857843869   -0.0146726109
 C    1.3654455637   -0.4075260055   -0.0132749249
 C    1.3787154300   -1.7886012990   -0.0207237805
 C    0.0167139637   -2.2049908047   -0.0099781809
 C   -0.7824443427   -1.0759388403    0.0038446962
 N    0.0493030585    0.0075703691    0.0015462309
 H   -0.5911603454    1.8159907677    0.9028334035
 H   -0.6081774180    1.8256718627   -0.8674600963
 H    1.7061848871    2.9087983018    0.0014088697
 H    3.2701114205    0.7800610682   -0.0250521697
 H    2.2503981502   -2.4241282218   -0.0324629045
 H   -0.3429474301   -3.2230367466   -0.0120484375
 H   -1.8556401871   -0.9702163419    0.0147106702