17

 C    0.0154648359    1.4404481571   -0.0569205076
 O    0.1664379521    0.0394845784    0.1016183730
 C    0.6557016934   -0.6472492533   -0.9470779263
 C    0.8687895968   -2.0046292262   -1.0502823259
 C    1.3854197413   -2.1733234859   -2.3555483313
 C    1.8301034816   -3.4488026392   -2.9977649314
 O    0.8845246540   -4.4660943568   -2.6878648352
 N    1.4849389561   -1.0244463352   -3.0156797535
 N    1.0391817610   -0.0928241802   -2.1282373946
 H    0.9803271265    1.9292749092   -0.2477877318
 H   -0.6832076350    1.6794111076   -0.8697895035
 H   -0.3915686365    1.8138716079    0.8830890443
 H    0.6649336487   -2.7540599800   -0.3059197885
 H    1.9213391205   -3.2802845333   -4.0802313493
 H    2.8290985612   -3.7240891837   -2.6211613406
 H    1.2439456601   -5.3029493328   -2.9966417905
 H    1.0046073922    0.8698401764   -2.4107366873