23

 C    0.0774971450    1.5773774282   -0.1701028010
 C   -0.0645818799    0.0585317991    0.0364840418
 C    0.6425625766   -0.4564506089    1.2688303219
 C   -0.0303211409   -0.8242854242    2.3639514466
 C    0.5923063586   -1.3724711026    3.6237294867
 O   -0.2010942907   -2.4253503618    4.1737303437
 C    2.0427218934   -1.8084012762    3.3875988710
 C    2.7998164988   -0.7475631578    2.5832052549
 C    2.1536132099   -0.5415308171    1.2061575457
 H    1.1247382691    1.8786468804   -0.2719382428
 H   -0.4465220578    1.8950902076   -1.0769535189
 H   -0.3467709646    2.1248565160    0.6772445934
 H   -1.1284874866   -0.1953088119    0.0973518582
 H    0.3308663002   -0.4574273897   -0.8499037724
 H   -1.1166236692   -0.7502906862    2.3862992572
 H    0.5728489887   -0.6004042031    4.4060887148
 H   -0.2970336699   -3.0947939981    3.4868557796
 H    2.5289516046   -2.0112816514    4.3468209716
 H    2.0331478769   -2.7546688366    2.8278943089
 H    2.7861986502    0.2016376335    3.1348189430
 H    3.8526056114   -1.0268001318    2.4685789601
 H    2.4289428899   -1.3690950124    0.5338065312
 H    2.5594216564    0.3601008050    0.7311466849