19

 C    0.3374258572    0.8406993403   -0.5462873767
 N    0.1177155697   -0.2488996137    0.3965282888
 C    0.5965064481    0.0719552577    1.7322515775
 C   -1.2284313069   -0.7910112015    0.3677821789
 C   -1.2876216566   -2.1698414459   -0.3722655126
 C   -2.6120355977   -2.7792992712   -0.2571288786
 C   -3.7096669726   -3.2459102432   -0.1215537207
 C   -0.8913754347   -2.0374187091   -1.7828113762
 N   -0.5809180709   -1.9198036728   -2.8893379479
 H    1.4040229473    1.0827137489   -0.5818574707
 H    0.0313917563    0.5382677906   -1.5497027693
 H   -0.2121894764    1.7612813692   -0.2742850972
 H    0.0613140872    0.9190460087    2.2008391569
 H    0.4972130949   -0.7981113916    2.3882799833
 H    1.6581334998    0.3339166077    1.6853127302
 H   -1.5903128322   -0.9783048983    1.3827837920
 H   -1.9474420917   -0.1097169177   -0.1062969799
 H   -0.5422174496   -2.8150556333    0.1096551657
 H   -4.6768341612   -3.6719452947   -0.0138924434