17

 O    0.1838784937    1.4048443863   -0.1915622661
 C    0.0325833412    0.0262825187   -0.0174543969
 C    0.2030454464   -0.6228043300    1.3882865846
 C   -0.8869656131    0.0364656605    2.2427252773
 C   -2.0069279509   -0.9740234775    2.3644299059
 O   -1.5853367795   -2.2149962213    1.8691733290
 C   -0.7166589111   -1.7827471616    0.8546794790
 C   -1.3838789197   -0.6201104344    0.0305823184
 C   -2.0580819943    0.0384197300    1.2407993460
 H   -0.3751275037    1.8395115161    0.4628535572
 H    0.6722169090   -0.4499050051   -0.7660105558
 H    1.1764111827   -0.7971795009    1.8435914251
 H   -0.7002851143    0.8083181038    2.9764109963
 H   -2.7092404249   -1.0237853284    3.1852501204
 H   -0.2675006904   -2.6197107171    0.3280268403
 H   -1.9846618366   -0.7918090030   -0.8608933788
 H   -2.8103342847    0.8118352239    1.1711945783