17

 C   -0.0584149969    1.5667676936   -0.0727644277
 C    0.0625685019    0.0820796429   -0.0680088147
 C   -0.1804326864   -0.8735257926   -1.0469317734
 N    0.0555607981   -2.1691844359   -0.6182771805
 C    0.4636254097   -1.9828173617    0.6142721042
 C    0.8142423275   -2.4992893120    2.0061952297
 O    1.9738994581   -3.2549007341    2.1998029669
 C    0.8474286637   -0.9501719728    2.3977222826
 N    0.5037958967   -0.6822035357    0.9866287669
 H    0.9025769680    2.0598489486    0.1162567302
 H   -0.4196749886    1.9045758347   -1.0470925074
 H   -0.7643728249    1.9258046738    0.6856632506
 H   -0.5116770239   -0.6785061546   -2.0572559294
 H    0.0086734214   -3.0358055842    2.5146875405
 H    2.6285494565   -2.9742769897    1.5505882813
 H    0.0866243570   -0.6236990832    3.1118867375
 H    1.8327577923   -0.5826517870    2.6960266826