21

 C    0.0570351920    1.5457465952    0.1687576773
 C   -0.0000945414    0.0318000653   -0.1081732273
 C   -1.3557853809   -0.5067234954   -0.0843713721
 C   -2.4841568352   -0.9346265128   -0.0532264702
 C   -3.8196670826   -1.4274687908   -0.0524553162
 C   -4.5226154939   -1.9080658924    1.1999479719
 C   -4.3502972103   -2.8795325649    0.0743463365
 C   -5.3885742882   -2.6151988546   -1.0189969943
 C   -4.8740581285   -1.1447678993   -1.1427783510
 H    1.0915828034    1.9014280286    0.1402631454
 H   -0.5182228539    2.0985378016   -0.5789712245
 H   -0.3612292853    1.7763167361    1.1522892155
 H    0.4633334105   -0.1783663148   -1.0812408158
 H    0.6121325683   -0.4974029522    0.6339283449
 H   -3.8716967549   -2.0571632986    2.0543682197
 H   -5.5089763509   -1.5180181933    1.4452541342
 H   -3.7695650276   -3.7864943079    0.1903831938
 H   -5.2092572084   -3.1901807870   -1.9296797957
 H   -6.4338982030   -2.7501922486   -0.7218522254
 H   -5.5850227780   -0.3451781175   -0.9114515988
 H   -4.4219140213   -0.9434156967   -2.1152037079