18

 O   -0.0978885577    1.3483961940   -0.7864238492
 C   -0.0825059511    0.0805046900   -0.2087949630
 C   -0.1404133326   -1.1427116286   -1.0906835737
 C   -1.3335423042   -0.7549164824   -0.2322202841
 C   -1.4971457389   -1.4289173565    1.1182666037
 C   -0.0774933898   -1.3444769964    1.7604417835
 C    0.5579185069   -0.0566906141    1.1661046255
 C   -0.0991086924   -1.3638007698    3.2186697902
 N   -0.1212323396   -1.3732057713    4.3744664888
 H    0.7682907686    1.5144551611   -1.1743601440
 H   -0.2467274132   -0.9464665999   -2.1517808556
 H    0.4428205714   -2.0281153332   -0.8552238281
 H   -2.2158753541   -0.3857280672   -0.7412551666
 H   -2.2151578825   -0.8695121110    1.7265089014
 H   -1.8459983080   -2.4642811210    1.0638350498
 H    0.5088253054   -2.2112914542    1.4381151177
 H    1.6509118713   -0.1167300913    1.1488484739
 H    0.2784125505    0.8191015417    1.7601787698