16

 C    0.0209919890    1.5682330927    0.0426663790
 C   -0.0406148427    0.0605953060    0.0476931579
 C   -1.3849240929   -0.6252603867   -0.0498546395
 C   -1.2935339486   -1.8298471893    0.5093741889
 C    0.0818590868   -1.9725621436    1.0833626691
 C    1.2817740229   -1.6568708225    0.2217627763
 N    0.6854395824   -0.6460606536    1.2209317458
 C    0.9461832992   -0.7077367740   -0.8777434170
 O    1.4484748867   -0.4477174991   -1.9339533338
 H    1.0491812877    1.9141375205    0.1745062322
 H   -0.3464815069    1.9530333796   -0.9134144478
 H   -0.5929442058    1.9850469993    0.8464297799
 H   -2.2189454038   -0.2150015011   -0.6041096678
 H   -2.0468601405   -2.6044587336    0.5508700202
 H    0.2724883343   -2.6613172347    1.9024794386
 H    2.2416069623   -2.1392110099    0.3680433782