18

 C    0.1356576318    1.4577733325   -0.3954869553
 C   -0.0181443827    0.1112665563    0.3350186470
 C   -1.3805184876   -0.4106168093    0.2933840076
 C   -2.5138924643   -0.8146665581    0.2532788086
 C   -3.8838614728   -1.3378807319    0.1919101578
 C   -3.9002820000   -2.8323037533   -0.2181073134
 C   -4.5971795246   -1.1334472664    1.4585613519
 C   -5.1984613417   -0.9904928425    2.4885534484
 H    1.1703308660    1.8083672861   -0.3355665845
 H   -0.1349054920    1.3608149082   -1.4504560809
 H   -0.5125540676    2.2170952629    0.0501014761
 H    0.6673874526   -0.6247328013   -0.1045075026
 H    0.2934102944    0.2242072982    1.3813549340
 H   -4.4253113620   -0.7781997951   -0.5850749229
 H   -4.9305052432   -3.1890598477   -0.2947817462
 H   -3.4037747406   -2.9575515978   -1.1835001174
 H   -3.3750715446   -3.4342210797    0.5266941906
 H   -5.7225000811   -0.8524740412    3.4016124112