14

 O    0.1040410667    1.2535464520   -0.3459411561
 C    0.1188157464   -0.0825883335    0.1240804497
 C   -1.3002239063   -0.5859499374    0.2628757549
 O   -1.9434700925   -1.0539919309   -0.9143707810
 C   -1.7087822126   -2.0212407343    0.1035957905
 C   -0.6914879783   -3.1083209074   -0.1956130688
 O    0.1507824659   -3.0081704641   -1.0438536293
 C   -2.8792159695   -2.4860281450    0.8255180299
 N   -3.7839457508   -2.8982995412    1.4144635948
 H   -0.1647069716    1.2353472692   -1.2709755373
 H    0.6942660722   -0.7479979853   -0.5261893527
 H    0.5901102426   -0.0585358974    1.1123234800
 H   -1.9415920149    0.0160312752    0.9080449294
 H   -0.7947952072   -4.0075952997    0.4446697258