13

 N    0.0124107396    1.2071969355   -0.2399111773
 C    0.0203683229   -0.0160880215    0.0031046113
 O    1.0072407369   -0.8701196122    0.4742965451
 C    0.1079678360   -2.0223816051    0.5017611835
 C   -0.9870662366   -1.1321307233   -0.0836935844
 O   -2.3332004417   -1.0844084991    0.3014161998
 C   -2.0497028843   -1.4112678827   -1.0661933825
 C   -2.4330264972   -0.4473947851   -2.0733304738
 N   -2.7532470777    0.2745587660   -2.9161234544
 H    0.9104158831    1.6525113777   -0.0484278250
 H    0.4805010779   -2.8346096669   -0.1257870773
 H   -0.0764430445   -2.3632770199    1.5232006840
 H   -2.2425453744   -2.4475115032   -1.3387921791