17

 C   -0.0271972503    1.4588612522   -0.0286760616
 N   -0.0447892114    0.0081604889   -0.0474873526
 C    0.5374899166   -0.6028169188    0.9053410047
 N    1.2314196444   -0.0597655536    1.9666215792
 C    0.5722503330   -2.1150406629    0.8787395840
 C    1.8808133393   -2.7981904998    1.0360462698
 O    0.9700738404   -2.7294302734    2.1285419069
 C   -0.4835609005   -2.7826934882    0.1623315077
 C   -1.3512348192   -3.3798368890   -0.4136648561
 H    0.9944462528    1.8655341777   -0.0874673468
 H   -0.5870338725    1.8405903266   -0.8858258062
 H   -0.4945016862    1.8761859605    0.8795316719
 H    1.0665650569    0.9122547463    2.1721165341
 H    1.3259738523   -0.6647151606    2.7697841082
 H    2.0076026790   -3.7845545103    0.5957495945
 H    2.7780367388   -2.1903054270    1.1327118805
 H   -2.1269055035   -3.8905826387   -0.9287074983