24

 C   -0.1338845945    1.5944409286    0.0721303316
 C    0.0942293400    0.0883329579   -0.0866758270
 C    0.7240187809   -0.5504947762    1.1572957334
 C    0.8875881939   -2.0792805174    1.0907636563
 C    1.8483737579   -2.5259488233   -0.0207541583
 C    1.3434887761   -2.6261120255    2.4527350841
 C    1.2136079380   -4.1454265415    2.5621382558
 N    2.0862258335   -4.7361586121    3.4315907767
 O    0.3869963273   -4.7873847229    1.9419749427
 H    0.8095796426    2.1205244480    0.2569534208
 H   -0.5851217927    2.0276945174   -0.8260355793
 H   -0.7999436338    1.8084482735    0.9156827237
 H   -0.8620158378   -0.4075154032   -0.3000635006
 H    0.7306519352   -0.0885120119   -0.9613925880
 H    1.7037930717   -0.0861752953    1.3456423447
 H    0.1015741336   -0.3009481972    2.0282144796
 H   -0.0926663249   -2.5280650247    0.8895442023
 H    2.8483232384   -2.0990648881    0.1296095744
 H    1.9395651465   -3.6153291245   -0.0388624340
 H    1.4985692861   -2.2120578801   -1.0079373974
 H    2.3740748853   -2.3151990193    2.6691735925
 H    0.7195046672   -2.2002734487    3.2505361387
 H    2.7367908138   -4.2064925329    3.9839103608
 H    1.9876726257   -5.7222811304    3.6095849864