23

 C    0.0180791714    1.4329771861   -0.0419792518
 O   -0.0092207372    0.0284536867    0.0149357835
 C    0.6369544127   -0.5760867765   -1.0799808386
 C    0.5967403211   -2.0638832685   -0.9614508203
 C    0.0515172959   -2.7838697654    0.0193651358
 C    0.1662779912   -4.2667440757   -0.2359315191
 C    1.2065368277   -4.3545996738   -1.3858825630
 C    0.9953275724   -5.5180228049   -2.3528977261
 C    1.1696104310   -2.9506442916   -2.0469180143
 H    1.0485340422    1.8236868934   -0.0393438515
 H   -0.4894706202    1.8171683302   -0.9415790899
 H   -0.5027076563    1.8068322680    0.8428944275
 H    0.1635397397   -0.2623292126   -2.0308193622
 H    1.6879188165   -0.2333786584   -1.1452939930
 H   -0.4523478194   -2.3608521455    0.8793335088
 H    0.4760539286   -4.8365660339    0.6481443512
 H   -0.8046673182   -4.6856874437   -0.5431088048
 H    2.1935746206   -4.4648099665   -0.9196215896
 H    0.0185096844   -5.4464347651   -2.8455893134
 H    1.7618243867   -5.5331742511   -3.1355098550
 H    1.0346563550   -6.4809246924   -1.8320863903
 H    0.5172072132   -2.9430783031   -2.9342881012
 H    2.1588379111   -2.6268170557   -2.3945237030