19

 C   -0.0061222047    1.5267292445   -0.0128173376
 C   -0.0129223735   -0.0138235733   -0.0000404527
 N    0.6664516978   -0.4990921995   -1.2021076958
 C    0.9674559008   -1.9327988095   -1.1732305753
 C    2.0046753160   -2.1970975123   -0.0802825847
 C    1.6209284861   -1.4913797891    1.1909226051
 C    0.6980354725   -0.5350496874    1.2372176954
 C   -1.4306540003   -0.4804660461    0.0453856582
 N   -2.5251608660   -0.8554852940    0.0287915319
 H    1.0297641807    1.8717341678   -0.0292978979
 H   -0.5208630570    1.9054587472   -0.9008811002
 H   -0.5112520334    1.9263074042    0.8705137353
 H    0.1138255132   -0.2657518266   -2.0199658275
 H    0.0711352050   -2.5478255250   -0.9851475098
 H    1.3587466341   -2.2156507531   -2.1544123601
 H    2.0927276046   -3.2748350156    0.1014693733
 H    2.9960950118   -1.8552566798   -0.4068000923
 H    2.1270390925   -1.7887389539    2.1058961549
 H    0.4146180098   -0.0636997585    2.1729907699