18

 C   -0.0196261761    1.5515470389    0.0296311031
 C    0.1181393041    0.0459648030    0.1289363268
 C    1.3917826942   -0.7428139507   -0.2152365424
 C    2.5767412475   -0.0601661136    0.3564908116
 C    2.0222545589   -0.0371876260    1.7772101095
 C    0.7661228951   -0.7225557496    1.2257852037
 O    0.1626039092   -1.7110107705    1.9722679722
 N    3.6876623541    0.2352950376   -0.1789060089
 O    4.5642417561    0.7988880044    0.7744610708
 H    0.8846798872    2.0640800737    0.3667754134
 H   -0.1999678563    1.8522160177   -1.0076971837
 H   -0.8585657826    1.9124089457    0.6348541258
 H   -0.7489237837   -0.4920090118   -0.2610456173
 H    1.3981042008   -1.4899270282   -0.9987781397
 H    2.5932355591   -0.7122703794    2.4212635444
 H    1.9075301650    0.9262066945    2.2820153368
 H   -0.7571424300   -1.7916705733    1.7019589185
 H    5.3588012074    0.9472757577    0.2512627654