19

 C   -0.2206069377    1.5287290415    0.0616613428
 C   -0.1036795952    0.0419679922   -0.0231787907
 C   -0.1187014057   -0.7277349199   -1.1150235962
 C    0.0821233363   -2.1879847443   -0.8156004636
 C    1.5497422680   -2.6781983235   -0.8788635135
 O    1.7046556866   -2.5039553710    0.5519459303
 C    0.2903668519   -2.2159598381    0.7164032985
 C    0.0808286323   -0.7791585392    1.2491195646
 O    1.1699682640   -0.3497800167    2.0452843652
 H    0.6286371071    1.9385014764    0.6192187149
 H   -0.2566788197    1.9963103948   -0.9256871715
 H   -1.1237073035    1.8204388818    0.6137241982
 H   -0.2291574467   -0.3565601845   -2.1295426098
 H   -0.6619675939   -2.8537790831   -1.2575109323
 H    1.6737576009   -3.7310743107   -1.1600101374
 H    2.2516871338   -2.0593293759   -1.4479757112
 H   -0.2042049577   -2.9927157270    1.3063137887
 H   -0.8091574427   -0.7123105190    1.8895054447
 H    1.9467665621   -0.7803012835    1.6577063584