21

 C   -0.0186451275    1.5468212150    0.1236003996
 C   -0.0143310606    0.0149934349    0.0020782381
 C    0.6314763252   -0.6093175442    1.2549973830
 C   -1.4686977800   -0.4939282124   -0.1446494622
 C    0.7416298707   -0.3814605988   -1.2839694395
 O    0.9576891548    0.4101902701   -2.1662629889
 C    1.2058483874   -1.8502269343   -1.4028977036
 C    1.5969762584   -2.2416782815   -2.7459073306
 C    1.9149305672   -2.5805333493   -3.8529170559
 H    0.9974510993    1.9361535197    0.2368019331
 H   -0.4490812153    2.0093363187   -0.7663257844
 H   -0.6022361452    1.8519295495    0.9980516321
 H    0.0950032414   -0.2759826724    2.1492271324
 H    0.5969988664   -1.7026214046    1.2446146574
 H    1.6766794423   -0.3006372308    1.3638223791
 H   -1.9471072607   -0.0656327808   -1.0305042356
 H   -1.5216117570   -1.5844828408   -0.2217582951
 H   -2.0527771582   -0.1968488437    0.7326584073
 H    2.0516959540   -1.9725094970   -0.7118835010
 H    0.4243649845   -2.5164785471   -1.0192828786
 H    2.1974157531   -2.8696830100   -4.8346177468