19

 C    0.3709213013    1.6578766614   -0.0180403971
 C   -0.1519150485    0.2573647619    0.2307665430
 O    0.2317862854   -0.6592454537   -0.8376612460
 C    1.0749938024   -1.4323619286    0.0538361474
 C    0.6013216127   -0.6134049036    1.2751225010
 C   -0.2622622324   -1.5798875538    2.0410728870
 C   -0.3145960147   -2.7811377172    1.4666463864
 C    0.5375934587   -2.8803753151    0.2136206237
 O   -0.1702076919   -3.3072566892   -0.9332838520
 H    1.4616199458    1.6606575459   -0.1087910694
 H   -0.0508955489    2.0630187367   -0.9429143249
 H    0.0885449781    2.3211482342    0.8071160652
 H   -1.2417728796    0.2640892175    0.3533946583
 H    2.1239788037   -1.3810771394   -0.2498735627
 H    1.3449440402   -0.0844593676    1.8754213619
 H   -0.7992800554   -1.2887021776    2.9380118188
 H   -0.9000247261   -3.6244555023    1.8158815982
 H    1.3588642013   -3.5955896389    0.3498828516
 H   -0.5876684821   -2.5059746006   -1.2827409604