19

 O   -0.1268829933    1.3807522606   -0.0245296624
 C   -0.0563872316   -0.0048781808    0.0162147370
 C    0.3580944599   -0.8125671801    1.2889518795
 C   -0.4276719371   -1.9381429224    0.5619820730
 C   -1.3714895017   -0.8178618326    0.0365890774
 C    0.4623241582   -2.2149567012   -0.6663935101
 C    0.7757840680   -0.7309534363   -1.0896013494
 C    0.3967715218   -0.3833064607   -2.4484636008
 C    0.0817627183   -0.0941546841   -3.5726532685
 H    0.7316176268    1.7323563683   -0.2828188823
 H    1.4229964943   -0.9678844676    1.4914215597
 H   -0.1523069566   -0.4396950812    2.1789406860
 H   -0.8143478534   -2.8023380962    1.0991413779
 H   -2.0579797160   -0.4504641525    0.8018563591
 H   -1.8937950081   -0.9703868517   -0.9110517806
 H    1.3718813926   -2.7678411556   -0.4164342987
 H   -0.0636416968   -2.7539920655   -1.4572835926
 H    1.8413305522   -0.5068380079   -0.9499682304
 H   -0.1973899076    0.1635740675   -4.5640989936