19

 C    0.1485698393    1.5410058027    0.2468433273
 O    1.4348929363    1.4867544048   -0.4074078472
 C    1.3517509860    0.0511975638   -0.5715242108
 C    2.4540684856   -0.7122730098    0.1508246916
 C    2.1351018054   -2.2070144523    0.2875774199
 O    1.2501557095   -2.4973679562    1.3614553561
 C   -0.0633893252   -2.0493787209    1.2095540351
 O   -0.2034714831   -0.6496562630    1.2994970512
 C   -0.0591757773    0.0301358178    0.0754488170
 H    0.2230094926    1.8516070671    1.2951170115
 H   -0.5561843905    2.1910973302   -0.2832904942
 H    1.3451455931   -0.2147517401   -1.6381392680
 H    3.3928743185   -0.5858534419   -0.4011062889
 H    2.5997289320   -0.2934107624    1.1506888629
 H    1.7267356356   -2.6045590733   -0.6578966145
 H    3.0470210188   -2.7665929110    0.5117835363
 H   -0.4893226679   -2.4056659496    0.2533149216
 H   -0.6190794706   -2.4727047775    2.0491954846
 H   -0.8624501083   -0.2560652582   -0.6159278916