16

 N    0.0131340093    1.5261861310    0.2679540829
 C   -0.0106924744    0.0752672169    0.0216863755
 C   -1.4013327904   -0.4450437156   -0.0963751116
 C   -2.1287084669   -0.8665766570   -1.1708629041
 N   -1.7539357550   -0.9595218195   -2.5261799514
 C   -3.3649637566   -1.2591281511   -0.5787467370
 O   -4.4007345042   -1.7662545719   -1.2723542258
 N   -3.3879423898   -1.0927140825    0.7180933209
 O   -2.1395084122   -0.5547353424    1.0311680851
 H    0.9759710742    1.8303058043    0.3803135344
 H   -0.3486874426    2.0177626434   -0.5442074999
 H    0.5276626963   -0.2467936853   -0.8844194563
 H    0.4712616643   -0.4116034113    0.8773115113
 H   -1.6348436913   -0.0525785570   -2.9625675918
 H   -2.4534609334   -1.4682106373   -3.0539192283
 H   -5.1023233972   -1.9786776249   -0.6428597339