22

 C   -0.3297893603    1.5670147875    0.1678227926
 C   -0.0807162499    0.0637050223    0.1404545002
 C    0.4137297906   -0.5468189029   -1.1765775779
 N    1.7629045150    0.0261966307   -1.4293815358
 C    1.6098679423   -1.1462959193   -0.5252605519
 C    2.3335006723   -2.4339384507   -0.7723160875
 C    1.2017647488   -0.5609973280    0.8411705995
 C    2.2139995492    0.3301143591    1.5498795917
 O    1.7237606521    0.8459645353    2.7832386840
 H    0.5417695249    2.1180010401   -0.1938054708
 H   -1.1775782701    1.8265660963   -0.4762760250
 H   -0.5803469017    1.9177674556    1.1761888542
 H   -0.9704788938   -0.4679944234    0.4909070701
 H   -0.1848682315   -0.9178547978   -2.0013598663
 H    2.0726124681   -0.3354536325   -2.3315281123
 H    2.2764813365   -2.7210240482   -1.8284619894
 H    3.3941606025   -2.3563185994   -0.5051383700
 H    1.9010268448   -3.2475016040   -0.1797985916
 H    0.8937203209   -1.3547054981    1.5290147206
 H    3.0965799881   -0.2664578587    1.8105142983
 H    2.5511104114    1.1303467133    0.8798703756
 H    1.0777877297    1.5270154926    2.5753282418