21

 C    0.0686662036    1.3697868104   -0.1599162252
 C    0.0697217178   -0.1377163052    0.1217716463
 C    0.7314331182   -0.4441935108    1.4568167951
 O    1.1643421058   -1.5245341505    1.7806040747
 C   -1.3430332806   -0.7189064862    0.1348012141
 C   -2.0696699390   -1.0102682219   -1.1571948426
 C   -1.6605460030   -2.1475636929   -0.2518876356
 C   -0.6056144316   -3.1404573744   -0.7019073684
 O    0.0264977671   -3.8069090707    0.3655013441
 H    1.0844650912    1.7786434072   -0.1663641325
 H   -0.3874268759    1.5761949527   -1.1312791004
 H   -0.5067620390    1.9112151541    0.5994906168
 H    0.6578880155   -0.6567878797   -0.6431592783
 H    0.7861346583    0.4084101641    2.1707105436
 H   -1.9612713059   -0.3105249680    0.9321511892
 H   -3.1177171898   -0.7447093321   -1.2390967036
 H   -1.5101676003   -0.8892117260   -2.0807892758
 H   -2.4521680882   -2.6104051204    0.3312283621
 H   -1.0895109281   -3.9167481253   -1.3066627233
 H    0.1204663962   -2.6423665390   -1.3670555524
 H    0.5117255079   -3.1424146357    0.8781467922