21

 O    0.3457666524    0.4575081895   -1.0397312628
 C   -0.1004326514    0.4453340675    0.3124650518
 C   -1.4650126088   -0.2274837212    0.3293871718
 C   -1.4545922185   -1.7224392577    0.0160035410
 C   -1.3713420309   -2.4621341344    1.3409390428
 C   -1.3355134724   -1.4123528328    2.4469271742
 C   -2.1720161994   -0.3382418479    1.7076352940
 C   -3.4340943386   -1.1514774355    1.3261266404
 C   -2.7082352305   -2.3056499409    0.6378338612
 H    1.2327756463    0.8279038336   -1.0591783010
 H    0.6108210799   -0.0982551904    0.9511084349
 H   -0.1866131722    1.4710871115    0.7080964229
 H   -2.1010109366    0.3168560768   -0.3802035021
 H   -1.0197770448   -2.1147127252   -0.8926069432
 H   -0.8821818270   -3.4233853667    1.4270146669
 H   -1.8257558602   -1.7492773740    3.3669806270
 H   -0.3251859020   -1.0811506678    2.7041414239
 H   -2.3435142719    0.5973057160    2.2404964937
 H   -4.0099202177   -1.4680830760    2.2026007945
 H   -4.1003223968   -0.6014769732    0.6531682203
 H   -3.2276019288   -3.1483469314    0.2007204878