16

 O   -0.0291591584    1.3973160428    0.1312222579
 C    0.0332702852    0.0380237106    0.0070443065
 C    0.0556095934   -0.7545619286   -1.1242562027
 N    0.0898171844   -0.6709815549   -2.5320909732
 C    0.4213258109   -2.0616620298   -2.9632261165
 C    0.0935074191   -3.0038495499   -1.7650101183
 N    0.1164049946   -2.0362096412   -0.6876542270
 N    0.1106292191   -2.1612530043    0.6471349909
 C    0.0581014530   -0.8929025637    1.0744251392
 H    0.3536494697    1.7931133266   -0.6586483160
 H   -0.8071145149   -0.3786958932   -2.9093399163
 H   -0.1238537043   -2.3243011454   -3.8709987574
 H    1.4924513867   -2.1084061314   -3.1820922198
 H   -0.8916581956   -3.4807254474   -1.8457170696
 H    0.8482049892   -3.7814246867   -1.6290508214
 H    0.0548667277   -0.6729090634    2.1315592038