19

 O    0.4260203623    1.4574383849    1.7149485892
 C    0.2274756747    1.6598335400    0.5307825108
 C   -1.2044402402    1.8324845245    0.0284120939
 C   -1.6617452126    3.3046543116   -0.0102707503
 C   -1.0275038880    4.2505420375   -0.9957906737
 C   -0.2235021058    4.0194348585   -2.0328470018
 C    0.3239330352    2.6898995665   -2.5229128133
 C    1.4433284266    2.1370535837   -1.6627607040
 C    1.3866947408    1.7168339578   -0.3927661881
 H   -1.3463902017    1.3515620862   -0.9417553297
 H   -1.8320589180    1.3070199933    0.7530188743
 H   -2.7480018265    3.3157819139   -0.1811181368
 H   -1.5317487549    3.7243318884    0.9963095024
 H   -1.2950011574    5.2906611621   -0.8129076992
 H    0.1152115170    4.8836845205   -2.5989618538
 H   -0.4796962901    1.9523363681   -2.6121648740
 H    0.7085639513    2.8279705128   -3.5365554189
 H    2.4217012306    2.1140165588   -2.1386326578
 H    2.3045435367    1.3969275411    0.0936103406