19

 O    0.1658264776    1.1207296173   -0.5331864998
 C    0.1086493722   -0.1580770023    0.0501475155
 C   -0.0442273640   -0.2746374400    1.5822347233
 O   -1.2323193791   -1.0783377598    1.4223424190
 C   -1.2886880238   -0.8041314219    0.0050469149
 C   -2.5624980999   -0.0345466792   -0.4641138886
 C   -2.9179815641   -1.2268012733   -1.3645820724
 C   -1.7868948347   -1.4908218689   -2.3136831523
 C   -1.6725389445   -1.9759601915   -0.8882748721
 H    1.0793702789    1.4223839462   -0.5273164283
 H    0.8830421829   -0.8231282705   -0.3540395598
 H    0.7377551410   -0.8038862551    2.1383853022
 H   -0.2547981681    0.6902676009    2.0618954308
 H   -3.2344196270    0.0768371725    0.3897155614
 H   -2.4169861873    0.9324286498   -0.9529355310
 H   -3.9151227501   -1.6124181143   -1.5358053613
 H   -1.9544173722   -2.2713334331   -3.0490509661
 H   -1.1647275151   -0.6709252776   -2.6655908649
 H   -1.5356974427   -3.0190671292   -0.6308746607