19

 C   -0.0426088321    1.4513922207   -0.0757709913
 N    0.0255654413    0.0151518070    0.1294875802
 C   -1.2437021801   -0.7120709259    0.1846299978
 C   -1.1517150013   -1.9546194384    1.0542210896
 N   -1.0779172034   -3.2417856605    0.3407207337
 C    0.1260322699   -2.7028525825    0.9989383067
 C    1.2043229456   -2.1445963176    0.0883797717
 C    1.2374750808   -0.6176420710    0.0144020550
 O    2.2868534644   -0.0177611145   -0.1516800700
 H    0.9748594229    1.8395362129   -0.0841755900
 H   -0.5264365890    1.6977815971   -1.0305927973
 H   -0.6142891994    1.9251076203    0.7308264804
 H   -1.9917918391   -0.0235148058    0.5896623160
 H   -1.5797914342   -1.0001343027   -0.8212466072
 H   -1.6918361921   -1.9219541849    1.9958313778
 H   -1.4877007542   -3.9768986990    0.9113350705
 H    0.4670719399   -3.1910948542    1.9075335018
 H    2.2039068106   -2.4593586228    0.3921177829
 H    1.0390692696   -2.5213758682   -0.9281601383