13

 O    0.1610546885    1.3905373703   -0.0427842144
 C    0.0571015131    0.0024785279   -0.1242811510
 C   -1.3783938985   -0.4596544540   -0.0550996738
 N   -2.3268519644    0.3951157944    0.0647855675
 C   -3.6363369168   -0.0915885124    0.1238752447
 O   -4.6107632979    0.6116584575    0.2362898286
 C   -3.7410193040   -1.5706397759    0.0360269374
 N   -2.7634708618   -2.3879467652   -0.0834541065
 O   -1.4885600471   -1.7943190633   -0.1328075785
 H   -0.7418890608    1.7340896717    0.0415582148
 H    0.4865981976   -0.3789667150   -1.0639688250
 H    0.6072847174   -0.4911647909    0.6921957724
 H   -4.7254735654   -2.0284930450    0.0741502038