21

 C    0.4264679874    1.4782616672    0.1584737990
 C   -0.0732532439    0.0589854990   -0.0776474520
 C    0.5490236756   -0.6670081714   -1.2947427882
 C    1.5581207843   -1.6672592098   -0.6939306281
 C    1.4683209069   -3.0715283061   -1.3072641684
 C    3.0144188868   -1.1627821876   -0.7576326230
 C    1.1438391707   -1.7283603001    0.7831477654
 O    1.5412142218   -2.4986952796    1.6110952166
 O    0.2439585998   -0.7569282938    1.0718101381
 H    1.5184258577    1.5104628348    0.2211894341
 H    0.1103899140    2.1280815190   -0.6639359856
 H    0.0177376223    1.8767833115    1.0908194369
 H   -1.1655149873    0.0691877394   -0.1442517469
 H   -0.2276314540   -1.1979830497   -1.8517093903
 H    1.0191460488    0.0398403111   -1.9830238575
 H    1.8035125203   -3.0567710102   -2.3495247436
 H    2.0978910001   -3.7672649689   -0.7465263260
 H    0.4423266224   -3.4521704167   -1.2847081516
 H    3.1207926238   -0.1611083831   -0.3303647865
 H    3.6726714180   -1.8366349979   -0.2026111683
 H    3.3523004645   -1.1239293370   -1.7983382743