18

 O   -0.1932140189    1.4575126913    0.0509766604
 C    0.0248317679    0.0565177288   -0.0274437038
 C   -1.3438073760   -0.6057184583    0.0698066724
 C   -1.2748694644   -2.0938003480    0.0126894161
 N   -0.2236332391   -2.8182195008    0.0197446866
 C   -0.6699950757   -4.1904531402   -0.0014211593
 C   -1.4998858407   -4.6372666518    1.1875667617
 C   -2.1857884526   -4.1180271380   -0.0419785721
 O   -2.4841167963   -2.7316745996   -0.0600750783
 H    0.6613287914    1.8946862294   -0.0012580202
 H    0.5074875779   -0.2294268777   -0.9727234902
 H    0.6681986168   -0.3048251830    0.7863840020
 H   -1.8320385648   -0.3008155292    1.0035259552
 H   -1.9926897695   -0.2479420177   -0.7379069105
 H   -0.0574665152   -4.9000411057   -0.5439044387
 H   -1.5753058390   -5.7058757060    1.3568075095
 H   -1.4871860147   -4.0243500099    2.0827938275
 H   -2.8673064272   -4.7077171337   -0.6406917484