17

 N   -0.0286676659    1.3643041152   -0.0590550977
 C    0.0535891484   -0.0164580524   -0.0323596711
 O    1.1298699186   -0.5928839578   -0.0947443820
 C   -1.2350712919   -0.7150274681    0.0241645546
 C   -1.3375486802   -2.0658159972    0.0917454741
 N   -2.6412178039   -2.4976036726    0.1388454246
 C   -3.5242320510   -1.3603368584    0.0403745510
 C   -3.5093713853   -0.3909988262    1.1885109127
 C   -2.6084828829   -0.1284076145   -0.0115791598
 H    0.8511284359    1.8422531581    0.0629151778
 H   -0.8373305137    1.8151467554    0.3374267293
 H   -0.5182950057   -2.7689372456    0.1472851129
 H   -2.9073445176   -3.3865707734   -0.2509831241
 H   -4.4145139428   -1.4842505818   -0.5646915750
 H   -4.3856036719    0.2394417558    1.2935079595
 H   -3.0483028576   -0.7015359376    2.1198747192
 H   -2.8209518626    0.7260999412   -0.6469280560