13

 O   -0.0710948934   -0.0697325847    0.0000590567
 C   -0.0254994315    1.1420053708    0.0076813540
 N    1.1275930136    1.8598784757    0.0028288642
 C    2.4136865723    1.2246628994   -0.0126633977
 C    3.5112954657    2.2640877751   -0.0194049484
 O    3.2988859012    3.4508073288   -0.0118403582
 C    4.9516227879    1.7072938516   -0.0353814790
 O    5.9120526954    2.4236981613   -0.0414423227
 H   -0.9221239195    1.7904759976    0.0182138993
 H    1.1246179478    2.8701541619    0.0073201122
 H    2.5540282341    0.5614839193    0.8559179653
 H    2.5363110855    0.5686461502   -0.8893070406
 H    5.0325566508    0.5978973331   -0.0404860853