17

 C    1.0648963533    0.3965476419   -0.4273303553
 C   -0.4368221731    0.4043413261   -0.1401894268
 N   -0.9830472018   -0.9456029839   -0.2714081626
 C   -1.9563597056   -1.1633275861   -1.0136188441
 C   -2.7630973266   -2.3837876886   -1.4021051100
 C   -3.5781417736   -1.3683240231   -2.2472385185
 O   -2.7142883658   -0.2859662901   -1.8051322409
 C   -3.5526794742   -1.5455079197   -3.6966535909
 N   -3.5448755720   -1.7053745717   -4.8406902752
 H    1.4897337667    1.3916229799   -0.2636212995
 H    1.5771878209   -0.3147572528    0.2263913777
 H    1.2617186700    0.1070736145   -1.4640036940
 H   -0.6061593566    0.7228110418    0.8957503076
 H   -0.9466378068    1.1256384184   -0.7912615431
 H   -2.2175705861   -3.1359538754   -1.9723240608
 H   -3.3150508591   -2.8585053385   -0.5904285707
 H   -4.6060849699   -1.2032343127   -1.9135321028