16

 O   -0.0216477332    1.4126096937   -0.0556805790
 C   -0.0114082220   -0.0002540124   -0.0574967754
 C    0.7969396144   -0.5310139723    1.0347418501
 C    1.5008217516   -0.9111865242    1.9320283337
 C   -1.3759904601   -0.6597439941   -0.1647083818
 C   -1.7630463285   -0.7006422814   -1.6047951029
 C   -0.6592295787   -0.0681608519   -2.4348303959
 C    0.2662316512   -0.7382107899   -1.4076339248
 N   -0.8541870943   -1.7632809683   -1.0508984481
 H    0.8060347353    1.7195651961    0.3291705657
 H    2.1092966404   -1.2637539608    2.7281687544
 H   -2.0697706967   -0.8592051164    0.6427092236
 H   -2.7793858408   -0.9347439783   -1.9008590390
 H   -0.5788763093   -0.5541707600   -3.4101012941
 H   -0.6140590052    1.0183590757   -2.5367704638
 H    1.2657137362   -1.0913450956   -1.6504633125