20

 C    0.1817407661    1.9224765695    0.4481277067
 N   -0.2028605243    0.5319486468    0.6789383812
 C    0.5335750817   -0.5084225569   -0.0281904818
 C    0.6813273599   -0.3458915870    1.4495237016
 C    2.0057540506    0.1499346255    2.0409144558
 O    2.9638043664    0.6088509159    1.0994032383
 C   -0.0788776843   -1.2137540380    2.4193712524
 C   -0.5783467472   -2.5560103601    2.1029494965
 O    0.5926585932   -2.3844127678    2.9034049156
 H    1.2562795340    2.0693618865    0.2836807071
 H   -0.3646605235    2.2886083198   -0.4267408064
 H   -0.1281400235    2.5249949410    1.3084348093
 H   -0.0607109356   -1.3155958609   -0.4480763274
 H    1.3783746256   -0.1950409235   -0.6387016226
 H    1.8137030398    1.0009989302    2.7050432923
 H    2.4143886473   -0.6598953669    2.6583997887
 H    3.3131311722   -0.1613424015    0.6398989188
 H   -0.6021787213   -0.6545906155    3.1976084761
 H   -1.4517088800   -2.9410909418    2.6276900049
 H   -0.4076587970   -2.9790071252    1.1154314030