20

 C   -0.0850318118    1.5777597963    0.0704319097
 C    0.0368045908    0.0636090358   -0.0256991304
 C    1.1328269658   -0.5472204969   -0.9726838236
 C    1.7111436104   -1.2978012301    0.2359354284
 N    2.0825406086   -0.2264493201    1.2172921453
 C    0.6835307807   -0.6898744573    1.1567592417
 C   -0.0148960286   -1.2627576382    2.3499084362
 C    2.3208074837   -2.5791784050    0.2708177479
 C    2.8276900029   -3.6718631669    0.2868035245
 H    0.8766268545    2.0203010926    0.3430872522
 H   -0.4031906334    2.0059616780   -0.8862271706
 H   -0.8240276508    1.8698927533    0.8250654248
 H   -0.9347640139   -0.3868897987   -0.2539806671
 H    0.7200880628   -1.2091605596   -1.7356400541
 H    1.8251479481    0.1632069164   -1.4308048211
 H    2.5233759697   -0.6961522528    2.0089325835
 H   -0.2649160717   -0.4797164677    3.0756042470
 H   -0.9467615106   -1.7578521061    2.0576076125
 H    0.6162820484   -2.0030702379    2.8530285341
 H    3.2783408546   -4.6330878851    0.3006372891