21

 C   -0.2129800807    1.4802694838    0.0428164148
 C    0.0181262386   -0.0253606719    0.0526688360
 C    1.1212031736   -0.6014594439   -0.8991017538
 C    2.1566093689   -0.2392865223    0.2077566394
 C    0.9723256274   -0.6079248844    1.1520103102
 C    0.8393517223   -2.0954891844    0.8627550018
 C    1.1747804390   -3.1832125457    1.7798501356
 O   -0.1928745077   -2.8426994464    1.5003260793
 C    0.9595328009   -2.1205549258   -0.6769568992
 H    0.7113265912    2.0600796390    0.1155014400
 H   -0.7197456402    1.7837133303   -0.8800357476
 H   -0.8538746162    1.7755128413    0.8807346713
 H   -0.9496184524   -0.5355814647   -0.0127777035
 H    1.2289109154   -0.2537894609   -1.9273270236
 H    3.0659288549   -0.8445870658    0.2718858734
 H    2.4187798289    0.8177616284    0.2369143493
 H    0.9242105789   -0.2985659934    2.1963216266
 H    1.5042995575   -4.1447422372    1.3864083169
 H    1.5121696819   -2.9606698202    2.7921424837
 H    0.0530815120   -2.5309121441   -1.1312341524
 H    1.8199752858   -2.6967651018   -1.0305098181