18

 C   -0.0592265614    1.5043994913    0.0479994851
 C   -0.0177904530   -0.0028889056   -0.0115054175
 C    0.3738528917   -0.7842654546   -1.3005411834
 C   -0.4278104394   -1.9362486022   -0.6763272166
 C   -0.0138397443   -2.0905142783    0.8429141939
 C    0.7823476135   -0.7904907176    1.0536911606
 O   -1.3488011389   -1.6734029806    1.2673343777
 C   -1.3408054094   -0.9280646794    0.0458825382
 H    0.9424526725    1.9364083451   -0.0621800717
 H   -0.6861970980    1.9184016740   -0.7494478062
 H   -0.4643766432    1.8481251943    1.0062580613
 H   -0.1322800412   -0.4010317937   -2.1924198284
 H    1.4394246194   -0.9158920635   -1.5124302068
 H   -0.7893430479   -2.8147516910   -1.2073533500
 H    0.3187784291   -3.0254448175    1.2918787839
 H    1.8473873179   -0.8581450925    0.8135795456
 H    0.6551165887   -0.4248871268    2.0752921305
 H   -2.3028635163   -0.5392612012   -0.2870277562