14

 O    0.0016945681   -0.0434807088    0.0027817059
 C    0.0163170917    1.1568263381    0.0086933967
 O   -1.1092757621    1.9696030336    0.0295602305
 C   -0.7159627663    3.3014066771    0.0304484844
 C    0.6194575006    3.3681801445    0.0111300124
 C    1.8261708886    4.2694750829   -0.0023113051
 C    2.9570647165    3.2422049387   -0.0245087606
 C    2.4686116877    1.9965823370   -0.0235179155
 N    1.0693227582    2.0412686877   -0.0022449694
 H   -1.5026338230    4.0344163575    0.0457644801
 H    1.8499871450    4.9297708033   -0.8782665811
 H    1.8763357448    4.9207210899    0.8792933717
 H    4.0038409923    3.5059482518   -0.0388363261
 H    2.9716399578    1.0419764367   -0.0358942540