20

 N   -0.0108808103    1.2367424011    0.1312851452
 C   -0.1674150209    0.0015326641    0.3346208502
 O   -0.8640849241   -0.7422136612   -0.5526886262
 C   -0.9435692007   -2.1199841542   -0.2735544825
 C   -1.9257710294   -2.5975982699    0.7664238491
 C   -2.1988195351   -2.8149359972   -0.7110310150
 C   -3.2902163501   -2.0649768703   -1.4064050648
 C   -3.6113206281   -2.3642716147   -2.8495774411
 C   -4.5784409512   -2.7657330438   -1.7630479167
 H    0.5307874549    1.6455123716    0.8900757297
 H    0.2076858746   -0.5786936195    1.1878190036
 H    0.0068463900   -2.6376975299   -0.3813941844
 H   -1.6560188100   -3.4423682781    1.3906774744
 H   -2.5156387968   -1.8337336450    1.2623129418
 H   -2.0541943124   -3.8295034440   -1.0745928535
 H   -3.3725132406   -1.0251528288   -1.1092542550
 H   -3.8728815691   -1.5360994110   -3.4984040086
 H   -3.0483422447   -3.1508485283   -3.3415440354
 H   -4.6644055645   -3.8213381273   -1.5260941963
 H   -5.5071457517   -2.2143397934   -1.6660866645