18

 N   -0.2481024999   -0.9645682052   -0.3197150334
 C   -0.1368138295    0.1766108671   -0.1552403978
 C    0.0539211697    1.5811968770    0.0345829288
 C    0.6200661476    2.1114042763    1.3569597034
 C    1.4784685335    2.1624500307    0.1514033787
 C    2.7238507654    1.3080482040   -0.0957324459
 C    3.5609486515    2.1896042843   -1.0558837990
 C    2.5397581837    3.2270385415   -1.5418526503
 O    1.6660973398    3.4192339033   -0.4274786621
 H   -0.6626872878    2.2221814921   -0.4665152659
 H    0.1961128455    3.0432650868    1.7128805689
 H    0.8561127732    1.3829022521    2.1242270657
 H    3.2579826137    1.1018182309    0.8348445038
 H    2.4589100945    0.3468795641   -0.5426848003
 H    4.3676487943    2.6882445929   -0.5122088891
 H    4.0058320255    1.6218596646   -1.8757014842
 H    2.9694664025    4.1982689273   -1.7949472674
 H    1.9738553868    2.8535723000   -2.4085997437