19

 C    0.0180109575    1.6096974090   -0.0064174197
 C    0.0180016186    0.0707347733   -0.0152415028
 C    0.7441418693   -0.5524491051   -1.2247749289
 C    2.1894362194   -0.7941940309   -0.7432564716
 C    2.0156339324   -1.2614994173    0.7191136101
 C    3.1855057302   -1.1632560082    1.5688367508
 C    4.1633986453   -1.0636237901    2.2598297952
 C    0.7868179404   -0.4464891800    1.2117577382
 O    0.4940935527   -0.2425687517    2.3574934977
 H    1.0308797505    2.0113298712   -0.1175807007
 H   -0.5897700291    1.9959520988   -0.8299207990
 H   -0.3899827653    1.9815829911    0.9368097161
 H   -1.0186766024   -0.2724405874    0.0666267527
 H    0.2808578720   -1.5090595227   -1.4919044074
 H    0.7035002801    0.0850574120   -2.1119306939
 H    2.7290329711   -1.5222511163   -1.3522208088
 H    2.7654652867    0.1369561266   -0.7564093365
 H    1.6637577107   -2.3061893011    0.7053602283
 H    5.0207261497   -0.9780755613    2.8802832602