18

 C    0.1169561258    1.5510590717   -0.0424259993
 C    0.0904597732    0.0428098993    0.0710131984
 C    1.3200178146   -0.8226592629   -0.1367199483
 O    2.5741583253   -0.2206469911   -0.3795177359
 C    3.1881989767    0.3801471200    0.6705293143
 N    2.8029677629    0.5302600866    1.8631383437
 C    1.5194876115   -0.0127947983    2.2928802711
 C    0.6929341128   -0.7169580804    1.2265724383
 O   -0.0993614239   -1.7819121213    1.6776176364
 H    1.0101745943    1.9895818604    0.4078123700
 H    0.0882074522    1.8594513969   -1.0924382881
 H   -0.7545143595    1.9859260365    0.4573193009
 H   -0.8147235208   -0.4268050086   -0.3048579765
 H    1.2240184192   -1.7418701285   -0.7029027597
 H    4.1477132202    0.7767085436    0.3446487857
 H    1.7201759540   -0.7421834820    3.0887810404
 H    0.9495708730    0.7936777794    2.7726067999
 H    0.4854223385   -2.4675236012    2.0216270386