14

 O   -0.0330051740    0.0608244536    0.0127167117
 C   -0.0403092259    1.2518312246    0.0778078169
 C   -1.0874026568    2.3142662285    0.0517599898
 C   -0.4131205824    3.5600443117    0.6222818089
 N    0.8830641437    3.1214281940    1.1934723268
 C    1.0608877044    2.3519081977   -0.1063014688
 C    2.3688324997    2.0900384290   -0.6044581182
 C    3.4695815994    1.8659846713   -1.0333018837
 C   -0.1098755900    3.1976511869   -0.7850048661
 H   -2.1582008886    2.2207568366   -0.0584363312
 H   -1.0019448539    4.3683091645    1.0358660914
 H    1.5173168616    3.9195817311    1.1434984934
 H    4.4406503059    1.6552691222   -1.4087873788
 H   -0.2617304629    3.6154418882   -1.7699865521