16

 C    0.0912320748    1.4054029363   -0.1226156295
 C   -0.0121573979   -0.0421406525   -0.0060012132
 C   -0.0797434702   -1.2403517750    0.0892389003
 C   -0.2119379891   -2.6866232972    0.2101237209
 C   -1.6743038213   -3.1035058548    0.4201722798
 O   -1.7577480003   -4.5194357981    0.6065316602
 C   -2.2656818177   -5.2627321507   -0.3954967486
 O   -2.3410633564   -6.4524867554   -0.3445377276
 H    0.5236014488    1.6968742221   -1.0860031912
 H   -0.8923416595    1.8812709892   -0.0435781215
 H    0.7256668039    1.8235281766    0.6664584662
 H    0.1741526569   -3.1854879091   -0.6880484232
 H    0.3813545759   -3.0629274960    1.0520779728
 H   -2.0795170535   -2.6389825814    1.3221170162
 H   -2.2889836664   -2.7914851283   -0.4325857019
 H   -2.6063829680   -4.6483828859   -1.2528361998