20

 C   -0.1347317549    1.5825637419    0.0672838217
 C    0.1234714893    0.0695716864    0.1163407870
 C    0.6845247058   -0.4955869350   -1.1888078048
 C    2.0627671908    0.0786035731   -1.5295508738
 N    0.7865115690   -2.0195973103   -1.2817876958
 C   -0.5660557474   -2.5589133141   -1.2398422239
 C   -0.0829305896   -2.0041026536   -2.5378830218
 C   -0.1735566448   -0.5078964994   -2.4828572270
 O   -0.5553015095    0.3426900099   -3.2359672486
 H    0.7944512519    2.1517408942   -0.0234643922
 H   -0.7710955776    1.8448359441   -0.7830468851
 H   -0.6347208877    1.9120258866    0.9826964012
 H    0.8303145995   -0.1682343116    0.9222157939
 H   -0.8136102124   -0.4334215177    0.3737462293
 H    2.7463309119   -0.0683715379   -0.6876039698
 H    2.4865113367   -0.4259870081   -2.4019141646
 H    1.9929647357    1.1458069622   -1.7512650623
 H   -0.5979805161   -3.6419289563   -1.1646177056
 H   -1.3543779415   -2.0497384500   -0.6939751051
 H    0.1075798610   -2.6227543244   -3.4073690129