22

 C    0.1541518263    1.5671003163   -0.0724927082
 C    0.0205698745    0.0423551821    0.0432390020
 C    0.7154118940   -0.4662744598    1.3078934185
 O    2.0947754287   -0.1316829730    1.2331725751
 C   -1.4377065271   -0.4407403916    0.0246214987
 C   -2.1807670712   -0.1497229334   -1.2818711322
 C   -3.5156840214   -0.8916204357   -1.3624458973
 N   -4.4511438426   -0.2998086890   -2.1642397461
 O   -3.7356702766   -1.9315943593   -0.7723469002
 H    1.2005013461    1.8643609071    0.0249641823
 H   -0.2165831175    1.9369968931   -1.0331352632
 H   -0.4153816135    2.0676258515    0.7209332116
 H    0.5474726147   -0.4156360121   -0.8064714051
 H    0.2442090100   -0.0094155895    2.1946895385
 H    0.5787486316   -1.5561914732    1.3883161704
 H    2.5146003328   -0.4015165272    2.0546459688
 H   -1.4793747497   -1.5219864350    0.1904789236
 H   -1.9866565144    0.0153858514    0.8595254937
 H   -2.3419208784    0.9241673361   -1.4254470166
 H   -1.5753426854   -0.4873187786   -2.1353599026
 H   -4.2435517996    0.5116494388   -2.7189934471
 H   -5.3080805211   -0.7985041488   -2.3402160946