16

 N   -0.1425183771   -1.1938866847   -0.0857708585
 C   -0.0771363936   -0.0416503439   -0.0185133553
 C    0.0141710208    1.4096197875    0.0315103065
 C   -0.2480762938    2.1225014840    1.3771970951
 N    0.8144123093    1.6934819777    2.3046612268
 C    1.0860243928    2.7832570071    1.3332692166
 C    1.4300471530    2.0745037537    0.0386336499
 C    2.7057972007    1.5379255252   -0.4616890093
 N    2.0628531445    2.7143365482   -1.0968624396
 H   -0.6000955592    1.8457809549   -0.7628950932
 H   -1.2063176562    2.4838707328    1.7250218318
 H    0.6194669424    2.1247428509    3.2077433272
 H    1.3901507680    3.7741352640    1.6430726161
 H    3.6302308807    1.7498907565    0.0668342374
 H    2.6804509500    0.5838695181   -0.9814809237
 H    1.6109707678    2.4474723480   -1.9685282879