20

 O    0.0516140561    1.4256445449    0.0923880612
 C    0.0800259231    0.0214076972   -0.0263097777
 C   -1.3342830832   -0.5629522866   -0.0254309306
 C   -1.3745386596   -2.0894810191   -0.1619355603
 C   -2.8271701876   -2.6045349553   -0.1056971673
 C   -3.6216632526   -2.0061757487    1.0499569331
 O   -4.3630244195   -2.6600370735    1.7452006757
 C   -3.4171287207   -0.5025028287    1.2604748991
 N   -2.0076751926   -0.0955864521    1.1980570996
 H   -0.6618301598    1.6085561031    0.7204972382
 H    0.5893783927   -0.2249198539   -0.9642094710
 H    0.6618866389   -0.4438246391    0.7916541649
 H   -1.8786448759   -0.1110202143   -0.8675140140
 H   -0.8999561444   -2.4091275812   -1.0972301425
 H   -0.7928636794   -2.5370222140    0.6554820869
 H   -3.3451580973   -2.3056813088   -1.0292432314
 H   -2.8826727972   -3.6937804461   -0.0400599414
 H   -3.9655870413    0.0352060180    0.4738230863
 H   -3.8522009109   -0.2185549172    2.2215996065
 H   -1.5207184489   -0.4854658445    2.0035228045