19

 C    0.5065477337    1.5965557081   -0.2559571423
 C    0.1190382882    0.1308467278   -0.0411048477
 N    0.7594071339   -0.7568727744   -1.0286829021
 C    1.8502023338   -1.3108449879   -0.3949958248
 C    2.9304598597   -1.9555577120   -1.1830836372
 O    2.9483709867   -1.9563162734   -2.3910762411
 N    1.8894489441   -1.2427189607    0.8865141349
 C    0.6518587617   -0.5332627609    1.2790043260
 C    0.8716887746    0.3816744924    2.4780720691
 H    1.5897812193    1.7371869372   -0.1857096619
 H    0.1835961455    1.9328667814   -1.2470376654
 H    0.0271437526    2.2436251324    0.4843587050
 H   -0.9691280560    0.0328930140   -0.1003343516
 H    0.8844039812   -0.4522370626   -1.9844285495
 H    3.7235063545   -2.4150021949   -0.5631633902
 H   -0.0682028480   -1.3132477183    1.5697391402
 H    1.6127389710    1.1561387180    2.2628923923
 H   -0.0613266695    0.8683633234    2.7799391099
 H    1.2395724729   -0.2065105997    3.3225660962