17

 C   -0.1152193192    1.5643554227    0.0114787111
 C    0.0014746518    0.0485410648    0.0036689868
 C   -1.1520359885   -0.6415247234   -0.5117002402
 N   -2.0763681824   -1.2027745696   -0.9257916016
 C    1.3501084851   -0.6512573794   -0.2650677948
 N    2.4943960329    0.1983221410   -0.4563296840
 C    0.7604573573   -0.6679464717    1.1260022657
 N    1.3110588589    0.1185609471    2.1949172078
 H    0.8317722667    2.0228551271    0.2940587401
 H   -0.3972567825    1.9350479960   -0.9783727571
 H   -0.8791615213    1.8808268642    0.7265476662
 H    1.2774747091   -1.5712708418   -0.8458456166
 H    3.3489287359   -0.3269082357   -0.2979803584
 H    2.5340452748    0.5533999461   -1.4063558012
 H    0.3186783644   -1.6008311519    1.4580579193
 H    1.6986287140   -0.4935306429    2.9043212107
 H    2.0730369729    0.6873153975    1.8350677962