14

 O   -0.1426503732    1.3570891607   -0.1010120216
 N    0.0090490566   -0.0255166954    0.0677111007
 C   -1.1027279010   -0.6208962288   -0.0087845794
 C   -2.5814708931   -0.2354329691   -0.1016639013
 C   -2.8815519856   -1.7356454462    0.0966669220
 O   -2.2571840247   -2.4335288394   -0.9680474818
 C   -1.4278648280   -2.0796709497    0.1756740099
 C   -0.7138450513   -3.0960423674    0.8623655106
 C   -0.0892346066   -3.9336128240    1.4559863703
 H    0.7628367595    1.6742955134   -0.0112969877
 H   -2.8841486658    0.4050613526    0.7317081532
 H   -2.9310016815    0.1893111654   -1.0445840369
 H   -3.7162992185   -2.2074738411    0.6004068913
 H    0.4619530532   -4.6767276112    1.9776642506