16

 N    0.0876736234    1.3554623776    0.1193315151
 C   -0.0264293347   -0.0091324979    0.0367315475
 C   -1.1480247932   -0.7710574573   -0.0320831851
 C   -0.7889791416   -2.1800071643   -0.0127435926
 N   -1.5025033808   -3.2444180450    0.0095253864
 O   -2.8767645358   -2.9275505196   -0.0113279600
 C    0.7069903882   -2.2700971223    0.0044815166
 N    1.3537140163   -1.6552296547   -1.1894262512
 C    1.1987778292   -0.8735179869    0.0694554568
 H    0.9361983463    1.7588914963   -0.2479339930
 H   -0.7370315471    1.8922750966   -0.1050264935
 H   -2.1618247375   -0.4137130443   -0.1352428671
 H   -3.2823592653   -3.7998874376    0.0127037954
 H    1.1974458212   -3.0967216471    0.5027535021
 H    2.3114361622   -2.0051693827   -1.2288406741
 H    2.0757570492   -0.5711802008    0.6322401768