14

 C   -0.1186712096    1.3648280051   -0.1420264324
 N   -0.0894768831   -0.0312366495    0.2513041537
 C    0.8795186901   -0.5343740805    1.0403118187
 O    1.8013056884    0.0335787939    1.5497552984
 O    0.6820406473   -1.9366289215    1.1208983308
 C    1.0202745748   -2.5851051760    2.2616033769
 N    0.9129299830   -2.0803401062    3.4118782600
 C    1.4556099633   -3.9405040489    1.9776301084
 N    1.7975579616   -5.0324619376    1.8133561282
 H   -0.0238303284    1.4721140312   -1.2276266501
 H   -1.0484525485    1.8427486861    0.1821986516
 H    0.7228399485    1.8631325460    0.3396490414
 H   -0.7902920585   -0.6683929654   -0.0887158853
 H    1.2025266512   -2.7350066767    4.1361970398