17

 C    0.2862199533    1.4710697598    0.0552104687
 C    0.1211823525   -0.0128126168    0.0857075070
 O    0.6303624507   -0.7803094362   -1.0611798090
 C    0.0844662418   -1.7859734515   -0.1767891754
 C    0.5623257960   -1.0970983613    1.1358257465
 C   -0.8446869210   -1.2162354765    1.7641602190
 C   -1.3103035942   -0.2153904503    2.7809428141
 O   -0.7514429287    0.8231446211    3.0412066234
 C   -1.1429500999   -0.9333556136    0.2558251212
 H    1.3453763077    1.7198335830   -0.0637563562
 H   -0.2627891978    1.8960548077   -0.7907575279
 H   -0.0755910913    1.9110136475    0.9854156716
 H    0.1279568142   -2.8349483988   -0.4669678236
 H    1.5366296921   -1.1876343578    1.6142634467
 H   -1.1405491157   -2.2248661374    2.0766683610
 H   -2.2538322498   -0.4936044795    3.3046148879
 H   -2.1033183900   -0.8464886095   -0.2524293452