23

 C   -0.1077452349    1.5302815174    0.5032767386
 C   -0.0700387341    0.0859687370   -0.0154416622
 C   -1.4367187607   -0.5528733695   -0.1581035316
 C   -2.1319329052   -1.1105534441    1.0699849843
 C   -1.6603053058   -2.0429864174   -0.0193355193
 C   -2.6901819482   -2.4922817908   -1.0491713131
 C   -3.4088258565   -1.1933973825   -1.4645926820
 C   -2.3639505245   -0.0675602793   -1.2741988162
 O   -2.9379395599    1.2183748577   -1.0770420252
 H    0.9009568119    1.9508928386    0.5646000599
 H   -0.7105920351    2.1646192284   -0.1510054733
 H   -0.5489710424    1.5725087559    1.5053920721
 H    0.4363353128    0.0618547754   -0.9903098422
 H    0.5411683640   -0.5274494148    0.6589599053
 H   -1.5617397657   -1.0999728532    1.9932326610
 H   -3.1981276975   -0.9638029634    1.2185433800
 H   -0.8275518759   -2.7023214787    0.2039929735
 H   -2.1727577351   -2.9353577110   -1.9083072881
 H   -3.3815163630   -3.2510871878   -0.6659662251
 H   -3.7979187059   -1.2227408840   -2.4849767061
 H   -4.2657032480   -0.9920829433   -0.8113020238
 H   -1.7662086511    0.0430452817   -2.1878977266
 H   -3.3555614092    1.2144142978   -0.2083969397