20

 C   -0.3361305933    1.4499020568   -0.0623742856
 C   -0.0002367067   -0.0524383023   -0.0246276620
 C    0.8493789308   -0.4557583298    1.1396101569
 C    2.1717237630   -0.8376317533    1.2090445569
 C    2.4973458799   -1.0829799090    2.5764690653
 C    3.8146234725   -1.5351806938    3.1356113587
 O    4.0284535592   -1.0982490865    4.4728804771
 C    1.3554851022   -0.8365256536    3.3067073650
 N    0.3683991400   -0.4590909160    2.4290339706
 H    0.5773476227    2.0499291594   -0.1106674738
 H   -0.9536698858    1.6914402482   -0.9333545107
 H   -0.8868102699    1.7591834140    0.8324525007
 H   -0.9349050189   -0.6305001800   -0.0289260790
 H    0.5302626052   -0.3296411359   -0.9410105126
 H    2.8389219954   -0.9325400460    0.3643349664
 H    3.8729999735   -2.6298149887    3.1837254013
 H    4.6305932765   -1.2083779970    2.4703407826
 H    3.8684323152   -0.1483075191    4.4806900491
 H    1.1718803640   -0.9110113059    4.3659768494
 H   -0.5694025555   -0.2097369416    2.6915708037