17

 C   -0.0598204059    1.5673448261   -0.1364251135
 C    0.0239377200    0.0697672421    0.0239367847
 O   -1.1381416794   -0.6276761612   -0.3591874644
 C    1.2743804532   -0.7400750038   -0.1874624366
 N    2.4487312372    0.0376524181    0.2723474705
 C    1.9442080973   -0.0638819281    1.6833068207
 C    1.9318666345    1.1895696160    2.4462456717
 N    1.9231180735    2.1618692959    3.0707348268
 C    0.6236779458   -0.6742094558    1.1967826198
 H    0.8865849628    2.0528926937    0.1033849580
 H   -0.3029587134    1.8127143474   -1.1780065031
 H   -0.8458268176    1.9791099544    0.5027343875
 H   -1.2825693907   -0.4590001484   -1.2971242729
 H    1.3499847610   -1.5546387530   -0.8975359774
 H    3.3161165562   -0.4772435881    0.1688456972
 H    2.5005465548   -0.8056755274    2.2665024200
 H    0.0364474308   -1.3953623582    1.7484227609