19

 C   -0.1457983923    1.5216250688   -0.1040683681
 N    0.0900345974    0.0955632340    0.0896362493
 C    1.3611401948   -0.5467354293   -0.1212821923
 C    2.5548357454    0.2997452902    0.3581253651
 C    1.9324272373    0.2829455017    1.8030979500
 C    2.7384353590   -0.5660086675    2.7820485602
 O    1.5796576803    1.5252426426    2.3886861928
 C    0.7166289719   -0.4866487811    1.2494983536
 H    0.6615962212    2.1780059852    0.2351250490
 H   -0.3290373613    1.6941505300   -1.1697211683
 H   -1.0510995496    1.7967623012    0.4451169312
 H    1.4177165436   -1.3814620127   -0.8119346192
 H    3.5113586812   -0.2258422841    0.3029778114
 H    2.6618266163    1.2836727597   -0.1057043686
 H    3.6898202827   -0.0770442719    3.0265307498
 H    2.1753937795   -0.7062199265    3.7103686773
 H    2.9684577615   -1.5500459294    2.3631956991
 H    2.3765512086    1.9169777861    2.7627668028
 H    0.1749592027   -1.2462020170    1.8063024350