19

 C   -0.1267888758    1.9976672530   -0.5625511379
 C    0.3627335395    0.6225542794   -0.1176874164
 C   -0.7815700149   -0.2522149227    0.3781054730
 O   -0.6621340655   -1.0891549400    1.2445416890
 N    0.9733698128   -0.0737849672   -1.2517656135
 C    1.7126505739   -1.1039118087   -1.0397538453
 N    1.9903575990   -1.6911958051    0.1589224675
 C    2.3901159526   -1.7057369350   -2.2636950298
 O    2.1542702392   -0.9474970373   -3.4106708689
 H    0.7113399909    2.5813064471   -0.9509827818
 H   -0.8668231309    1.8993793488   -1.3631965906
 H   -0.5795806732    2.5469022500    0.2693111821
 H    1.0772206110    0.7189559974    0.7142507188
 H   -1.7480216994   -0.1207648416   -0.1550371518
 H    1.3232315994   -1.5842603022    0.9136443107
 H    2.5001014834   -2.5603825816    0.1476484283
 H    3.4707578432   -1.7820198409   -2.0583065016
 H    2.0194256132   -2.7383371908   -2.3859460702
 H    1.5468459516   -0.2469757027   -3.1095006515