19

 C    0.0486154731    1.5426640477    0.0419616014
 C   -0.0386829464    0.0146205677   -0.0525013537
 C   -1.4590166459   -0.4948914659   -0.0285111002
 C   -2.5445815105   -0.3868129444    1.0727730926
 N   -3.2831452110   -1.2009444057   -0.0067040983
 C   -2.6406124656   -0.2027592177   -0.9915666405
 C   -1.9489529049   -1.9751419438   -0.1121340751
 C   -1.7309117951   -2.7454216632   -1.3281411340
 N   -1.5203133152   -3.3630477356   -2.2826908483
 H    1.0896643277    1.8758416743    0.0169220181
 H   -0.4751397498    2.0215588319   -0.7917654511
 H   -0.3971248669    1.9105133773    0.9720774673
 H    0.4425353025   -0.3315073773   -0.9758278968
 H    0.5168420975   -0.4437036906    0.7758212956
 H   -2.3941685075   -0.9328633364    2.0085656539
 H   -2.9983648075    0.5904643251    1.2484648062
 H   -3.0986118508    0.7877659868   -0.9502544374
 H   -2.5819857825   -0.5731267384   -2.0171095990
 H   -1.7623644413   -2.6069092419    0.7609785595