21

 C   -0.1350052812    1.4643311963   -0.1337344993
 C   -0.0733887502   -0.0235080982    0.1007071859
 O    1.2002942548   -0.6650380035   -0.0253141835
 C    0.5599393551   -0.6743579699    1.2626402555
 C    1.2504645990    0.0576063708    2.3645518183
 C    0.7823344123    0.0919221774    3.7990722992
 C    0.1883618122   -1.2521293981    4.2465402461
 C    1.5321345086   -1.9555041185    3.8634353318
 C    2.0997279580   -0.5982199630    3.4274211191
 H    0.6793863113    1.9931302253    0.3649287739
 H   -0.0695971196    1.6792450788   -1.2055936945
 H   -1.0866797157    1.8667739569    0.2303258935
 H   -0.8843286425   -0.5788682210   -0.3779678019
 H    0.1643946861   -1.6531927732    1.5336196187
 H    1.6736559487    1.0061529364    2.0473157030
 H    0.6249756133    1.0363531616    4.3071562543
 H    0.0065371966   -1.2859849624    5.3227947240
 H   -0.7216959009   -1.5843404742    3.7372794427
 H    2.0432974311   -2.3584828749    4.7400613042
 H    1.4940867822   -2.7394112753    3.1007177121
 H    3.1164013707   -0.2658814813    3.6010690769