14

 C   -0.0493492616    1.3348471691    0.0671180950
 O    0.0280623503   -0.0969544726   -0.0420311936
 C    0.6452974525   -0.5381193179   -1.1264887984
 O    1.1347701232    0.1188806924   -2.0060323558
 N    0.6743295036   -1.9542650259   -1.1502563036
 C    1.2380238810   -2.7150110823   -2.1337277017
 C    1.0216740001   -3.9978207678   -1.7249974062
 N    0.3456694063   -3.9722226953   -0.5289044042
 N    0.1331843733   -2.7507176221   -0.1764397611
 H    0.9526778565    1.7683533813    0.0970721069
 H   -0.5972112829    1.7515347345   -0.7808649600
 H   -0.5794402523    1.5228816111    0.9994243655
 H    1.7149577458   -2.2670432690   -2.9871593218
 H    1.2984048143   -4.9260921854   -2.1965824210