15

 O    0.8241465509    1.4318062637    1.5316395597
 C    0.2201279732    1.6435925176    0.5059626968
 C    0.7786327640    1.2064022209   -0.7928190284
 N    1.2533360126    0.8263850941   -1.7758432805
 C   -1.0957526532    2.2975928362    0.4509312759
 C   -1.9045876095    2.7759645503    1.6616050898
 C   -3.2107574987    2.2766473226    0.9607412819
 C   -2.3754723735    1.8065186470   -0.2394917088
 N   -1.5741898791    2.8572400214   -0.8096414709
 H   -1.6679735690    2.2125065154    2.5645708449
 H   -1.8251833217    3.8448516298    1.8791339564
 H   -3.6837885474    1.4544427273    1.5002620606
 H   -3.9709245243    3.0272719803    0.7241099496
 H   -2.5159346920    0.9040860184   -0.8233289989
 H   -1.9638955423    3.7905518049   -0.6877440082