19

 C   -0.1473232594    1.6002481493   -0.1221550243
 C    0.0819429175    0.0964133756   -0.0852952321
 C    0.6394562550   -0.6516284174   -1.3075828830
 C    2.0903578533   -0.3139055582   -1.6177313591
 C    2.6924973075    0.9900252083   -1.5797376654
 N    3.2106503489    2.0257909120   -1.5789283087
 C    1.7355289451   -1.1762201698   -0.4024078233
 N    1.1999463713   -0.4752182296    0.7356169983
 C    2.0452888081    0.3196267617    1.6102676660
 H    0.7275047857    2.1598832420   -0.4549862502
 H   -0.9750127843    1.8224869253   -0.8038148045
 H   -0.4331607513    1.9655592458    0.8698477638
 H   -0.8511062255   -0.3907345144    0.2275888448
 H    0.0425141261   -1.1849710430   -2.0357812933
 H    2.4729081985   -0.9148174720   -2.4398936146
 H    2.1668170431   -2.1680381746   -0.3076594975
 H    2.5702869279    1.1506599269    1.1199578662
 H    1.4397896709    0.7253613966    2.4268533314
 H    2.7964830714   -0.3406318543    2.0567056055