16

 O    0.8874908036   -0.2873128198   -0.1561984394
 C    0.7356749306    0.8635032077   -0.4661412505
 C    1.6881614914    1.9842331549   -0.0695894114
 N    1.7877053221    3.0122642026   -1.0793461456
 C    1.2381967320    4.2485594717   -0.9144374325
 O    0.6253103294    4.6099799801    0.0726162268
 C    1.4735103401    5.1816167498   -2.0775130106
 C    2.8420042252    5.5748061635   -2.4546400245
 O    2.1050075225    4.6358286615   -3.2395118504
 H   -0.1340249294    1.2054719257   -1.0725740233
 H    1.2803032456    2.4685519231    0.8269889571
 H    2.6630866671    1.5539218323    0.1794972502
 H    2.2065237305    2.8174105892   -1.9771994775
 H    0.6560623306    5.8750665557   -2.2589129241
 H    3.0067695687    6.5440639730   -2.9202568732
 H    3.6851372898    5.1636276291   -1.9031411608