17

 C   -0.0200342950    1.4688013797    0.0223632174
 C   -0.0008407730   -0.0217340741   -0.0288283358
 N   -0.0371942594   -0.7567991129   -1.1294898266
 C    0.0022237117   -2.0479749282   -0.6820241541
 C    0.0617974716   -2.1098263061    0.6860900697
 N    0.0594588361   -0.8037316924    1.1109431529
 C    0.1024448235   -3.4859680886    1.1432163872
 C    0.0672724241   -4.2717087538    0.0419419673
 C   -0.0002287269   -3.4415013344   -1.2352217534
 H    0.8842617407    1.8774143069    0.4897034054
 H   -0.0792164005    1.8480734920   -0.9984721248
 H   -0.8817298242    1.8513087072    0.5828460410
 H    0.0944092917   -0.4610413524    2.0558888510
 H    0.1515715525   -3.8255945903    2.1694671518
 H    0.0837137660   -5.3533316893    0.0388395568
 H   -0.9009966259   -3.6767488930   -1.8171327301
 H    0.8540796170   -3.6499674703   -1.8925221257