18

 O   -0.7316530644    0.7297467278   -0.5399648895
 C    0.1517775229    0.8695651308    0.2695575249
 C    1.2454579174    1.8959255283    0.2198350655
 C    1.3060379309    3.0701978146   -0.7803886161
 C   -0.0458871317    3.7867688637   -0.5660573374
 C    0.2808197730    4.1934527700    0.8860404872
 C    1.5300492826    5.0581203790    0.6339613701
 N    2.2350810739    3.7900423718    0.2386052266
 C    1.3294050587    3.0569129935    1.2300613578
 H    0.2203975073    0.1932392799    1.1545594114
 H    2.2095393649    1.3734288614    0.2671611307
 H    1.6946019816    2.9485943887   -1.7892238441
 H   -0.1873363023    4.6553731564   -1.2145474311
 H   -0.8937869544    3.1142766746   -0.6859320051
 H   -0.5337331116    4.4850063411    1.5495977376
 H    1.4787791544    5.8462631516   -0.1239898883
 H    2.0089244605    5.4433722612    1.5387213839
 H    1.6737004264    2.9427128455    2.2583822658