19

 C   -0.1421499836    1.5681189874   -0.0974993100
 C    0.0196823443    0.0578855756    0.0009413725
 C    1.1459973863   -0.5752218342   -0.8517964530
 O    1.4472371779   -0.5763126985   -2.0169919629
 N    1.7073657148   -1.1493286351    0.2590535854
 C    0.7411805306   -0.6072209273    1.2387255729
 C    1.3807623435    0.3420588574    2.2512275422
 C   -0.0807531754   -1.6907821015    1.9369750355
 H    0.8032639909    2.0957161969    0.0554295926
 H   -0.5048376490    1.8305909915   -1.0956891187
 H   -0.8654822290    1.9431752777    0.6338644808
 H   -0.9370716568   -0.4353429256   -0.1991522194
 H    2.5179289725   -1.7424739788    0.3678318984
 H    2.0098581198    1.0895172414    1.7623818033
 H    0.6153671503    0.8618350645    2.8366491513
 H    2.0087404489   -0.2179224650    2.9532462775
 H    0.5429458367   -2.2775680460    2.6209416732
 H   -0.8878266429   -1.2439980313    2.5272306486
 H   -0.5237096898   -2.3756768690    1.2081993698