15

 C    0.0005288532    1.5084590783    0.0337090578
 C    0.0055295190    0.0016913472    0.0134605489
 C   -0.1147910999   -0.7106640030   -1.1801655587
 N   -0.1165744306   -2.0446704087   -1.2573347502
 C    0.0033098243   -2.7386329351   -0.1313307736
 C    0.1303992623   -2.1301329450    1.1228298290
 O    0.2468493599   -2.9382973067    2.2110165907
 C    0.1307774451   -0.7415359385    1.1890446920
 H    0.9286506731    1.9059196277    0.4595029863
 H   -0.1052303217    1.9147689734   -0.9753880104
 H   -0.8251188533    1.8976636894    0.6399452291
 H   -0.2147746430   -0.1746292266   -2.1213485355
 H    0.0014639462   -3.8234680925   -0.1980989695
 H    0.3270198628   -2.3969561136    3.0035551906
 H    0.2279576426   -0.2391664262    2.1497670935