21

 C   -0.1269179428    1.5135524651   -0.1262706003
 C    0.0510997065    0.0119045042    0.0263840188
 O    0.7759762687   -0.4325928961   -1.1276791732
 C    0.9477348231   -1.8225848334   -1.1416203779
 O    1.6851735437   -2.2935576944   -0.0453321136
 C    1.0229696306   -1.9746552770    1.1712013112
 C    0.7739652684   -0.4804598243    1.2787645989
 C    1.8094279239    0.3568495939    1.9808223150
 C    0.4817134977    0.0760189335    2.6461335979
 H    0.8420734737    2.0150776927   -0.1904338237
 H   -0.6731500481    1.7195100226   -1.0502151951
 H   -0.6935135304    1.9362037130    0.7076066523
 H   -0.9444694584   -0.4695881162    0.0109362298
 H   -0.0418639610   -2.3217414683   -1.1658448768
 H    1.5159774397   -2.0676890560   -2.0412598809
 H    0.0626131559   -2.5184174882    1.2231061667
 H    1.6614020135   -2.3338762302    1.9833199066
 H    2.6928699219   -0.1463104323    2.3594978170
 H    1.9945493539    1.3643853998    1.6278353787
 H   -0.2265816966    0.8920417267    2.7381559191
 H    0.4589552459   -0.6192648151    3.4800725693