19

 O   -0.0207033159    1.5565309824    0.2190982841
 C    0.0282314070    0.1423018657    0.2832502479
 C   -1.3622787459   -0.4969505659    0.0514547791
 C   -1.9795270277   -0.0682175893   -1.2638681385
 C   -1.5114661304   -0.3935563924   -2.4861422927
 C   -0.4775056132   -1.3508795268   -2.8011659776
 C   -0.1229185271   -2.4199542330   -2.0434529500
 C   -0.7005631762   -2.8014038671   -0.7763173097
 C   -1.3219742348   -2.0039105843    0.1157438825
 H   -0.2719973415    1.7856029490   -0.6823330497
 H    0.7535989654   -0.2695420243   -0.4298280709
 H    0.3725680902   -0.1090869515    1.2914658450
 H   -2.0044198342   -0.1274994704    0.8570014667
 H   -2.8562838789    0.5720952905   -1.2062648703
 H   -1.9872254870    0.0770217461   -3.3451421596
 H   -0.0282556516   -1.2643578945   -3.7875568209
 H    0.5896292880   -3.1208251072   -2.4720168274
 H   -0.6475298087   -3.8633396227   -0.5432194927
 H   -1.8005671574   -2.4717977044    0.9725632448