19

 C   -0.0808906085    1.6216219424   -0.1631304556
 C    0.0094788003    0.1086157951   -0.0410052005
 C    0.6816227817   -0.6722691364   -1.1833709744
 N    2.0567736393   -0.1440368701   -1.2832562594
 C    1.7515673265   -1.1901417304   -0.2788975662
 C    1.1141654871   -0.5015979218    0.9170920526
 O    1.9543443796    0.3923972452    1.6226487299
 C    1.7373031783    0.5465765894    2.9424119775
 N    2.4021729840    1.3918351777    3.6029982441
 H    0.8862285347    2.0402161544   -0.4458962829
 H   -0.8204393319    1.9013543042   -0.9211296154
 H   -0.3864941417    2.0741633824    0.7856850318
 H   -0.9637893728   -0.3241380017    0.2107274157
 H    0.2023261982   -1.1628862474   -2.0209854141
 H    2.5128246857   -0.6146810803   -2.0639300782
 H    2.2801365533   -2.1352700569   -0.2836258857
 H    0.6737347814   -1.2291109968    1.6087127495
 H    0.9639632611   -0.1274297805    3.3400368342
 H    2.1237938735    1.3603274115    4.5815687174