14

 N    0.0515920235    1.4287454965    0.1623391964
 C    0.0201650628    0.0291041522    0.0449802035
 C   -1.0857123549   -0.8073847789    0.0123057171
 N   -0.6915039993   -2.1421234046   -0.0169846052
 C    0.6767772882   -2.1661178382   -0.0101750546
 C    1.1243539125   -0.8618388114    0.0315248057
 O    2.4708192301   -0.8240882079    0.0316558698
 N    2.9259854160   -2.1585236634   -0.0119105684
 C    1.8609712675   -2.9352192728   -0.0356888554
 H    0.8493623739    1.8328270044   -0.3120931601
 H   -0.7923959209    1.8665414021   -0.1841517645
 H   -2.1325837402   -0.5468817887    0.0170109271
 H   -1.3154031842   -2.9266410842   -0.0425536795
 H    2.0091041751   -4.0048697953   -0.0695938618