14

 O    0.6128760664    0.7957350842    0.7109970025
 C    0.2520974705   -0.2910106842   -0.0720281100
 C   -1.2610152871   -0.7676680225   -0.1989546050
 C   -1.0095968376   -1.0461170007   -1.7240759605
 C    0.2140303330   -0.1326615359   -1.5955466964
 O    0.7545441832    0.6535241223   -2.3204985470
 C   -1.6920656487   -1.8621505628    0.6391329902
 C   -2.0248162787   -2.7864492370    1.3326274494
 H    0.6062943665    1.5803446397    0.1491781830
 H    0.8518530046   -1.1629545599    0.2173773232
 H   -1.9131804988    0.1034290174   -0.0825987511
 H   -0.7369342437   -2.0884745770   -1.9086191483
 H   -1.7776935860   -0.7368633574   -2.4336305391
 H   -2.3255912336   -3.5970321662    1.9491725491