16

 C    0.0326041283    1.5562872683    0.0504186630
 C    1.5965698114    1.3636313304    0.0519049040
 C    1.2771494222   -0.0478180114    0.4852663268
 C    1.4261406740   -0.8567379500    1.5389100537
 C    0.1052575231   -1.5032665990    1.8222933528
 O   -0.8674356393   -0.5219953064    2.2779475460
 C   -0.9013969292   -0.9015664493    0.9069078016
 C   -0.1362146174   -0.0050364176   -0.0494858350
 H   -0.3227145547    1.9209196787    1.0151025106
 H   -0.3889201445    2.1492788203   -0.7635191331
 H    1.9992907710    1.4313633229   -0.9639691405
 H    2.1967570484    1.9825970291    0.7216704801
 H    2.2632645456   -0.8913633289    2.2254341414
 H   -0.0057314805   -2.4832840964    2.2765895606
 H   -1.7949693015   -1.4348885789    0.5934761179
 H   -0.2525144369   -0.3276589916   -1.0893253198