18

 C   -0.0724672951    1.4571481827   -0.0729774045
 C    1.4593149917    1.4226966436   -0.0150088694
 C    1.2382512595    0.0760608940    0.8620910482
 C    1.7427019274   -1.2226015277    0.1701101303
 C    0.9660264614   -0.5689773491   -0.9759565270
 C    0.5569123026   -0.5533989793   -2.4469317240
 O    1.0341641568    0.8253676941   -2.5535699067
 C    1.7824172858    0.6761039233   -1.3098603139
 N   -0.0438791143   -0.0419790847    0.0503107461
 H   -0.5427971634    1.8634232979    0.8262977823
 H   -0.5420088595    1.8612865465   -0.9713048527
 H    2.0743209836    2.2648274693    0.3034735297
 H    1.1528930809    0.1809922704    1.9445232852
 H    2.8083697987   -1.4048334669    0.0240091464
 H    1.2509762801   -2.0814049972    0.6315685919
 H    1.1217405949   -1.2249569542   -3.1054041923
 H   -0.5152113626   -0.6356328355   -2.6506416445
 H    2.8505126915    0.5508582628   -1.5134003051