19

 C    0.0206006036    1.4784943775    0.0302800099
 C    0.0230585076    0.0220346812    0.0125894525
 C    0.0137750708   -1.1831919291    0.0190963800
 C   -0.0083663396   -2.6443251066   -0.0119150109
 C   -1.4466345968   -3.1917243477    0.0507049383
 C    0.7552793595   -3.1374583106   -1.2924964906
 N    2.1116926604   -2.6232556882   -1.4648401968
 C    0.7981644988   -4.6076581874   -1.3118000881
 N    0.8228769623   -5.7625867455   -1.2904761583
 H    0.9131399448    1.8733253022    0.5276012951
 H   -0.0036328584    1.8887782023   -0.9850452822
 H   -0.8549149253    1.8640973675    0.5637615435
 H    0.5497814407   -3.0264292509    0.8541364732
 H   -2.0275034383   -2.8489825038   -0.8111912565
 H   -1.4433318507   -4.2847821105    0.0579860956
 H   -1.9473197448   -2.8390628006    0.9552928608
 H    0.1677596966   -2.8165821930   -2.1623708670
 H    2.0709927959   -1.6087609432   -1.4089900741
 H    2.6989235428   -2.9354019936   -0.6958112943