16

 N   -0.1092700671    1.3087894248   -0.1125204388
 C   -0.0493760453    0.0531594539   -0.0579346118
 O   -1.1982964046   -0.6556220382    0.1296016579
 C   -1.0671473483   -2.0307883782    0.1213862849
 C   -1.2973747860   -2.8482491772   -1.1449907685
 C   -2.1814709950   -3.0920436267    0.0348222617
 C   -1.4422879974   -3.9971791237    1.0356003839
 C   -0.3879999301   -2.8643005085    1.1727236034
 O    0.4926063491   -2.6381029875    1.9515852356
 H    0.8234222601    1.6962261659   -0.2395128460
 H    0.8419444267   -0.5786204236   -0.1324563057
 H   -1.7242662144   -2.2451383029   -1.9399860830
 H   -0.5847961636   -3.6010350957   -1.4714401600
 H   -3.2454325045   -2.9010084840    0.0269221170
 H   -1.9601414709   -4.1387663675    1.9882455799
 H   -1.0993633284   -4.9648518611    0.6595180196