18

 O   -0.1134624545    0.0093163625    0.1455225582
 C   -0.0625238986    1.2048089373    0.0456744853
 N   -1.0236972331    2.1828553709   -0.0802521954
 C   -0.1015250977    3.3195091876    0.0921023748
 C   -0.2256411035    4.0535591232    1.4451349514
 C    1.1029549661    4.0707761799    2.2060155536
 O    1.6222402356    2.7611960912    2.3390810995
 C    2.1170450874    2.2735834033    1.1067979197
 C    1.0626348401    2.2685051352    0.0037456195
 H   -2.0220607618    2.1299664378    0.0688649909
 H   -0.1354580776    4.0213113048   -0.7461246002
 H   -0.5899530679    5.0766834466    1.3023819433
 H   -0.9598476095    3.5282755115    2.0641787465
 H    1.8364876920    4.7204351044    1.6982144862
 H    0.9602428326    4.4571122444    3.2191835018
 H    2.9806578881    2.8818634972    0.7898870304
 H    2.4683193787    1.2532372425    1.2875488933
 H    1.5467629937    2.2672650397   -0.9768748389