18

 C   -0.2269045201    1.6233666035    0.1329232221
 C   -0.1098416680    0.0990109181    0.0378823494
 C    0.8527132201   -0.5058054589    1.0671111722
 C    0.8126892072   -2.0356872671    1.1808413039
 O    2.1394209526   -2.4637787307    1.5655442460
 C    3.0625897044   -1.5151448959    1.2546106759
 N    4.3158111597   -1.6313313132    1.3406678940
 C    2.3361582086   -0.2555225768    0.8073960713
 O    2.8542869975    0.7205367789    0.3375684261
 H    0.7446598857    2.0968459417   -0.0210122811
 H   -0.9224708317    2.0042265810   -0.6205259670
 H   -0.6022627521    1.9272461234    1.1165822545
 H   -1.0978482577   -0.3579922861    0.1779451630
 H    0.2224636637   -0.1882488026   -0.9673398806
 H    0.6467771592   -0.0762024453    2.0591558224
 H    0.1192298129   -2.4048772527    1.9383065694
 H    0.5621762017   -2.4994281565    0.2186972386
 H    4.5732373863   -2.5656063509    1.6676656400