16

 C    0.0118368227    1.5410428116   -0.0727186700
 N   -0.0045530860    0.0828026082    0.0624681317
 C   -1.1535325628   -0.5727173626    0.8096979387
 C   -0.2066311813   -1.8049957189    0.9907498024
 C    0.0811371070   -2.6197795440   -0.1704468680
 C    0.3093497706   -3.3625627872   -1.0871930435
 C    0.6933827501   -0.5523796288    1.2531172550
 C   -0.4884008595    0.0259456733    2.0803857754
 O   -0.7119589665    0.7755697043    2.9771714028
 H    1.0030970970    1.8390553905   -0.4260959652
 H   -0.7170694243    1.8201143986   -0.8389426274
 H   -0.2155028716    2.0972410811    0.8489836612
 H   -2.1759986628   -0.5546211796    0.4379639218
 H   -0.4126096427   -2.4110714625    1.8764832606
 H    0.5141486626   -4.0005526422   -1.9109385727
 H    1.7725507975   -0.5111431819    1.3859565671