16

 O   -0.0782967338    1.4994290392   -0.0672191428
 C   -0.0425058197    0.0984312145   -0.0808959192
 C   -1.3659387633   -0.6161167984   -0.1578660640
 C   -1.7523473742   -0.7479116139   -1.5910459558
 C   -0.6945199946   -0.0843763966   -2.4509970969
 C    0.2919320365   -0.6566936278   -1.4070681379
 C    1.6343445332   -1.0246272696   -1.7348057107
 C    2.7730000281   -1.3124774378   -1.9965884736
 N   -0.7879413651   -1.7361135235   -0.9942360096
 H    0.8114464969    1.8273328425    0.0997312276
 H    0.5682511078   -0.3124282655    0.7319563840
 H   -2.0511469222   -0.8246745514    0.6544958166
 H   -2.7487448176   -1.0579812126   -1.8822872475
 H   -0.5832886202   -0.5940900342   -3.4098372927
 H   -0.7082385993    1.0000549957   -2.5812500015
 H    3.7740049676   -1.5759211606   -2.2341080661