21

 C    0.2582618183    1.3150568254    0.2436110931
 C   -0.0362382469   -0.1841401509    0.1482762074
 C   -1.5313791033   -0.5155649570   -0.0640498562
 C   -1.8331074296   -2.0027062977   -0.3144960858
 C   -2.4487049710   -2.5088027487    1.0127236823
 C   -1.5093785403   -3.3352663987    1.8814617998
 O   -2.8481048048   -1.3242433982    1.7344312935
 C   -2.3559509469   -0.1866591755    1.1815941430
 O   -2.5647999671    0.8913415876    1.6639148728
 H    1.3258195321    1.4884925617    0.4097636852
 H   -0.0234511075    1.8266759214   -0.6834729479
 H   -0.3023846837    1.7759129828    1.0594884024
 H    0.5203265152   -0.6186254845   -0.6910400982
 H    0.3259381072   -0.6940559698    1.0502479018
 H   -1.9042280392    0.1129149820   -0.8786814698
 H   -2.5497288012   -2.1203868350   -1.1310455681
 H   -0.9386952356   -2.5726656397   -0.5791773186
 H   -3.3674545731   -3.0749181927    0.8316727532
 H   -0.5716786982   -2.8021170286    2.0680468280
 H   -1.9752341316   -3.5580723699    2.8449936638
 H   -1.2730928426   -4.2812233143    1.3835574482