17

 O   -0.0771840015    1.3810993653    0.0525887445
 C    0.0165312056   -0.0136205894    0.0181071568
 C    0.3552621884   -0.6959421890   -1.3541059547
 C   -0.8601831231   -1.5953184940   -1.1385076119
 C   -0.9290358128   -2.1521083972    0.2974656558
 C   -1.3667612934   -0.7399733732   -0.0130654056
 C    0.3064109266   -2.1254615556    1.1436130267
 O    0.7795299918   -3.0480672079    1.7579298640
 C    0.8172398458   -0.6747161604    1.1435483161
 H    0.8139610682    1.7468465739    0.0352235861
 H    0.1713456806    0.0091872609   -2.1682659123
 H    1.3424253095   -1.1570265918   -1.4732944787
 H   -1.4219423964   -2.1108911157   -1.9075083986
 H   -1.6514918196   -2.9433108024    0.4540799051
 H   -2.3368849805   -0.3119008935    0.1976407400
 H    1.9036128731   -0.6336556796    1.0205688852
 H    0.5586572178   -0.2185521703    2.1075482815