18

 C   -0.0039441071    1.4228023113   -0.1059600992
 N    0.0052280994   -0.0162401863   -0.0617978693
 C   -1.0700688673   -1.0146383068   -0.0485555549
 C   -1.8359260675   -1.2124164185   -1.3737968305
 C   -1.0388628862   -2.2830175185   -2.0860285251
 C   -0.0513384222   -2.7825688486   -1.3409687635
 C    0.0500637371   -2.1098964351   -0.0024553931
 C    1.0440820474   -0.9085944285    0.0396857892
 O    2.2345618135   -0.7562285460    0.1187495781
 H    1.0353976474    1.7587126348   -0.0733872401
 H   -0.4659367494    1.8009122463   -1.0259503982
 H   -0.5396339860    1.8493722356    0.7514254151
 H   -1.7191553969   -0.9307706408    0.8284011786
 H   -2.8707176356   -1.5313686830   -1.1945110279
 H   -1.8972184254   -0.2808327865   -1.9505382389
 H   -1.2670585752   -2.5934689707   -3.0999392761
 H    0.6401375659   -3.5562044834   -1.6526874595
 H    0.1026975482   -2.7751057355    0.8621080954