19

 C    0.5393744640    1.6354399039   -0.4394055528
 O    0.5978092473    0.2258397092   -0.2461019586
 C    0.9673996947   -0.4692886126   -1.3598652329
 C    2.3681066623   -0.5184977973   -2.1057278215
 C    1.4919454371   -1.5664775139   -2.8651859130
 C    0.9274075350   -2.0331584317   -1.4665217396
 C    1.7636078166   -2.8891471843   -0.5254536825
 C    0.3894961166   -0.4961539616   -2.7920181622
 O   -0.4359305173    0.0320235070   -3.4730485376
 H    1.5338208384    2.0494609477   -0.6551457766
 H   -0.1422549568    1.8942162668   -1.2577720197
 H    0.1703994010    2.0652714905    0.4934093180
 H    2.6776093959    0.3652496011   -2.6662296718
 H    3.1893655967   -0.9257597350   -1.5198426608
 H    1.7860466666   -2.1889038554   -3.7036231152
 H   -0.0894686080   -2.4350665314   -1.5179713264
 H    2.8047971592   -2.5720218578   -0.4415123487
 H    1.3281802116   -2.8639431300    0.4785881097
 H    1.7593855293   -3.9304020153   -0.8633366776