20

 C    0.0415220580    1.5380420197    0.0960809439
 N    0.0719083388    0.0950471063    0.1569972486
 C   -1.1882584059   -0.6591421442    0.2828050342
 C   -0.4990953382   -1.6174166523    1.2862310126
 C    0.1399013390   -2.9094965987    0.7148270726
 C    1.5338979349   -2.5223509826    0.1765694283
 C    1.9380519450   -1.2804209770    0.9775704398
 O    3.0564683197   -0.9302062020    1.2524990505
 C    0.6411951803   -0.5645711692    1.3583763413
 H    1.0632044867    1.9302203561    0.1092062906
 H   -0.4291993984    1.8577845297   -0.8398261210
 H   -0.5156339642    1.9972541040    0.9346282503
 H   -1.9970675400   -0.0768118314    0.7530893515
 H   -1.5646846280   -1.0856359308   -0.6554867783
 H   -1.0633187244   -1.8087142090    2.1982640311
 H    0.2515606288   -3.6396629029    1.5231770755
 H   -0.4931839287   -3.3741600342   -0.0467371688
 H    2.2870199375   -3.3073593733    0.2645781398
 H    1.4835029073   -2.2237629174   -0.8765219505
 H    0.7270767719    0.0653543692    2.2510545079