20

 C   -0.1426960976    1.5360734003    0.0690692303
 C   -0.0809759987    0.0127173598    0.0380990722
 N   -1.4250621968   -0.5550681421    0.0477316279
 C   -1.5758589247   -1.9391199691    0.0233668128
 N   -0.5694489415   -2.6893712282   -0.1735778959
 C   -0.6748132998   -4.1261498780   -0.3347348908
 C   -3.0262148858   -2.3933560745    0.1887559865
 N   -3.9453065838   -1.5112707253   -0.3148196022
 O   -3.3361686256   -3.4305055618    0.7393152968
 H    0.8658245440    1.9577398276    0.0446519770
 H   -0.6986537036    1.9267681652   -0.7889638763
 H   -0.6287744822    1.8987726796    0.9826750248
 H    0.4208481560   -0.3405742443   -0.8667596690
 H    0.5121537299   -0.3719223937    0.8803015310
 H   -2.0719486432   -0.0812761650    0.6641701566
 H   -0.3141599207   -4.6174427775    0.5774746272
 H   -1.6821995454   -4.5029176015   -0.5346909948
 H   -0.0033194690   -4.4330860432   -1.1447745648
 H   -3.6481040985   -0.7840151296   -0.9443335931
 H   -4.9061519429   -1.8158409488   -0.3433556961