17

 O    0.0897541072   -0.0167352181    0.1580931956
 C    0.0249157750    1.1752505549   -0.0045347887
 C   -1.2627291076    1.9762544788   -0.2618806090
 C   -0.7917123738    3.2317237232   -0.9878316941
 C   -1.3975504312    3.7145477618   -2.2333966941
 O   -1.6325816151    4.3850556958   -0.9889191405
 C    0.6752525987    3.4184383953   -0.6892328044
 C    1.0532024645    3.3864571241    0.7568868356
 C    1.1851608226    2.1183652346   -0.0749451302
 H   -1.9800938567    1.3755669122   -0.8232941038
 H   -1.7336275190    2.2363010289    0.6937623249
 H   -0.7933462144    4.2659803555   -2.9534808789
 H   -2.2556555919    3.1916472711   -2.6543715853
 H    1.2813314370    3.9852202757   -1.3858504927
 H    1.9871315535    3.8586469392    1.0387351487
 H    0.2782435508    3.4457701820    1.5131734042
 H    2.1698824005    1.7115232951   -0.2654788272