15

 O   -0.0230419006   -0.0793693082    0.0980236439
 C    0.0534470098    1.1179990156    0.0111161671
 C    1.3413588526    1.9195285231    0.0203073091
 C    1.4200490652    2.9048244807   -1.1832241556
 C    1.9630607471    4.2413799517   -0.6138678865
 C    1.7447081284    4.0950680014    0.8705724833
 C    1.4169637979    2.8520465203    1.2171533445
 H   -0.8620512069    1.7514785275   -0.0784695986
 H    2.1666504919    1.1971756444    0.0309073077
 H    2.0276073810    2.5046181101   -1.9972338687
 H    0.4120674231    3.0642557426   -1.5840349448
 H    3.0306177874    4.3787035787   -0.8341301499
 H    1.4500120830    5.1121401679   -1.0372159846
 H    1.8927936925    4.9133169577    1.5670769066
 H    1.2548107177    2.4996755366    2.2295750765