16

 O    0.1206785427    1.3175613772    0.2215708710
 C    0.0812956369   -0.0209765673   -0.0014776896
 C    0.0740370731   -0.7853179381   -1.1493504998
 C    0.0230185915   -2.1399484349   -0.6947838624
 C    0.0022509107   -2.1372962811    0.6630144849
 C   -0.0511393974   -3.5141777050    1.2281472977
 O   -0.0601488524   -4.3362453196    0.0537567967
 C   -0.0159076572   -3.5589978457   -1.1617316943
 N    0.0382056639   -0.8337700314    1.1058343441
 H    0.1546118832    1.7645700081   -0.6293340832
 H    0.1015018082   -0.4103416933   -2.1606479765
 H    0.8185900713   -3.7779258210    1.8517923252
 H   -0.9546277766   -3.7202384349    1.8249362471
 H   -0.9014353653   -3.8012397401   -1.7682117930
 H    0.8704425803   -3.8588677374   -1.7406444934
 H    0.0343288672   -0.4944360555    2.0517672156