14

 C   -0.0515215049    1.4505028481    0.0494460068
 N   -0.0768810608    0.0010741257   -0.0621552942
 C    0.5949651875   -0.6249858719   -1.0765406047
 N    1.1283048156    0.0790230252   -2.0271507646
 O    1.7116999147   -0.6549951022   -3.0636608958
 C    1.7819401757   -2.0336089616   -3.0885351141
 O    2.3180003634   -2.5561217577   -4.0204132008
 N    1.2169382357   -2.7513366465   -2.0158806997
 C    0.6582927381   -2.0785906607   -1.0838936890
 H    0.9640961689    1.8413392115    0.1940936677
 H   -0.4485694386    1.8916214918   -0.8681254524
 H   -0.6799557032    1.7479630146    0.8902985623
 H   -0.1434211526   -0.5176337445    0.7993019680
 H    0.2067694904   -2.6260307420   -0.2521974597