18

 C    0.2950532670    0.8962244217    0.4846019978
 O   -0.4020149070   -0.0580311268   -0.3027590679
 C    0.3585242490   -0.5811842649   -1.3319613260
 C    1.4703486352   -1.6183241147   -1.0962659719
 C    0.9948535346   -2.5090572864    0.0354225721
 O    1.4029393115   -2.8200689258    1.1174911313
 N   -0.1854719870   -2.8582560299   -0.6538656339
 C    0.1409917570   -1.9804968339   -1.7905226793
 C   -0.1445931425   -2.4219588826   -3.1930506059
 H    1.1725125655    0.4467499962    0.9666707488
 H    0.6199674823    1.7545311829   -0.1211421468
 H   -0.4009073862    1.2436998823    1.2504048308
 H    0.6128924539    0.1368320037   -2.1172068709
 H    2.4705316860   -1.5153932576   -1.4944655615
 H   -1.0857508427   -2.8113085191   -0.1874180791
 H   -1.2234044891   -2.4331198341   -3.3859194407
 H    0.3150672354   -1.7411288953   -3.9152734078
 H    0.2412295373   -3.4307942757   -3.3657950391