15

 O   -0.7301324338    0.9351367354    0.6872773841
 C    0.2167262659    0.8170678857   -0.0506503220
 C    1.3918588838    1.7437058280   -0.0591016728
 C    1.5157248873    2.8225810117    1.0471531711
 N    1.8038389440    3.8750062371    0.0346321322
 C    1.5298186077    2.9515567825   -1.0813746848
 C    2.8422324316    2.2501415287   -1.5355451960
 O    3.7343397999    2.4873884122   -2.2953530653
 N    2.6205007460    1.2106739452   -0.6391628789
 H    0.2750456230    0.0093947067   -0.8129855295
 H    0.5563524810    2.9389498781    1.5598435160
 H    2.3132746855    2.6765220408    1.7816926643
 H    1.1726677543    4.6649302985    0.0731462279
 H    0.7848527379    3.2317228944   -1.8263303866
 H    3.2924335258    0.5712558250   -0.2355000997