19

 O    0.2559614286    0.4145020351   -0.8935719715
 C    0.2966057230    1.5855084891   -0.6615955185
 O    0.8279354784    2.0887221588    0.4650933640
 C    0.8875253526    3.5205890852    0.6043865162
 C    2.2820833009    4.0160152330    0.3164857251
 C    2.8161868456    4.3973176320   -1.0401395224
 C    1.7711629364    5.1236569152   -1.8978324099
 C    1.6043078830    6.1929511722   -0.7703789016
 C    2.6558657364    5.4514166626    0.0684917919
 H   -0.1064561425    2.3685717924   -1.3343217792
 H    0.1366937786    3.9864316008   -0.0431262106
 H    0.6079788254    3.7248572201    1.6418750781
 H    3.0250056982    3.4948420757    0.9165542235
 H    3.7246466915    3.9473829222   -1.4219677948
 H    2.2059245326    5.5523194729   -2.8027508520
 H    0.8828495840    4.5536646848   -2.1898827636
 H    1.9499433861    7.1776528492   -1.0908359786
 H    0.6106704016    6.3111921737   -0.3261188725
 H    3.4221502095    5.9339324350    0.6636268863