17

 C    0.1149664730    1.5182843280    0.1205031664
 C    0.0565568871    0.0645726481    0.0852723950
 C    0.0130288007   -1.1393364244    0.0700012242
 C   -0.0263875901   -2.5750935795    0.0167886944
 N   -0.6556032271   -3.2960606715    1.1521746756
 C   -1.3002373527   -3.3438430655   -0.1557879295
 C   -2.6341092394   -2.6261300807   -0.2704143504
 C   -3.7497988582   -3.4759034214    0.1440777392
 N   -4.6220916271   -4.1643454473    0.4605771749
 H    1.1506083175    1.8727860334    0.0797425102
 H   -0.4220158938    1.9611391824   -0.7254644753
 H   -0.3333395841    1.9079193860    1.0408391778
 H    0.8520203567   -3.0367437574   -0.4303753601
 H   -0.1510575706   -4.1578269950    1.3416925824
 H   -1.2316473407   -4.2646345624   -0.7313316838
 H   -2.6118967323   -1.7258039447    0.3498820391
 H   -2.8009368090   -2.3068182981   -1.3057972001