15

 O    0.1255597294    1.3922077432    0.0189660895
 C    0.1145366912    0.0182027360   -0.0211000332
 C   -1.1546359817   -0.7166675595    0.2507679001
 O   -2.2188859304    0.1350431409    0.5394283753
 C   -3.4645586386   -0.2510745081    0.1266429091
 N   -4.4569108009    0.4241517936    0.4936628580
 C   -0.5808048226   -0.7326673369   -1.1784526884
 C   -1.2356815818    0.0133914382   -2.2072960314
 N   -1.7768459250    0.6108832973   -3.0374056013
 H   -0.7730135081    1.6959350370    0.2093393868
 H    1.0488989933   -0.4160802778    0.3187784121
 H   -1.1485751485   -1.6520885024    0.8042810392
 H   -3.4493660991   -1.1433559989   -0.5082819343
 H   -5.3135579031    0.0383826090    0.1022570097
 H   -0.1286631644   -1.6647669318   -1.5016007814