19

 C   -0.8393214312    1.1807947625   -0.0961053409
 C    0.0216086168   -0.0702203754   -0.0532250424
 C    1.3976087733   -0.0570776808   -0.7152883155
 O    1.9399502948    0.6638330755   -1.5108105147
 C    1.9944192840   -0.9844987302    0.3351158845
 O    3.3164623628   -0.7552365921    0.7206064769
 C    0.7767183837   -0.5306740781    1.2448981278
 C    1.1527565869    0.5846175602    2.2095953315
 O    0.0704220122   -1.5754120326    1.8789106857
 H   -0.2835982605    2.0629616485    0.2330836733
 H   -1.1814055091    1.3702023851   -1.1177088630
 H   -1.7213713182    1.0697456030    0.5415341621
 H   -0.5395919120   -0.9444243898   -0.4053300780
 H    1.8336297975   -2.0426696683    0.0862387278
 H    3.6599892268   -0.0617511619    0.1419410650
 H    1.6502091716    1.4138522496    1.6977882585
 H    0.2632011132    0.9696571459    2.7152679846
 H    1.8547187346    0.2089552492    2.9615409376
 H    0.5715129526   -1.8503300902    2.6550277492