18

 C    0.0179631391    1.4405262682   -0.1115936421
 C   -0.0950637927   -0.0515306485   -0.1066949161
 C    0.5869688019   -0.9652806682   -1.1434846488
 N    1.0632260844   -0.9495518789    0.2623663174
 C   -0.0455255695   -1.9763374543    0.5259966489
 C   -1.1477333409   -0.9283350550    0.6761977948
 C   -2.3658660968   -1.6044490744   -0.0496038608
 C   -1.6348499606   -2.1594706769   -1.2772959237
 C   -0.3208476524   -2.1655749770   -0.9786386392
 H    0.9757662947    1.7506741422   -0.5409052906
 H   -0.7845448486    1.8956845560   -0.7034044864
 H   -0.0385625735    1.8449622886    0.9053963731
 H    1.1715484108   -0.5692158439   -1.9676310222
 H    0.1417388300   -2.8053174911    1.2061984813
 H   -1.3479566815   -0.5161725254    1.6702195119
 H   -2.8431657579   -2.3221827487    0.6326876742
 H   -3.1534075290   -0.9187034317   -0.3830617696
 H   -2.0245379674   -1.9922473410   -2.2765351221