18

 C    0.1718867373    1.4971197692    0.1511582740
 C   -0.0688516991    0.0091986605   -0.1361251057
 C    0.6593168765   -0.4802465968   -1.3558190704
 C    0.4000655190   -0.1645154938   -2.8321289142
 N    1.2731898944   -1.3584257726   -3.1987989434
 C    1.0777403460   -1.8453890112   -1.7556735531
 C    2.1741066192   -0.8836269610   -1.3098070346
 C    2.5997946755   -0.8436751098   -2.7345478911
 O    3.5853298789   -0.6174259315   -3.3597452012
 H    1.2324965425    1.6969053559    0.3328316049
 H   -0.1432463319    2.1190178769   -0.6930272995
 H   -0.3901543505    1.8206841310    1.0317351611
 H    0.2295127776   -0.5925574313    0.7311497561
 H   -1.1424329816   -0.1719065208   -0.2776033708
 H   -0.6360184695   -0.3570607994   -3.1244191030
 H    0.7413240676    0.7856270976   -3.2574992618
 H    0.8709700920   -2.8615745555   -1.4552315870
 H    2.7438087662   -0.8591006476   -0.3903288003