19

 O    0.1302227383    1.5022021123    0.4670945384
 C    0.0102098753    0.1328236747    0.2599710830
 C   -0.4922292434   -0.8356179618    1.2853129473
 C   -1.6690132830   -0.2068612268    2.0430824239
 C   -2.4826343824   -0.1648683254    0.7069914659
 C   -3.2180023752    1.0671883915    0.2447383870
 C   -3.6526434831    2.1339122433    1.1570125342
 O   -2.5259957232    2.3276661443    0.2913654414
 C   -1.2383733766   -0.6412548766   -0.0654007689
 H   -0.7426701662    1.9221686458    0.4299686932
 H    0.8710220176   -0.2433246980   -0.2902606951
 H    0.0817756217   -1.6872946558    1.6303949749
 H   -2.1269704156   -0.8477341052    2.7974312740
 H   -1.4294675794    0.7611559338    2.4933704432
 H   -3.2165478874   -0.9787626577    0.7223896181
 H   -3.7858571807    0.9378081918   -0.6783039244
 H   -4.5217367945    2.7414632892    0.9127665372
 H   -3.4162023964    2.0597474263    2.2159983239
 H   -1.2852095258   -1.3006428858   -0.9258106872