21

 O   -0.1118841398   -0.0581233321   -0.0343367472
 C   -0.1093462741    1.1385017592    0.0058007898
 C   -1.1996800534    2.2131118840    0.1817760936
 C   -0.0708178580    3.1403019811    0.7369446377
 C    0.0061682941    3.1372354867    2.2731086956
 C    1.4490825761    3.1767956917    2.7949689683
 C    2.2276171420    1.9500335114    2.2994553475
 C    2.3372787243    1.9361416433    0.7670713665
 C    1.0001257307    2.2002496720    0.0781609159
 H   -1.5858194067    2.5411953981   -0.7888919432
 H   -2.0408389030    1.9694016814    0.8352755834
 H   -0.0716099044    4.1618366271    0.3510770450
 H   -0.5822975531    3.9705474164    2.6724553335
 H   -0.4640679684    2.2215352085    2.6581696864
 H    1.9493818553    4.0956805786    2.4580535552
 H    1.4452243561    3.2063790984    3.8900136276
 H    3.2316045727    1.9270423591    2.7364254823
 H    1.7156753848    1.0413601547    2.6432503642
 H    3.0526343888    2.7086299399    0.4572285089
 H    2.7392593620    0.9789296829    0.4160196423
 H    1.1670724139    2.5295667576   -0.9565514635