21

 C   -0.0200570979    1.6307688729   -0.0288345834
 C   -0.1687968107    0.1054087316   -0.0488272699
 C    0.6552419329   -0.5426787334   -1.1514614029
 N    2.1642265806   -0.3752583416   -1.0887880292
 C    2.6561316988   -1.1786289710    0.0496200334
 C    2.3011249124   -1.8873074578   -1.1945157148
 C    0.8047997751   -2.0698052147   -1.2615557821
 C   -0.0603895478   -3.1673976114   -0.7747713318
 N    0.1430186508   -2.9368968073   -2.2223420169
 H    1.0260979966    1.9162037508    0.1138678544
 H   -0.3566661431    2.0726736073   -0.9729941940
 H   -0.6095029685    2.0750562601    0.7786214328
 H    0.1074198828   -0.3104461404    0.9268574949
 H   -1.2219467149   -0.1657690216   -0.2038742301
 H    0.3483387915   -0.1307103883   -2.1212281707
 H    3.7074385903   -1.0008631478    0.2542449491
 H    2.0406225122   -1.3088685606    0.9360819741
 H    3.0202382823   -2.3566987023   -1.8570379415
 H    0.3784660989   -4.0852542947   -0.3924604595
 H   -1.0188780613   -2.9046280582   -0.3332994608
 H   -0.6673670311   -2.4701521914   -2.6244738210