17

 C   -0.2415170030    0.8701362655    0.8961306394
 O   -0.5072632210   -0.4672200273    0.4507635726
 C   -1.3785780248   -0.5710375456   -0.5782788709
 O   -1.8845351570    0.3754009037   -1.1233746403
 C   -1.6459921624   -2.0297670685   -0.8980206027
 C   -2.7152302588   -2.5932060249    0.0248320361
 C   -2.5968130012   -3.9770723685    0.5459270037
 N   -2.4160774317   -2.8242189229    1.4443477953
 H    0.4798731276    0.7755685582    1.7076507167
 H    0.1725171838    1.4703409364    0.0823698649
 H   -1.1587553705    1.3452942423    1.2525582421
 H   -1.9759696608   -2.0902838157   -1.9381930344
 H   -0.7193317255   -2.6004733810   -0.7835240861
 H   -3.7088158108   -2.1842586520   -0.1460707961
 H   -3.4877782496   -4.5694868954    0.7336203257
 H   -1.7244959101   -4.5549342286    0.2496422093
 H   -1.4271701742   -2.6558298356    1.6144133647