21

 C   -0.0912765074    1.5033824011   -0.0183067381
 C    0.0160814539   -0.0038325840    0.0417444616
 C    1.3433980184   -0.6964374422   -0.1956828499
 C    0.7190565164   -0.6981938862    1.1724313264
 C    1.2971356714   -0.0100604628    2.4287850008
 C    0.8940716789   -1.1163390663    3.4328609002
 C    1.3261650031   -2.4286647606    2.7406735576
 C    0.1658125942   -1.9581872671    1.8351635637
 O   -0.4827104709   -1.4079783307    3.0294847302
 H    0.8173700371    1.9842597451    0.3582951403
 H   -0.2432491999    1.8463857267   -1.0476105334
 H   -0.9323202125    1.8669972907    0.5826718222
 H   -0.8558233671   -0.5260586326   -0.3478530781
 H    1.3543185004   -1.6210648775   -0.7656855512
 H    2.2168891390   -0.0703012678   -0.3545366392
 H    2.3776897039    0.1567991087    2.3869331340
 H    0.8021149372    0.9350391186    2.6658202018
 H    1.0165724392   -0.9285054086    4.4995025930
 H    2.3316084720   -2.5093987644    2.3194798854
 H    1.0585052631   -3.3068617274    3.3289344004
 H   -0.4614870804   -2.6295500729    1.2474630122