20

 C   -0.0163712361    1.4679112397    0.0363721655
 C    0.0313430921   -0.0345191796    0.0115857080
 C    0.6066647011   -0.9637153889   -1.1001239892
 C    0.0571966336   -1.9367869201   -0.0131497326
 C    0.0503383539   -3.4400948654   -0.0274528898
 C    0.7070765309   -0.9902061991    1.0421413442
 C   -1.2085258330   -1.0030859504    0.0303653940
 C   -2.0627611753   -1.0300029098    1.2055416049
 N   -2.7501526161   -1.0512862255    2.1360446313
 H    0.9954370458    1.8867174515    0.0208092651
 H   -0.5572397641    1.8614159634   -0.8308778282
 H   -0.5173090276    1.8283259374    0.9408388071
 H    0.0933998154   -0.9581234140   -2.0669136347
 H    1.6925808918   -0.9473559327   -1.2234427693
 H    1.0731552149   -3.8307016509   -0.0533066197
 H   -0.4405038451   -3.8373823659    0.8670490660
 H   -0.4797423662   -3.8254723297   -0.9049530218
 H    1.8002093476   -0.9756340304    1.0641105795
 H    0.2874296108   -1.0090297136    2.0507477910
 H   -1.8192045843   -0.9995713862   -0.8775839011