25

 C    0.1038678020    1.5626141901   -0.0568772874
 C    0.0380951222    0.0333975478   -0.0596782143
 C   -1.3935971212   -0.5052668278    0.0407571535
 C   -1.4557432689   -2.0335198366    0.1138340980
 O   -0.8344064863   -2.5320316489    1.2991302641
 C   -2.8841559293   -2.6261734796   -0.0738581149
 C   -2.8080674346   -4.1571679617   -0.0837600828
 C   -3.8618179762   -2.1406598733    0.9984665839
 O   -3.4182806181   -2.1534524654   -1.3175953084
 H    1.1358998454    1.9180505748   -0.1382956314
 H   -0.4620114772    1.9863336374   -0.8941990478
 H   -0.3177552435    1.9764655481    0.8662814186
 H    0.5024360473   -0.3519743539   -0.9772402408
 H    0.6301589559   -0.3691822891    0.7701645951
 H   -1.8778798313   -0.0822343511    0.9338031616
 H   -1.9895366698   -0.1740251858   -0.8159709380
 H   -0.8436797245   -2.4429547534   -0.7038797919
 H   -1.1913621889   -2.0375184154    2.0447302247
 H   -2.3851746752   -4.5330530803    0.8502292314
 H   -3.8033851183   -4.5860694172   -0.2304784025
 H   -2.1609392071   -4.5044864492   -0.8992844310
 H   -4.0029067735   -1.0586065591    0.9415919346
 H   -4.8367651483   -2.6138192782    0.8547967214
 H   -3.5039802679   -2.4009436135    1.9990932719
 H   -2.9250337227   -2.5772044087   -2.0286425576