14

 N    0.0906703754   -1.0614012176    0.0041592778
 C    0.0113606851    0.0920339766   -0.0012554463
 C   -0.0550498733    1.5242743911   -0.0334830597
 N   -1.1735347075    2.1852380559    0.6178267724
 C   -1.1874453270    3.3511475931    0.1061605916
 N   -0.1478075983    3.6654669154   -0.8501248861
 C    1.1002838015    3.7597936207    0.0622212875
 C    1.3228089512    2.2762400537   -0.1237036583
 C    0.3451412509    2.2982817916   -1.2588853120
 H   -1.8688063194    4.1355691952    0.4181513999
 H    1.8576169266    4.3578053967   -0.4466645926
 H    0.9094561949    4.1599999999    1.0625503047
 H    2.2364179630    1.7101544733   -0.0001914252
 H    0.3649206869    1.9605003144   -2.2869550336