16

 C   -0.0407106883    1.5526167914   -0.1187014434
 C    0.0156612297    0.0325835359   -0.0283862874
 C    1.3341989860   -0.6758391641   -0.1830748510
 C    0.6806430048   -0.6691915520    1.1846998759
 C    1.2835633384    0.1162267966    2.2865433543
 O    1.1954130753   -0.1819941476    3.4522134564
 C   -1.1574711358   -0.6328466962   -0.5329540550
 C   -2.1484456868   -1.1640475960   -0.9598177839
 H    0.8955085913    2.0142188842    0.2029776056
 H   -0.2249064993    1.8514666590   -1.1547071716
 H   -0.8518597142    1.9517000996    0.4968906093
 H    1.3612933279   -1.6185974572   -0.7152744745
 H    2.2117084804   -0.0501691233   -0.3149051235
 H    0.1970144141   -1.5811214106    1.5142924923
 H    1.8572076138    1.0163174774    1.9695284419
 H   -3.0217732674   -1.6381977669   -1.3342081756