19

 O   -0.1523804729    1.4149305632   -0.1582318948
 C    0.0025933584    0.0155841088    0.0258924796
 C    0.5580288350   -0.4040053968    1.4350983401
 O   -0.5002934312   -1.0144693562    2.1716813917
 C   -1.3584920663   -1.6242034712    1.2039606371
 C   -2.8434696136   -1.6975176369    1.5887297465
 C   -3.5916229125   -1.2370123125    0.2996405535
 C   -2.5495341537   -0.4000271264   -0.4207524943
 C   -1.3376015781   -0.6464971753    0.0623808457
 H    0.7205972334    1.7929799903   -0.3033700325
 H    0.6511467310   -0.3986744864   -0.7614681998
 H    1.3953658231   -1.1099623507    1.3151936443
 H    0.9083958058    0.4689216575    1.9934633724
 H   -0.9533635105   -2.6155133313    0.9307456871
 H   -3.1583911028   -2.6824704130    1.9412916665
 H   -3.0129616515   -0.9756432641    2.3932719123
 H   -3.9135352220   -2.0947882774   -0.3073320621
 H   -4.4989607647   -0.6658708552    0.5245822225
 H   -2.7939065468    0.3291476736   -1.1841728859