17

 C    0.2975531701    1.1456154122   -0.3412975909
 O   -0.1078803733    0.2947091418    0.7357315576
 C    0.7392879901   -0.7246906136    1.0015774154
 O    1.7680522780   -0.9362994994    0.4002765818
 N    0.2374273544   -1.4561415639    2.0465446337
 C    0.7739099572   -2.5949060487    2.6575871439
 N    0.1126359077   -3.0961117984    3.6179019502
 C    2.0903749173   -3.1253468055    2.1204402343
 O    2.4218912312   -4.2650374855    2.8889007650
 H    0.3810487667    0.5794747102   -1.2722803271
 H   -0.4820198877    1.9027681478   -0.4250135943
 H    1.2613410266    1.6128969180   -0.1244411656
 H   -0.6387199804   -1.1511809953    2.4468678067
 H    0.6098867347   -3.9133294159    3.9703534155
 H    1.9794592152   -3.3574993935    1.0531530078
 H    2.8529246424   -2.3384319595    2.1873179636
 H    3.2564554797   -4.6110119709    2.5621336327