20

 C    0.0511801380    1.4118740396   -0.2571983431
 N    0.0089763339   -0.0149646057    0.0437296074
 C   -1.2014970915   -0.5015313300    0.7885045652
 C   -1.2931614747   -1.9958725038    0.4743892226
 O   -0.1626177778   -2.6878088700    1.0026201330
 C    1.0605607297   -1.9521150553    1.0162348004
 C    0.7890470636   -0.4652401374    1.2476680600
 C   -0.4604615650   -0.3241412139    2.1459026268
 O   -0.5239373581    0.9682451591    2.7130679743
 H    1.0434434795    1.6589870820   -0.6506822991
 H   -0.6765876771    1.6254022091   -1.0482591616
 H   -0.1572034063    2.0664594113    0.5999025640
 H   -2.1369731073    0.0370371191    0.6074380422
 H   -2.1694533951   -2.4578426350    0.9439425775
 H   -1.3626778696   -2.1237151183   -0.6152939938
 H    1.6589028423   -2.3867282969    1.8249221420
 H    1.6023558668   -2.0670458044    0.0668941609
 H    1.6836167295    0.1105709832    1.4980280622
 H   -0.6219583616   -1.1027923546    2.9026691695
 H   -1.4043465493    1.0874278718    3.0844381194