18

 O    0.0929270136    1.3680850263    0.1190572823
 C    0.0750689942   -0.0419710609    0.0139275764
 C   -1.3531777509   -0.5735897563   -0.0519012666
 C   -1.5103766215   -2.0815688338   -0.0198052821
 C   -1.5498813263   -2.5386856676    1.4227448468
 C   -2.8347153245   -2.4160509648    0.6290828286
 C   -3.1811879261   -1.1172754498    1.4166008555
 C   -1.9177851045   -1.2404277856    2.1928513740
 N   -2.0744856229   -0.1793322469    1.1748452532
 H   -0.5637648913    1.5881127360    0.7917729076
 H    0.6184052693   -0.3016441361   -0.9010678813
 H    0.5994076092   -0.5200434658    0.8581685353
 H   -1.8672640960   -0.1240834986   -0.9092187212
 H   -1.1046837909   -2.7322741848   -0.7846857264
 H   -1.0577264689   -3.4153130512    1.8170340323
 H   -3.5196650884   -3.1807701421    0.2936204848
 H   -4.1625209794   -0.7438290862    1.6784712178
 H   -1.6641048549   -0.9769356820    3.2109451030