18

 C    0.4182774821    1.4255140395    0.2579564519
 O    1.1231604957    0.2827827807   -0.2381679726
 C   -0.2539207219    0.1261537069    0.1162834377
 C   -0.5628162265   -0.7139659406    1.3046756066
 C   -1.8924727859   -0.8029093711    2.0693320302
 C   -0.8877202526   -1.6310371764    2.8696933942
 C   -0.1697326314   -2.2021754476    1.6124278193
 C    1.1624276501   -1.7239600641    2.1796935005
 N    0.2427628323   -0.5890646717    2.6337245959
 H    0.7105753215    1.7520381782    1.2531114127
 H    0.2321145410    2.2097524569   -0.4738394585
 H   -0.9212762467   -0.0227725567   -0.7348375038
 H   -2.2398440846    0.1225427921    2.5369041335
 H   -2.7070960776   -1.3456387479    1.5830041086
 H   -0.9902574379   -2.1059739120    3.8464132623
 H   -0.4296186064   -3.0963272833    1.0357386396
 H    1.5845678842   -2.2876697192    3.0185039226
 H    1.9392272545   -1.4023115437    1.4851190492