21

 C   -0.0277752601    1.5135979633    0.0406567254
 C   -0.0399723903   -0.0194903749    0.0791162702
 C   -1.4216176034   -0.6040333154   -0.0519806179
 C   -2.3409568479   -0.4562447822   -1.2953637959
 C   -3.0965156910   -1.6111843959   -0.6294033024
 C   -3.2742806921   -1.2090973436    0.8966231765
 C   -2.4526913637   -2.4540547607    1.2999311187
 C   -1.7520799869   -2.1652020670   -0.0349292190
 O   -2.3050551464   -0.1573208038    1.0018728575
 H    0.9881425906    1.8988814058    0.1681825333
 H   -0.4108097852    1.8894911303   -0.9137559627
 H   -0.6540030467    1.9228484951    0.8374657680
 H    0.5840060181   -0.4235421095   -0.7271749902
 H    0.3958473359   -0.3718918867    1.0222291186
 H   -2.8329781212    0.5090644429   -1.4391558233
 H   -1.8545854013   -0.7877027196   -2.2177335428
 H   -3.8540437397   -2.2294743758   -1.1072449186
 H   -4.2194709609   -0.9220986507    1.3551222980
 H   -1.8971508962   -2.3959082918    2.2394882715
 H   -3.0318556499   -3.3804180281    1.2458618657
 H   -1.0842191918   -2.8468703417   -0.5590553905