15

 C    0.1133757935    1.6088049315   -0.0252242631
 C    0.0085368818    0.0703353331   -0.0443972073
 C   -1.4681352798   -0.4000279629   -0.0100377836
 C   -2.1456261888   -0.0577278452    1.2986241649
 O   -3.2184657504    0.4760277560    1.4048056748
 C    0.7001437960   -0.4933325744   -1.2010424360
 C    1.2542031749   -0.9474465680   -2.1662212903
 H    1.1590433697    1.9252069837   -0.0189574903
 H   -0.3680911203    2.0366884256   -0.9092850162
 H   -0.3781560586    2.0178825892    0.8630519853
 H    0.4989343942   -0.3157325961    0.8613941687
 H   -2.0409446466    0.0282753995   -0.8368296907
 H   -1.4917121700   -1.4934187030   -0.1107397116
 H   -1.5638651097   -0.3587268778    2.2035332287
 H    1.7525424442   -1.3522448612   -3.0120940233