19

 C   -0.0263406316    1.5424929851   -0.0578448791
 C   -0.0378873249    0.0444619109    0.0952303231
 O    1.2326490983   -0.6309217846   -0.0268574363
 C    0.5785295295   -0.6428899749    1.2311783918
 C    1.2661711741   -0.1089488453    2.4987221509
 C    0.8798548985   -1.4174480927    3.2133547390
 C   -0.5908333249   -1.6363388496    3.1594220745
 O   -1.4548438756   -0.5393608884    3.2587787358
 C    0.2035262709   -1.9416356043    1.9162987127
 H    0.8013250650    1.9842496358    0.5026614375
 H    0.0815525216    1.8257095279   -1.1101945805
 H   -0.9645512423    1.9695256491    0.3130087156
 H   -0.8489207250   -0.4712707768   -0.4243702870
 H    2.3431454551   -0.0234698626    2.3385369141
 H    0.8776382138    0.8135605840    2.9362306131
 H    1.5128940739   -1.9486188748    3.9131382772
 H   -0.9289515002   -2.5254612696    3.6937437315
 H   -2.2181372228   -0.7103490193    2.6972453503
 H    0.2305796666   -2.9209129298    1.4529717758