23

 O   -0.2166731628    1.6366395097   -0.0218781077
 C    0.0767102225    0.2538337416   -0.0070293636
 C    1.0915707989   -0.2773922634   -1.0687716876
 C    1.7458495592   -1.1453959833    0.0397604702
 C    1.0411358343   -0.2647327869    1.1067332496
 C   -1.2531050297   -0.4835676382   -0.0333758318
 C   -2.3336282827   -0.1218565039    1.0276813653
 C   -3.4104899669   -0.2526271351   -0.0830755182
 C   -2.2847181946   -0.1320255447   -1.1453477101
 H    0.6151111809    2.1196216256   -0.0068205738
 H    0.6850532541   -0.7774800296   -1.9517694341
 H    1.7590627454    0.5248621770   -1.4016741747
 H    1.3732081667   -2.1726072436    0.0370645252
 H    2.8367250147   -1.1786333098    0.0651770139
 H    1.6927710269    0.5412385065    1.4616060606
 H    0.5942089551   -0.7548853084    1.9756715990
 H   -1.0570613583   -1.5611271195   -0.0237382336
 H   -2.4243371863   -0.7693922177    1.9034964673
 H   -2.2160729934    0.9123999014    1.3583535162
 H   -3.8703739247   -1.2454152492   -0.0887571825
 H   -4.2056689620    0.4962808589   -0.1045874662
 H   -2.1521855410    0.8992442308   -1.4797222657
 H   -2.3359707162   -0.7875268685   -2.0184036377