18

 C   -0.1420529599    1.5279095940   -0.0594354601
 C    0.1407050748    0.0379934308    0.0127810192
 O    0.9940557050   -0.3069764503   -1.0855806698
 C    1.1816423912   -1.6846616807   -1.1630236001
 C    2.5728225531   -2.2012974966   -0.8997349642
 C    1.4959110113   -2.3478984151    0.1437259283
 O    1.5624364554   -1.5179567892    1.2807110255
 C    0.8058866032   -0.3767022755    1.3175891912
 N    0.6894654791    0.3028506476    2.3759836490
 H    0.7921042102    2.0914225795   -0.0020749643
 H   -0.6400129752    1.7596977394   -1.0042414668
 H   -0.7756163574    1.8297360837    0.7748764066
 H   -0.8032634900   -0.5239315528   -0.0804727105
 H    0.5427995942   -2.1947356197   -1.8832076482
 H    2.9059049730   -3.0910504316   -1.4217547952
 H    3.3319581433   -1.4512805855   -0.7108024024
 H    1.0998185155   -3.3304892824    0.3786175381
 H    1.1915365032   -0.1482411356    3.1438931238