16

 C    0.1029611798    1.5208550942    0.0554405800
 C   -0.0789281750    0.0451683407    0.0800435589
 C   -1.1386820569   -0.7902426912   -0.0347582471
 C   -2.6180634740   -0.9578226218   -0.1918403751
 C   -2.7120023351   -2.5178430321   -0.3318447384
 O   -1.4215836654   -3.0950078238    0.0237175899
 C   -0.5560319310   -2.0710377700    0.0917280185
 N    0.7348911157   -2.0821909376    0.2640238914
 O    1.0462330302   -0.6959786642    0.2569025441
 H    0.7905158066    1.8164015617   -0.7437148273
 H   -0.8554413831    2.0175681420   -0.1076533963
 H    0.5249456300    1.8784601249    1.0004444430
 H   -3.1763467707   -0.6051518795    0.6821500630
 H   -3.0392126222   -0.4624860035   -1.0712347863
 H   -3.4589965081   -2.9623200260    0.3284756289
 H   -2.9311680908   -2.8123661638   -1.3627848673