14

 C   -0.0676945734    1.4406905877    0.0091533403
 O   -0.0260549176    0.0015933195    0.0051441619
 C   -1.1712040566   -0.6559199429    0.0118962327
 C   -1.2072186699   -2.0345411712    0.0084687065
 C   -2.4853260786   -2.6001109296    0.0165493314
 N   -3.6324951987   -1.9485156964    0.0268543496
 C   -3.6398302147   -0.6042957608    0.0302427771
 O   -4.5262219244    0.1849174340    0.0393980617
 O   -2.2618613547    0.0590643958    0.0218891728
 H    0.9756186097    1.7528792604    0.0018571993
 H   -0.5857283351    1.8133983883   -0.8769750556
 H   -0.5718707032    1.8088120154    0.9051432546
 H   -0.2995816189   -2.6172145225    0.0001516820
 H   -2.5719002238   -3.6861184478    0.0143893557