21

 C    0.1407125813    1.4267403939   -0.3344224467
 C   -0.0179000415   -0.0191524010    0.0977307911
 C   -1.1452559612   -0.7227098563   -0.6361421592
 O    1.2048565644   -0.7739043169    0.2058978147
 C    0.4781774810   -0.4904197512    1.4179421511
 C    1.1748744662    0.4393553233    2.3967961589
 C   -0.1199187448   -1.7149968200    2.1106921904
 C    0.9658637497   -2.6845081399    2.5398710569
 O    1.1068501601   -3.1031028675    3.6604473478
 H    0.9499800675    1.9379508436    0.1849931202
 H    0.3513028094    1.4674380159   -1.4085172762
 H   -0.7883050916    1.9799536150   -0.1583519312
 H   -1.0553187112   -0.5365229593   -1.7116214632
 H   -1.1228840835   -1.8028540029   -0.4909346206
 H   -2.1208975899   -0.3420123742   -0.3148801192
 H    1.7997337168    1.1712724651    1.8864638971
 H    0.4430072109    0.9685173642    3.0168267511
 H    1.8187874095   -0.1358530799    3.0705357280
 H   -0.6931612844   -1.4197908896    2.9943639917
 H   -0.7859370109   -2.2586246377    1.4341398739
 H    1.6448768920   -2.9937448246    1.7159473532