16

 O   -0.1105052756    1.4982672694    0.4370253573
 C    0.0543730658    0.1602463332    0.1544188171
 C   -0.8948266312   -0.9819787049   -0.0555639303
 C   -0.3977663724   -1.2093538750   -1.5292495345
 C    0.8631979775   -0.5039557491   -0.9923384668
 C    1.8266912011   -1.3057589519   -0.4928996982
 C    1.6275557566   -1.4810752388    1.0102566842
 C    0.1960529531   -0.9255840019    1.1317327331
 H   -0.4370194088    1.9394708452   -0.3554260908
 H   -1.9356395906   -1.0444527797    0.2535598103
 H   -0.2604270152   -2.2283470688   -1.9016139020
 H   -1.0365398063   -0.6442060199   -2.2186396244
 H    2.2680568102   -2.1119342658   -1.0740126600
 H    1.7252615555   -2.5492026590    1.2405503906
 H    2.3076221804   -0.9472504312    1.6894357491
 H   -0.2844305199   -0.8367397720    2.1043975653