17

 N    0.3447991133    1.2807760078   -0.3222500754
 C    0.0163453830   -0.0660109711   -0.0570373170
 C   -1.0753015296   -0.6727729100    0.5244975496
 C   -0.8126288816   -2.0744294791    0.5586868672
 C    0.4228443830   -2.2835357609   -0.0060360042
 C    1.2237868792   -3.5433914662   -0.1878347094
 C    2.0247538612   -3.5535707751   -1.4113319772
 C    2.7029031738   -3.5220249815   -2.4035353882
 N    0.9228345364   -1.0509197163   -0.3612426526
 H    0.2102891075    1.5243072368   -1.3001010386
 H   -0.2394411863    1.8999327996    0.2263237289
 H   -1.9671960663   -0.1701831189    0.8670068004
 H   -1.4624593558   -2.8441026547    0.9479217596
 H    1.8985559957   -3.7067771698    0.6666756242
 H    0.5352049451   -4.3962744199   -0.1886593421
 H    3.2911699353   -3.5192152993   -3.2875062182
 H    1.8138163062   -0.8939872313   -0.8023133172