18

 C    0.0327121517    1.5619178028   -0.0795317562
 C    0.0093423636    0.0321424380    0.0929974745
 C   -1.3416530650   -0.5147684703    0.1727542393
 C   -2.4682496919   -0.9355666733    0.2415272726
 C   -3.8167837097   -1.4840201134    0.3141074715
 C   -3.9133315107   -2.9081977802   -0.2832386206
 C   -5.3385239985   -3.4121098514   -0.3032193068
 O   -5.7043569588   -4.4701975696    0.1376744580
 H    1.0637022521    1.9239730468   -0.1334649277
 H   -0.4850936994    1.8577866641   -0.9959724463
 H   -0.4625342049    2.0550825208    0.7612526909
 H    0.5433497280   -0.4383937973   -0.7426427576
 H    0.5671960495   -0.2427044847    0.9974665001
 H   -4.1544065005   -1.5078994954    1.3582647585
 H   -4.5163003109   -0.8227446007   -0.2153102565
 H   -3.5561325790   -2.8755638773   -1.3214778527
 H   -3.2892472940   -3.6151419853    0.2681232019
 H   -6.0646670414   -2.7087950838   -0.7778812929