18

 C   -0.7210836395    1.1566374308    0.0076381758
 N    0.0050881868   -0.1027856630   -0.0164045923
 C    0.4537344709   -0.6438327715    1.2526985689
 C    0.1284717622   -0.7658805077   -1.2116135414
 O   -0.2109422501   -0.2922167505   -2.2850694549
 N    0.7267854605   -2.0263578982   -1.1322483222
 C    0.7287446835   -2.8491645536   -2.3260978946
 C   -0.3371802460   -3.8639429240   -2.3288207730
 N   -1.1611976842   -4.6732485843   -2.2947002521
 H   -0.1015782573    1.9500202891    0.4423867758
 H   -0.9778167313    1.4207639589   -1.0164653179
 H   -1.6408038334    1.0717147433    0.6007427618
 H   -0.2589678123   -1.3569204706    1.6940004549
 H    1.4277594064   -1.1311537312    1.1504044063
 H    0.5771808779    0.1788262370    1.9612354886
 H    0.6815558048   -2.5238963482   -0.2579926822
 H    0.5856075082   -2.1733551237   -3.1734056164
 H    1.6919510430   -3.3574153426   -2.4443985650