19

 C   -0.0746907520    1.3800661734    0.0480706342
 O   -0.0613158377   -0.0258932176   -0.0076145033
 C    0.6678647131   -0.5241284769   -1.1065663455
 C    0.6326591356   -2.0454041652   -1.0383997931
 C    1.3583268484   -2.7181060402   -2.2359719452
 C    2.7842841155   -2.3713575180   -2.2828079615
 C    3.9474554273   -2.0733728771   -2.3130112227
 C    1.1691722285   -4.1722142247   -2.2065423736
 C    0.9889344036   -5.3586676090   -2.1669992324
 H    0.9413260061    1.7959061159    0.1397839788
 H   -0.5443757854    1.8209496373   -0.8459283986
 H   -0.6546470841    1.6672608317    0.9284956775
 H    0.2239142662   -0.1720376697   -2.0556056715
 H    1.7075870596   -0.1609419749   -1.0822697944
 H    1.0901100973   -2.3822697946   -0.1041013605
 H   -0.4079014073   -2.3824111070   -1.0352490022
 H    0.8927024549   -2.3397443629   -3.1588570129
 H    4.9781754668   -1.8194332889   -2.3449259956
 H    0.8391451436   -6.4095969118   -2.1390512975