19

 C   -0.3132837057    1.4756413807   -0.0296229220
 C    0.1586472596    0.0119650634    0.0234941026
 C    0.8589423417   -0.4423845616   -1.2225605238
 C    2.1063414219   -0.9197776087   -1.3132665404
 C    2.4174442325   -1.3714506953   -2.6984360198
 N    1.5315354073   -2.4916574315   -3.1433244039
 C    1.1969900712   -1.0960110659   -3.5035156466
 C    0.1683171247   -0.4515637129   -2.5826822405
 H    0.5322256500    2.1539966641   -0.1825037634
 H   -1.0245797397    1.6393365963   -0.8453062595
 H   -0.8094514891    1.7574154435    0.9041058065
 H    0.8248705629   -0.1278796215    0.8822222063
 H   -0.7141380903   -0.6322075231    0.2029189462
 H    2.7953853538   -1.0238323337   -0.4827574260
 H    3.4214869547   -1.3127944727   -3.1051562544
 H    1.9559909851   -2.9299938986   -3.9600660697
 H    1.2477617762   -0.8025033834   -4.5464749021
 H   -0.7695395879   -1.0204183200   -2.5550798145
 H   -0.0837235789    0.5633912407   -2.9170247451