15

 N    0.0952085987    1.2174807768    0.5139556484
 C   -0.0299929587    0.0908588325   -0.2213303998
 O    0.7854431533   -0.2944651951   -1.0318235618
 C   -1.3494980575   -0.7160273294   -0.0236267724
 C   -1.0483180722   -2.2291105253   -0.0283903553
 C   -2.2598925099   -3.0733453583   -0.3635891410
 O   -2.5368742763   -4.1103801085    0.1746427415
 C   -2.1153114804   -0.2953689145    1.1477641365
 N   -2.6874902186    0.0767750219    2.0813094875
 H    0.9358546696    1.7615317651    0.4057909460
 H   -0.5686876723    1.4740827928    1.2255473627
 H   -1.9528064388   -0.4819984206   -0.9125433947
 H   -0.3000896902   -2.3781603829   -0.8181376457
 H   -0.6209543312   -2.5638950521    0.9192487551
 H   -2.8856410656   -2.6671159324   -1.1942762970