19

 C    0.0487175956    1.5284236020    0.1956744972
 C    1.5812461507    1.3505917286    0.0077426016
 O    2.2262572084    0.9949691254    1.2169821713
 C    1.4176479877    0.1574481414    2.0400943816
 C    0.5732100581   -0.8099389763    1.1959135793
 C    1.4752248106   -1.8083389372    0.4493796806
 O    2.0199125441   -1.0858123772   -0.6582483934
 C    1.2349192280    0.0642202449   -0.8412301204
 C   -0.0507370431   -0.0084886529    0.0126184636
 H   -0.3040065085    1.9875063029    1.1211150095
 H   -0.3961999607    2.0545309208   -0.6527151447
 H    2.1730438335    2.1478787692   -0.4440576179
 H    2.1025116950   -0.3797221990    2.7035968022
 H    0.7576870365    0.7693624796    2.6717780917
 H   -0.1672786010   -1.3104899022    1.8261688036
 H    2.2989866377   -2.1813696810    1.0670067762
 H    0.8997209336   -2.6716095995    0.0833903024
 H    1.1129844177    0.2763013101   -1.9063360082
 H   -0.9623871540   -0.4568929198   -0.3864663361