22

 C   -0.7501800812    1.6139595113   -0.7984977436
 C   -0.1013114177    0.3577764063   -0.2245305522
 C   -1.1564203729   -0.7242368768    0.0975389189
 C   -2.1450832906   -0.2960230610    1.1778398526
 N   -3.4157917017   -0.0424403745    0.7428139442
 O   -1.8328200075   -0.1857303968    2.3495748091
 C    1.0698517504   -0.2532787402   -1.0608499290
 C    1.9016032952   -0.3992431741    0.2410456347
 C    0.9137899811    0.5662420035    0.9480736771
 H    0.0088515274    2.3617158582   -1.0495320060
 H   -1.3096040616    1.3901317962   -1.7161469673
 H   -1.4449985873    2.0727474169   -0.0863707645
 H   -1.6793090055   -1.0021737252   -0.8262325929
 H   -0.6561140304   -1.6231129300    0.4715237717
 H   -3.6627315928   -0.0521993345   -0.2304361321
 H   -4.0847491852    0.3077982021    1.4094061419
 H    0.8520810694   -1.1620473197   -1.6305839024
 H    1.4990650527    0.4857537037   -1.7442343053
 H    1.8617380595   -1.4119536276    0.6513738550
 H    2.9495986237   -0.0952523115    0.1946552349
 H    1.2884370253    1.5940860172    0.9673093714
 H    0.5577390596    0.3017767165    1.9435668941