18

 C    0.8470798006    1.2510403360   -0.2025550909
 C   -0.0769268818    0.0399387025    0.0348052185
 O   -1.4128285473    0.4712290057    0.1601096253
 C    0.0092642554   -0.9611069172   -1.1334813273
 N    1.2718190494   -1.6921725245   -1.2189552487
 C    1.8576628449   -1.9329072771   -0.1216933857
 N    1.4258319105   -1.5284256705    1.1434985044
 C    0.3583088434   -0.6657361500    1.3184245371
 N   -0.2416165031   -0.3869658024    2.4061877424
 H    1.8820562506    0.9498581296   -0.3895275283
 H    0.4814276881    1.7987461498   -1.0754320749
 H    0.8207419022    1.9183049420    0.6629419130
 H   -1.5869064494    0.5028333169    1.1143626805
 H   -0.8118893613   -1.6838361191   -1.0317138494
 H   -0.1570059220   -0.4295017661   -2.0751440005
 H    2.7804309871   -2.5118970495   -0.1033075247
 H    1.8790546921   -1.9145823579    1.9584410501
 H    0.1199431007   -0.8935996181    3.2143020193