14

 O    0.0682666160    1.4117209992   -0.0539630004
 C    0.0636792495    0.0099922295    0.0602977272
 C   -1.3610945638   -0.5451731041    0.0781141043
 O   -2.0103698246   -0.2544645655   -1.1759323139
 C   -2.4035404548   -1.3950548543   -1.7797134415
 O   -2.9529563383   -1.4786151672   -2.8247661951
 O   -2.0679650200   -2.4796164566   -0.9917436660
 C   -1.4330411799   -2.0497446951    0.1555331020
 N   -0.9824922535   -2.7726913387    1.0739603170
 H   -0.3226297688    1.6387850324   -0.9052249519
 H    0.6291180845   -0.4788356732   -0.7478850283
 H    0.5406869365   -0.2475732865    1.0096875777
 H   -1.9350852104   -0.0669085714    0.8769674381
 H   -1.1392129424   -3.7648849484    0.8944749507