19

 O   -0.0173645481    1.3650495397   -0.0916858600
 C   -0.0019205300   -0.0240198511    0.0446102277
 C   -0.3277119989   -0.9106941287   -1.1268927576
 C   -1.3030185573   -0.7910874309    0.0270391400
 C   -1.2967633965   -1.8598345774    1.1175878575
 C    0.0973825028   -1.7948997035    1.7852040675
 C    1.2438913762   -2.6819373387    1.2555340181
 O    1.9123628485   -1.5520325662    0.6543287025
 C    0.8868851850   -0.6364894622    1.1217409751
 H    0.7434600901    1.6199030122   -0.6252395589
 H   -0.6123666951   -0.4013076494   -2.0413074366
 H    0.2500949632   -1.8172799809   -1.2673356827
 H   -2.2249730980   -0.2561160283   -0.1715782794
 H   -2.0770179814   -1.6369063195    1.8523444823
 H   -1.5113585852   -2.8608913159    0.7246870923
 H    0.0293828179   -1.7677410937    2.8733281377
 H    1.8657299010   -3.1528686162    2.0265430551
 H    0.9623262146   -3.4419285384    0.5144901642
 H    1.3070387812    0.1488244092    1.7587133954