17

 C   -0.0272194963    1.5530415151    0.0287373140
 C    0.0301743279    0.0485376878    0.0307381068
 C    0.9348322488   -0.8146289319   -0.9315189813
 C    0.5673377806   -1.9053071088    0.0951732137
 C    0.6511328700   -0.8226536170    1.1904185302
 O   -0.8739430440   -2.0395176795   -0.0980258031
 C   -1.2643752825   -0.7173120731   -0.1452331254
 N   -2.4317361806   -0.2710755636   -0.2995896670
 H    0.9680683183    1.9871758873    0.1639489261
 H   -0.4422889911    1.9197946067   -0.9147127461
 H   -0.6767346563    1.9131688929    0.8320566033
 H    0.6026470901   -0.9612066417   -1.9615766315
 H    1.9836802397   -0.5142093671   -0.8923044852
 H    1.0176110785   -2.8932633696    0.1516396684
 H    1.6731462048   -0.5229885240    1.4303383527
 H    0.0601739038   -0.9765542948    2.0959198332
 H   -3.1038866617   -1.0351771987   -0.3923189888