19

 C   -0.0767416060    1.5397885999    0.0833565424
 C    0.0142756006    0.0229248871   -0.0169241448
 C    0.7303271500   -0.6113899057    1.1733958912
 O   -1.3479826749   -0.4446904188   -0.0940539040
 C   -1.5611126814   -1.6649545146   -0.6230568812
 C   -2.7877093796   -2.2791291152   -0.7182073901
 N   -2.5176184545   -3.4855998009   -1.3430253341
 C   -1.1858929918   -3.5367504308   -1.5811254343
 N   -0.5738483320   -2.4476146486   -1.1570604239
 H    0.9247901401    1.9780582422    0.1253866564
 H   -0.6018021022    1.9533513481   -0.7818038772
 H   -0.6199194435    1.8335074693    0.9874057254
 H    0.5265953924   -0.2641142116   -0.9410736003
 H    0.7727782993   -1.6964735531    1.0595712538
 H    1.7555532206   -0.2331613237    1.2429452434
 H    0.2092311260   -0.3704700301    2.1058623899
 H   -3.7771442295   -1.9823830207   -0.4204696966
 H   -3.1931670805   -4.1940042345   -1.5729278017
 H   -0.7108316631   -4.3796780683   -2.0591818342