15

 C   -0.0580109194    1.5757771973   -0.0178328348
 C    0.1643450117    0.8153080340   -1.3257548218
 C    0.0545718583    0.0734699066   -0.0191499244
 N    1.3713991926   -0.3805549503    0.4686707703
 C    2.1808058939    0.8040814249    0.7918437472
 C    2.3983029581    0.0603373289   -0.4873780511
 C    1.6708600014    1.1660417007   -1.2977173644
 C    1.4424943523    1.9470476944    0.0455671801
 H   -0.9131067284    2.1355009944    0.3408719593
 H   -0.4844154147    0.6693695010   -2.1807171747
 H   -0.7940092461   -0.5588922183    0.2042600228
 H    2.7426429597    0.8367034697    1.7188604137
 H    3.1717060480   -0.6304913714   -0.8046929179
 H    2.1492766143    1.6375218021   -2.1518455681
 H    1.7564147882    2.9811105260    0.1590542938