15

 C   -0.3058081929    1.4795905422    0.0905097690
 C    0.0379304591   -0.0000193920   -0.0255284777
 N    0.8967631114   -0.4042323091   -1.1622474186
 C    1.9897325021   -0.9644214441   -0.3552271820
 C    1.1853383060   -0.5164061302    0.8806272844
 O    1.3686102846   -0.5234776533    2.0576056705
 C    0.5744238107   -0.7472270249   -2.4354601354
 O    1.2995272610   -1.3736557586   -3.1778524928
 H    0.5915996676    2.0977604970   -0.0002960398
 H   -1.0122623534    1.7795023742   -0.6888471990
 H   -0.7659251517    1.6721988495    1.0642016491
 H   -0.8656117532   -0.6186221479    0.0671227811
 H    2.1140177556   -2.0484013031   -0.4622686451
 H    2.9627527147   -0.4800084266   -0.4880349672
 H   -0.4260334916   -0.3706605330   -2.7294316165