16

 N    0.1567047608    1.3274026547    0.3012777522
 C   -0.0491898769   -0.0247562468    0.1315947134
 N   -1.1561549477   -0.6846639190    0.1667158273
 C   -0.7590471558   -2.0257110660    0.0064151920
 C   -1.7236702725   -3.1668978543   -0.0131468337
 O   -1.2549793571   -4.2500031404   -0.8247926131
 C    0.5897253769   -2.0721907481   -0.1163226888
 N    1.5313639859   -3.0881420376   -0.2009272670
 O    1.0714661018   -0.7825629763   -0.0373054600
 H    0.9424033949    1.6934056762   -0.2182589757
 H   -0.6889511689    1.8592219444    0.1516919174
 H   -1.8631716050   -3.6050194883    0.9826288601
 H   -2.7067336099   -2.8055465362   -0.3452220284
 H   -1.1952350069   -3.9140476617   -1.7259518820
 H    1.0564112514   -3.9629859878   -0.3977866183
 H    2.2459905790   -2.9089837628   -0.8983355754