15

 O    0.0072844114   -0.1393782352   -0.0019084314
 C   -0.0023807920    1.0633005368    0.0037370857
 C    1.2701602641    1.8968746010   -0.0022141651
 C    2.5273024241    1.0129554049   -0.0166569960
 C    3.7495773275    1.8118581785   -0.0221027017
 N    4.7047672373    2.4617330208   -0.0261729181
 C   -1.3082328693    1.8791444917    0.0177302280
 C   -2.5096712062    1.0547036333    0.0222800824
 N   -3.4733924067    0.4197106445    0.0260333192
 H    1.2546291388    2.5651337966   -0.8721098837
 H    1.2684863093    2.5561987197    0.8746264588
 H    2.5302822721    0.3508897654    0.8544484884
 H    2.5166014681    0.3599763825   -0.8945347254
 H   -1.3069841206    2.5362585147    0.8964453749
 H   -1.3200704078    2.5457399447   -0.8537152961