13

 C   -0.0102460428    1.4547815367    0.1273032668
 C   -0.0224304610   -0.0245447477   -0.0502013579
 N   -0.1472686536   -0.6232089328   -1.1574637661
 C   -0.1419907868   -2.0529713925   -1.1826838481
 O   -0.2583276534   -2.6467110174   -2.2191310389
 N    0.0041102274   -2.7237028528    0.0491653748
 C    0.1217280547   -2.0125612757    1.0992004193
 O    0.2651098541   -2.5210450208    2.3141219247
 O    0.1228979731   -0.6687321655    1.1728058072
 H    0.9293308031    1.7701172555    0.5920328144
 H   -0.1254513843    1.9340999044   -0.8432300885
 H   -0.8220932997    1.7601879016    0.7950242763
 H    0.2580064692   -3.4840296832    2.2067493560