20

 C    0.0669267334    1.5340969213    0.0391072686
 C    0.0179532328    0.0050198098   -0.0549149557
 C    0.6289534379   -0.5246205078   -1.3190445413
 C    0.3279623349   -0.1780040891   -2.8038909666
 C    1.6143921938   -1.0257985284   -2.7344588732
 O    2.0651320576   -0.2013314661   -1.5907020910
 C    0.9192636418   -2.0008300588   -1.7472207604
 C    1.7685023462   -2.8780683886   -0.8477752715
 H    1.0973166864    1.8899357270   -0.0442846761
 H   -0.5136980841    1.9982172983   -0.7644442107
 H   -0.3419392400    1.8802958183    0.9926730235
 H    0.5464847518   -0.4419527078    0.7961398304
 H   -1.0188335327   -0.3512273030   -0.0020591208
 H   -0.5608123619   -0.6167656014   -3.2656823755
 H    0.4825447830    0.8662460291   -3.0768817947
 H    2.3472043874   -1.2348716985   -3.5145140963
 H    0.0550411944   -2.5339045325   -2.1591399719
 H    2.6190560114   -2.3133251015   -0.4601114604
 H    1.1842839126   -3.2557334900   -0.0013097678
 H    2.1475895131   -3.7476998304   -1.3955763984