16

 C    0.0067450240    1.5495969703    0.0607999179
 C   -0.0145895616    0.0544675187   -0.0250748347
 C   -1.2762532138   -0.8148100114   -0.0927112134
 C   -0.5674091065   -1.7009720680    0.9346978326
 N   -0.7749777824   -2.7265214320    1.6223372336
 N    0.6072128833   -0.8401554165    1.0493345184
 C    1.1926808631   -0.7546233066   -0.3308241256
 C    1.1719144302   -1.8723988664   -1.2420680037
 N    1.1544714951   -2.7527820891   -1.9917303640
 H    0.9924762400    1.9103796183    0.3661890983
 H   -0.2364798480    1.9940718371   -0.9103989690
 H   -0.7279683417    1.9045237279    0.7903278135
 H   -2.1559463616   -0.3198491466    0.3271304365
 H   -1.5337734959   -1.2597508499   -1.0568214596
 H   -1.6811066235   -3.1420819389    1.4005973069
 H    2.1426144793   -0.2284780270   -0.3138484077