17

 O    1.3968139826    1.6647667335   -0.5029515568
 C    0.5243177003    0.6719781390    0.0332915587
 C    0.2340800338   -0.3746881310   -0.9522603206
 C    0.0545955968   -1.2401453852   -1.7669861465
 C    1.0712581695    0.0709610594    1.3191189765
 C    1.1022002063    0.8990622279    2.5661380395
 C    0.1400765666   -0.2766130208    2.4771638122
 C   -1.2732528917   -0.0481746545    2.3918003764
 C   -2.4607230291    0.1363422768    2.3318312517
 H    2.1553673607    1.2094758575   -0.8849058612
 H   -0.4020292309    1.2075471672    0.2683152918
 H   -0.1300920298   -1.9969077937   -2.4889719693
 H    1.8893975356   -0.6277300338    1.1678780117
 H    1.9509230609    0.8062461893    3.2339091445
 H    0.6684633201    1.8913071502    2.5174820309
 H    0.4176297841   -1.1635351841    3.0390617456
 H   -3.5086720358    0.2973837721    2.2768199548