21

 C   -0.2651519607    1.5032869479    0.0390280485
 C    0.1187694206    0.0187137933   -0.0335088351
 C    0.8268197857   -0.4611852845    1.2037444162
 C    2.2348389984   -0.0480084905    1.6487035655
 C    2.3421323405   -1.3843570410    2.4513919639
 C    1.8442597699   -1.1695106204    3.8795347282
 O    0.5174856114   -0.6479941692    3.7160610367
 C    0.0967007866   -1.0134058104    2.4177900965
 C    1.0709207319   -1.8934636332    1.7152829987
 H    0.6205704946    2.1341777346    0.1682115812
 H   -0.7729614746    1.8251222197   -0.8753511704
 H   -0.9334175123    1.6948601578    0.8847312961
 H   -0.7821708838   -0.5878988493   -0.1932854948
 H    0.7587800590   -0.1526462400   -0.9101039419
 H    2.9257423082   -0.0307641317    0.8006909108
 H    2.3396733952    0.8814712378    2.2198130414
 H    3.2692857095   -1.9492408539    2.3643132854
 H    1.8172958112   -2.1118480815    4.4484815716
 H    2.4343200989   -0.4356763153    4.4388298763
 H   -0.9726108460   -1.1759880775    2.3429549115
 H    0.8812692158   -2.8643561429    1.2755231838