17

 C    0.0826448957    1.2976428141    0.2202684393
 O   -0.0037606451    0.0036237513   -0.3540492962
 C   -1.2395900617   -0.6002973992   -0.1561435682
 C   -1.3683819656   -2.0324793711   -0.6701740795
 O   -0.5062630065   -2.8397476514    0.1261467820
 C   -1.8353565158   -2.5682754270    0.6407271183
 C   -2.7218001502   -3.7037809335    1.0240153574
 C   -1.6614213538   -1.1778410622    1.2525372395
 O   -1.8700654104   -0.6953743475    2.3260953513
 H    1.0818934760    1.6762909981   -0.0035257987
 H   -0.6649697945    1.9786733879   -0.2152395506
 H   -0.0612182451    1.2691161359    1.3071281420
 H   -2.0719096114    0.0364106422   -0.5109356401
 H   -1.6203976464   -2.3808896711   -1.6644390910
 H   -2.6736398309   -4.4978642017    0.2745240034
 H   -2.4123340053   -4.1193619435    1.9881016215
 H   -3.7583494889   -3.3667429212    1.1200856695