16

 C   -0.1424693289    1.5810179005   -0.0025843923
 N   -0.0489967166    0.1242455255    0.0617647473
 C    0.6622415296   -0.3254149682    1.2473719447
 C    2.1519839027   -0.0242478340    1.1396971791
 O    2.8661456505    0.1880071259    2.0821280226
 C   -1.3471521635   -0.5225519025   -0.0794846807
 C   -1.9343978120   -0.2859681571   -1.4044536304
 N   -2.4098462342   -0.0972432420   -2.4398370060
 H    0.8603727812    2.0151419392    0.0378583034
 H   -0.6022055819    1.8817042505   -0.9470176906
 H   -0.7331609349    2.0061679735    0.8289174926
 H    0.2809798079    0.0912925960    2.1959419599
 H    0.5807037110   -1.4193973034    1.3168045197
 H    2.5334662097   -0.0482218549    0.0942574906
 H   -1.2220324011   -1.6036712952    0.0447081851
 H   -2.0840002896   -0.1960748337    0.6792500051