23

 C   -0.0112421719    1.5285745380   -0.1859342511
 C   -0.0140011150    0.0210846163   -0.0094283832
 C   -1.2175853449   -0.6583577798   -0.6379887930
 C    1.3062579006   -0.7168361593   -0.0535499684
 C    0.5438262637   -0.6085291725    1.2515587792
 C    1.0932831177    0.1770286156    2.4231211291
 C    2.0782465358   -0.6644564835    3.2661164047
 C    2.6213070273    0.0657090624    4.4046530929
 C    3.0534871725    0.6937861359    5.3342749175
 H    0.8859925076    1.9971875722    0.2253811091
 H   -0.0559934651    1.7870352367   -1.2504946444
 H   -0.8810610155    1.9874114288    0.2994356171
 H   -1.2631035360   -0.4602219076   -1.7156591052
 H   -1.1832877419   -1.7436988121   -0.5003958178
 H   -2.1530536275   -0.2950891647   -0.1955353929
 H    1.3527132460   -1.6775628319   -0.5563381053
 H    2.2100506695   -0.1223737870   -0.1536525027
 H    0.0290362308   -1.5186400402    1.5564839531
 H    1.6122257658    1.0778230540    2.0823386899
 H    0.2767519560    0.5169594779    3.0715370777
 H    1.5710968098   -1.5712015423    3.6215209026
 H    2.8978445904   -1.0097147245    2.6231933578
 H    3.4418828642    1.2371676574    6.1594055234