13

 C    0.0521760912   -1.2053181619   -0.1129712861
 C    0.0260371043   -0.0056948255   -0.0485170923
 C   -0.0280972741    1.4498894989    0.0409412028
 C   -0.5977152560    1.9563617331    1.4040573155
 O    0.2632724949    3.0267900936    1.7451178444
 C    1.5136367072    2.6386657843    1.2380951114
 O    1.2709626440    2.0526275646   -0.0245639093
 H    0.0795394173   -2.2651576237   -0.1782487724
 H   -0.6109400799    1.8469098179   -0.7981132349
 H   -1.6180633123    2.3350316348    1.3270657682
 H   -0.5579401900    1.1542452774    2.1532756536
 H    2.1411200898    3.5241227592    1.1085100655
 H    2.0027535338    1.9131906971    1.9129114337