18

 C   -0.7928105642    1.2668533567   -0.0484545945
 C    0.0190046358   -0.0193090417   -0.0577970436
 C    1.3793532006   -0.0642143909   -0.8212657602
 C    1.9786075955   -0.9174651472    0.3382681653
 O    3.2981009893   -0.7124963489    0.7693926188
 C    0.7998751344   -0.4414191204    1.1947753633
 C    0.8720302288    0.2016403916    2.5096013474
 O    0.2774319611   -1.0933587769    2.3327039244
 H   -0.1776748440    2.1226575994    0.2505772544
 H   -1.2023315048    1.4811557821   -1.0411627369
 H   -1.6349457895    1.1963863292    0.6486109874
 H   -0.6114936830   -0.8581423775   -0.3749552384
 H    1.3905493213   -0.4961278695   -1.8230559649
 H    1.8467034542    0.9265651796   -0.8563750352
 H    1.8935816029   -1.9885700494    0.1297110026
 H    3.4129454563    0.2293976084    0.9353627810
 H    1.8162237508    0.2035618079    3.0531216313
 H    0.1800596546    1.0022386775    2.7665600577