22

 C    0.0359480638    1.5606410424   -0.0574385170
 C    0.0261534847    0.0509731103   -0.0340447008
 C    0.6250771095   -0.9487844224   -1.0353441204
 N    0.0158396698   -1.8986233032   -0.0016750288
 C    0.5729645014   -0.9172409045    1.0553688616
 C   -0.3502310783   -0.9798582339    2.2600686447
 C   -1.7016851808   -0.9812102487    1.5086630050
 C   -1.2005983225   -0.9244604911    0.0622956632
 C   -2.2638756087   -1.0403740570   -1.0051938152
 H    1.0602507608    1.9487875065   -0.0862670433
 H   -0.4910659615    1.9458989853   -0.9375666896
 H   -0.4525142104    1.9754886987    0.8317498666
 H    0.1930883678   -1.0304161819   -2.0352504432
 H    1.7161364064   -1.0181558201   -1.0908710815
 H    1.6512137428   -0.9940166517    1.2135186807
 H   -0.1874280502   -1.8886075358    2.8459009934
 H   -0.2203882535   -0.1207626363    2.9252686618
 H   -2.2878220981   -1.8877984683    1.6869675414
 H   -2.3357077633   -0.1217556318    1.7491617647
 H   -3.0138141286   -0.2521581629   -0.8748004884
 H   -1.8722548447   -0.9603681362   -2.0220288242
 H   -2.7776213162   -2.0039974275   -0.9191464709