23

 C    0.0567756271    1.0780305246    1.2296931153
 C   -0.0008082699    0.2238092576   -0.0246618312
 O    0.8159766639    0.3406133379   -0.9122158702
 C   -1.1140007821   -0.8055978158   -0.0743869762
 C   -1.3491283585   -1.4827284187   -1.4474602140
 C   -0.7701872202   -2.8319870926   -0.9072569482
 C   -1.7274907458   -4.0177284604   -0.9943265627
 C    0.5945214628   -3.1767243918   -1.5048163158
 C   -0.6675401298   -2.1923965342    0.5171582869
 H    0.9807855760    1.6570041039    1.2500721050
 H   -0.8002989890    1.7619395817    1.2457894290
 H   -0.0190112588    0.4559842302    2.1283065362
 H   -2.0056405289   -0.4008715267    0.4118912821
 H   -2.4039182728   -1.5367255323   -1.7283292366
 H   -0.7804208581   -1.0291744827   -2.2615185192
 H   -1.8876617991   -4.3163095187   -2.0369984340
 H   -1.3312457309   -4.8872746561   -0.4565205677
 H   -2.7054560783   -3.7756328393   -0.5633938298
 H    1.2672321902   -2.3150847752   -1.4673098729
 H    1.0636710145   -4.0056623286   -0.9612868413
 H    0.4946140722   -3.4782972614   -2.5540306180
 H    0.3294065115   -2.2128375311    0.9671294330
 H   -1.3804098761   -2.5984316303    1.2391793304