14

 O   -0.2682343378    0.2230992139    0.4671885918
 C   -0.0860219688    1.3225889371    0.0527806737
 O   -0.9882568270    2.1414851791   -0.5757420567
 C    0.0113627768    3.2366347827   -0.6736425952
 C   -0.2179766185    4.3311931590    0.3223021411
 C    0.5677687881    4.1886601755    1.3914088129
 C    1.4949790844    2.9969708372    1.3038372341
 C    1.0732573270    2.3248386990   -0.0196785928
 H    0.1102649083    3.5360461250   -1.7177717968
 H   -0.9534504288    5.1125832979    0.1760161230
 H    0.5639606194    4.8454841756    2.2547556773
 H    2.5460479650    3.3081781054    1.2793142926
 H    1.3912317752    2.3245688982    2.1630486659
 H    1.9008524167    1.9806366245   -0.6393824609