15

 C   -0.1901436941    1.3615367125   -0.1290429799
 C    0.4053450470   -0.0224919559   -0.0548587170
 O    0.9655220348   -0.4667173670    0.9153302528
 C    0.2630861626   -0.8779663652   -1.3164254721
 N   -0.2802947125   -0.3961161768   -2.3520984588
 O    0.7896999230   -2.1147863238   -1.1049849440
 C    0.8603980809   -3.0047862117   -2.2024217426
 C   -0.4492995891   -3.5422328242   -2.6042169203
 N   -1.4703213598   -3.9697980055   -2.9336988055
 H    0.2499969198    1.9218154625   -0.9587307779
 H   -1.2626162831    1.3004081785   -0.3365237440
 H   -0.0141725445    1.8745272416    0.8166147890
 H   -0.3614929427   -1.0393452889   -3.1384459021
 H    1.3333891972   -2.5280572129   -3.0708910571
 H    1.4985127004   -3.8283145032   -1.8738439706