15

 C    0.0312487982    1.6767201063    0.2954203329
 C   -0.0121398423    0.1637413502    0.0779356215
 C    0.6721305429   -0.4311949065   -1.1676881144
 O    1.6116007724   -1.1634751135   -0.3086571384
 C    1.0543524630   -0.6341622267    0.8282429959
 N    1.3366183284   -0.7671698116    2.0413087182
 C   -1.4043504254   -0.3825483543    0.3558773343
 O   -2.0375594254   -1.0615185321   -0.4086562075
 H    1.0465979029    2.0571673716    0.1566385092
 H   -0.6325706165    2.1929977045   -0.4053658736
 H   -0.2812109548    1.9222572592    1.3146295235
 H    0.0568961213   -1.1145598666   -1.7533989491
 H    1.2042103266    0.2781757204   -1.8048524911
 H    2.1349707937   -1.3887089668    2.1807572297
 H   -1.8026061049   -0.0988985540    1.3535940888