14

 N   -0.0068348357   -1.1897620739   -0.0321090043
 C    0.0047392882   -0.0329589756   -0.0210545817
 C    0.0309082023    1.4032436391    0.0060025550
 C   -0.5312961102    2.2517597294   -1.1759085444
 C    0.4270070601    3.3389835915   -0.6980117829
 C    1.2948081390    2.3699634910    0.0071324018
 N    0.5011406261    3.3339914622    0.8077818758
 C   -0.4145478024    2.2322663320    1.2346028818
 H   -0.2171681116    1.8517547339   -2.1419944064
 H   -1.6087823778    2.4407091797   -1.1754148499
 H    0.6942910334    4.2660569525   -1.1854866936
 H    2.3608486317    2.2072158543    0.0867049540
 H   -1.4755177919    2.4928556506    1.3082665117
 H   -0.0546672312    1.8229583734    2.1801203431