19

 O    0.1459277356   -0.1202852380   -0.1995121087
 C    0.0687085914    1.0794533324   -0.1224488892
 C    1.2496130359    2.0192496377   -0.0879505216
 C    1.2144291983    3.0920620874   -1.2053873730
 C    2.2120385698    4.1587356495   -0.7148859587
 C    1.9897989486    4.2098507966    0.7929826450
 O    0.7727850589    4.9079541505    1.1488686824
 C    0.1675706324    3.7046067232    1.6593183636
 C    1.3744335913    2.8433471091    1.2172453044
 H   -0.9257449322    1.5816693615   -0.0797413073
 H    2.1482913545    1.4025735184   -0.1950201536
 H    1.4662760329    2.6784265097   -2.1847299154
 H    0.2105007373    3.5262093901   -1.2793413002
 H    3.2417887504    3.8413969522   -0.9192751100
 H    2.0623303172    5.1380967630   -1.1774247480
 H    2.8472056136    4.5894952235    1.3589662517
 H    0.0254646255    3.7484365842    2.7464823607
 H   -0.8020863030    3.5045324726    1.1890404233
 H    1.8593169015    2.2842679965    2.0171017248