23

 C   -0.0912937959    1.6122358059   -0.0814411222
 C   -0.0345288036    0.0817602314    0.0061215355
 C   -1.4469881270   -0.4287711663   -0.3120470834
 C    1.1406183579   -0.6677984738   -0.7314145410
 C    2.3972731431    0.0654663237   -0.2169053069
 C    2.0261266429    0.1439485208    1.3115183695
 C    0.6604048760   -0.5734044437    1.2636802288
 C    1.0578626911   -1.7817358467    0.3687939748
 O    0.0856356395   -2.7983633799    0.2711901657
 H    0.8562564618    2.1160257003    0.1110658655
 H   -0.4284551592    1.9185596546   -1.0786669593
 H   -0.8220607783    2.0021446141    0.6368315922
 H   -1.7433636114   -0.1011454530   -1.3162658319
 H   -1.5330290794   -1.5101284870   -0.2600686798
 H   -2.1669530847    0.0074145607    0.3910336224
 H    1.0928395520   -0.9038429363   -1.7974205779
 H    3.3072053119   -0.5162366352   -0.3921173748
 H    2.5414804136    1.0457052510   -0.6757012696
 H    2.7435359646   -0.3902788588    1.9408382758
 H    1.9590355934    1.1675977657    1.6848692635
 H    0.1279803664   -0.7198686628    2.2048690369
 H    2.0287553126   -2.2340812785    0.6207818307
 H    0.3318057929   -3.3690140762   -0.4639331745