22

 C    0.5337653387    1.4696423224    0.0546224148
 N    0.7814960224    0.0454706075    0.1661284151
 C    0.1133881421   -0.7428866105    1.0590095902
 O   -0.6992097797   -0.2996330809    1.8543882337
 C    0.4227896142   -2.2267509099    1.0066578068
 C   -0.8296789947   -3.0575103943    0.7818444718
 C    1.7473274032   -2.7537658869    0.4951822804
 C    1.4564059851   -2.7607453834    1.9783845833
 C    2.2165675209   -1.8523875810    2.9188052616
 H    1.4744269881    2.0295940428    0.0369419251
 H   -0.0367772026    1.7153810267   -0.8493796987
 H   -0.0496938218    1.7668263342    0.9266707005
 H    1.3358464375   -0.4084258989   -0.5394743288
 H   -1.2516512000   -2.8842640910   -0.2149204507
 H   -0.6089761739   -4.1255274966    0.8709623873
 H   -1.5890590712   -2.7923374954    1.5219603665
 H    1.7390091669   -3.6919230582   -0.0504941445
 H    2.5062385882   -2.0552647330    0.1549206535
 H    1.2050469061   -3.7295825759    2.4037868446
 H    2.4842398302   -0.9081659588    2.4346552423
 H    1.6170310738   -1.6107905716    3.8021861229
 H    3.1439012667   -2.3288254873    3.2550411821