13

 N   -0.1139921912    1.2656086834   -0.1919669953
 C   -0.0074270189    0.0084276983   -0.0012741218
 C   -1.2127730716   -0.8126909716   -0.0369249152
 C   -1.3692283604   -2.0274363689    0.5090496096
 C   -0.3817597392   -2.7430584999    1.2923966110
 N    0.8980181954   -2.7077693666    1.3358207266
 O    1.6095717640   -1.9113758673    0.4053608323
 C    1.3917336500   -0.5992304170    0.0886902014
 O    2.3435796270    0.0556704353   -0.2299860142
 H    0.8238231651    1.6819093398   -0.1918922938
 H   -2.0553014349   -0.3293187706   -0.5211461441
 H   -2.3455281704   -2.4999361081    0.4598199829
 H   -0.7676861548   -3.4666955269    2.0104733807