17

 C   -0.0756932309    1.5422316672   -0.0920327010
 N    0.0495209448    0.1312471407    0.2503935661
 C    0.7568843965   -0.0644496290    1.5124654605
 C   -1.2224402046   -0.5881013965    0.1872330445
 C   -0.9285898776   -2.0952965787    0.0746020810
 O   -1.5694281414   -2.9728007341    0.5795598346
 C   -2.1919903642   -0.2647377361    1.2381733081
 C   -2.9493795964    0.0437051280    2.1188367354
 H    0.9219344498    1.9895229037   -0.1364520780
 H   -0.5374340897    1.6440210839   -1.0792041549
 H   -0.6782253628    2.1154131906    0.6329118195
 H    0.2416713812    0.3896679664    2.3747192971
 H    0.8750489377   -1.1337468750    1.7152515450
 H    1.7550464363    0.3757387907    1.4327356397
 H   -1.6701919978   -0.3396605870   -0.7894557769
 H   -0.0413223388   -2.2866234423   -0.5681992863
 H   -3.6315960021    0.2979263875    2.8923182158