13

 O    1.9075074386    4.1945830124    0.1446294586
 C    1.0734355267    3.3340218869    0.1279476549
 N    1.2824754316    1.9641384371    0.0052205237
 C    2.4669689993    1.2459421727   -0.1269963894
 C    2.4022303595   -0.1582199487   -0.2347368650
 N    3.4974319383   -0.8752555165   -0.3611987324
 C    4.6373742147   -0.1652012241   -0.3768453035
 N    4.7438212332    1.1534745556   -0.2787133667
 N    3.6363641464    1.8815436988   -0.1505925984
 H   -0.0148296618    3.5303805998    0.2118943493
 H    0.4410084438    1.4058669540    0.0138015497
 H    1.4472484853   -0.6837505711   -0.2162335121
 H    5.5678824544   -0.7135858371   -0.4793720188