20

 C   -0.1877778028    1.4319032950   -0.2732174394
 N    0.3233828732    0.1063272516    0.0655551901
 C    0.7333266513   -0.7265295738   -0.9615106830
 C    0.6939250253   -2.0760429470   -1.1421373461
 C    1.3939073098   -2.3352262609   -2.3781289968
 C    1.6134599569   -3.6826911428   -2.9926768075
 C    1.7902050869   -1.1267199438   -2.8579036987
 C    2.5169938935   -0.6680190944   -4.0690251478
 O    1.3884925790   -0.1281323979   -1.9854089734
 H    0.5823189396    1.9895465067   -0.8091770933
 H   -1.0928572314    1.4093841515   -0.8995938561
 H   -0.4137903476    1.9660557648    0.6526657618
 H   -0.2644226010   -0.3892644788    0.7204727809
 H    0.2296621444   -2.8014359059   -0.4922342628
 H    0.6627883284   -4.1910741977   -3.1934476161
 H    2.1566074159   -3.6133296843   -3.9389734916
 H    2.1899641801   -4.3369045644   -2.3277644934
 H    1.9063825134    0.0075973948   -4.6812286485
 H    3.4386113386   -0.1300921311   -3.8142199843
 H    2.7903952966   -1.5249978016   -4.6888052338