16

 O    0.0501282439    1.4082294712    0.0722976156
 C    0.0026476119   -0.0068419668    0.0372762074
 C   -1.4272488185   -0.5266253523   -0.1083573386
 C   -2.2282036639   -0.0932149324   -1.2781175407
 N   -1.5116156055   -1.4033095151   -1.3065499208
 C   -0.2429035241   -1.2952049782   -1.9171290984
 C    0.6569749783   -0.5851137219   -1.2125922705
 C    2.0137725967   -0.2486324057   -1.5955823585
 O    2.6825397294    0.5797057680   -0.9997119062
 H    0.9881950204    1.6362105225    0.0031120554
 H    0.4596414810   -0.4235633218    0.9476473802
 H   -1.9411092458   -0.9001448152    0.7699423695
 H   -3.3094851685   -0.1737969047   -1.2466131471
 H   -1.8262312895    0.7032994414   -1.8958636097
 H   -0.1011090699   -1.7652540636   -2.8848411202
 H    2.4220437042   -0.7777763552   -2.4822936074