21

 C    0.0812898281    1.5050932273    0.0171111589
 C   -0.0238510944   -0.0262510484    0.0019241054
 C   -1.4892199497   -0.4754356425   -0.0830884151
 C    0.8285380099   -0.6463393435   -1.1024884346
 C    2.2625692986   -0.8380226275   -0.6513320882
 C    1.3217991995   -2.0249663068   -0.7115386106
 C    1.2343183975   -2.0344496765    0.8371433432
 C    2.1756179063   -0.8479275706    0.8973775845
 C    0.6999892852   -0.6601686418    1.1872525821
 H    1.1259439183    1.8249210980    0.0776631643
 H   -0.3547598767    1.9393878185   -0.8895674705
 H   -0.4537404662    1.9287099711    0.8744977743
 H   -1.9667332933   -0.0934776034   -0.9924338986
 H   -1.5637931329   -1.5670312602   -0.0938784090
 H   -2.0657818512   -0.1041484876    0.7716276613
 H    0.6270647223   -0.4337816570   -2.1469446088
 H    3.1335255053   -0.6152624289   -1.2518856445
 H    1.3348726183   -2.8846652309   -1.3669748427
 H    1.1739780750   -2.9021074367    1.4793117794
 H    2.9737324968   -0.6335850121    1.5944571792
 H    0.3827488633   -0.4600553906    2.2050807500