19

 C   -0.0317170991    1.4888480584    0.0208950860
 C    0.0389356605   -0.0133674991    0.0116128761
 C    0.6790852576   -0.9423367975   -1.0672803620
 C    0.0779683966   -1.9035156947   -0.0047184402
 C    0.6766015998   -0.9620771349    1.0772870449
 C   -1.1984011864   -0.9983905137    0.0044504077
 N   -2.0300440732   -1.0253663578    1.1984306073
 C   -2.0169396987   -0.9978143015   -1.2184119251
 N   -2.7290129389   -0.9860578318   -2.1310274293
 H    0.9739891157    1.9220303250    0.0179547758
 H   -0.5631756186    1.8635637765   -0.8604126623
 H   -0.5490905217    1.8536958703    0.9148304430
 H    0.2298144509   -0.9427028348   -2.0625534870
 H    1.7692957693   -0.9200980614   -1.1204949480
 H    0.0754961486   -2.9935897406   -0.0202816726
 H    1.7674718610   -0.9392397913    1.1267516951
 H    0.2130254808   -0.9797605123    2.0608719538
 H   -2.6805174857   -0.2446212355    1.1863959113
 H   -2.5985164584   -1.8677785132    1.2075135055