13

 C   -0.0202436939    1.5405305366   -0.1184050162
 C    1.4544596004    1.9654364526    0.1225907572
 C    2.1703915912    0.6245355321    0.3948945057
 O    1.3608153047   -0.3747536967   -0.2036854858
 C    0.0198515941    0.0074533171    0.0564609516
 H   -0.7150845135    2.0109391500    0.5816352389
 H   -0.3399021984    1.8068679670   -1.1288242101
 H    1.8672566964    2.4535776572   -0.7635656018
 H    1.5618579841    2.6588741615    0.9603096156
 H    3.1687379635    0.5566981179   -0.0446422617
 H    2.2582398537    0.4477688290    1.4800898419
 H   -0.2662268182   -0.2712262841    1.0847078145
 H   -0.6259699639   -0.5361479304   -0.6377205999