23

 C    0.0212539147    1.6479748648   -0.1467984418
 C    0.0212501221    0.1234713396    0.0113389699
 C    0.7401852800   -0.6285758767   -1.1413605050
 C    1.4171437092   -1.8530753893   -0.4825910672
 C    1.5257576808   -1.4491355823    0.9780309973
 C    2.3679973264   -2.2055837834    1.9612484235
 C    1.8970989005   -3.6446627138    2.1850510168
 O    2.7882796544   -4.2462013030    3.1117124451
 C    0.7615084978   -0.3838298285    1.2291804418
 H    1.0454674263    2.0345834024   -0.1942178484
 H   -0.4955899852    1.9488095281   -1.0646743294
 H   -0.4831825173    2.1367911480    0.6937589662
 H   -1.0289887828   -0.2053306116    0.0690788649
 H    0.0659086074   -0.8977434498   -1.9591299404
 H    1.5108656616    0.0283449127   -1.5612812836
 H    0.8039395171   -2.7595711893   -0.5900283426
 H    2.3905719097   -2.0921567060   -0.9282527739
 H    3.4087356504   -2.2519008802    1.6121910799
 H    2.3779715400   -1.6928768325    2.9287626098
 H    0.8637408049   -3.6365133257    2.5665365301
 H    1.8899539704   -4.1914026854    1.2289699606
 H    2.4990622594   -5.1505497058    3.2633550060
 H    0.6475086321    0.0741893378    2.2075657806