19

 C   -0.4230320659    1.4229628263   -0.0400198940
 C    0.1767979872    0.0344442034   -0.0621599775
 O    1.4620989118   -0.0146724854   -0.7307316597
 C    2.0373800320   -0.8131144508    0.3196353804
 C    0.7950763768   -0.6112268624    1.2099824945
 C    0.9566135590    0.2066818440    2.5002626870
 O   -0.0662309175   -0.2968029874    3.3449885085
 C   -0.1160141535   -1.6641257293    3.0388965343
 O    0.1247580617   -1.7829836311    1.6471411389
 H    0.2812929123    2.1551642510    0.3654741752
 H   -0.6820382403    1.7356459023   -1.0562345613
 H   -1.3363175667    1.4345449976    0.5644163984
 H   -0.5238302957   -0.6798231297   -0.5174010566
 H    2.1864268688   -1.8594158578    0.0247302108
 H    2.9843219778   -0.3956080039    0.6850557793
 H    1.9527267054    0.0299068879    2.9377767773
 H    0.8097721933    1.2801330971    2.3783504129
 H    0.6540231216   -2.2239433152    3.5999131288
 H   -1.1117629080   -2.0495772066    3.2769354628