18

 C   -0.0254256382    1.5293978052    0.1039915201
 C    1.2584958811    0.7507905747   -0.0777107697
 C   -0.0549104539    0.0356246250    0.0225996134
 C   -0.4515060693   -0.9994501909    1.0618067316
 N   -1.9166370494   -1.2052594183    0.9162696625
 C   -0.9748011067   -1.9063867322   -0.0013421503
 C   -0.6143327021   -0.8813859543   -1.0666270848
 C   -1.1949868249   -0.6225716685   -2.3788777417
 O    0.1173754261   -1.2055014460   -2.2329569796
 H   -0.2179879898    1.9894091415    1.0674639167
 H   -0.4071286465    2.0912998522   -0.7424608217
 H    1.7361928290    0.7592007231   -1.0516403603
 H    1.9431390474    0.6848653276    0.7616843922
 H    0.0664232620   -1.2409508839    1.9816816223
 H   -2.1935491840   -1.8888186105    1.6223266413
 H   -0.9453697700   -2.9848951351   -0.0868709813
 H   -1.9600148473   -1.2874894178   -2.7766550110
 H   -1.2071276238    0.3906863282   -2.7779421097