17

 N    0.1585076163    1.4509957484   -0.5327338486
 C    0.1324271623    0.2349195869   -0.1180952226
 C   -1.2367065160   -0.3880023865   -0.0693904612
 O   -1.4703011293   -1.5172039465    0.2834435663
 N    1.1731556999   -0.5210695709    0.3462909606
 C    1.3904278700   -1.9926556085    0.2947267319
 C    2.8830663990   -1.7224447450    0.0606643832
 C    3.0779539307   -0.8370855010   -1.1454303002
 C    2.5840996035   -0.2333844533    0.1428259726
 H    1.1135271799    1.8158435910   -0.5639524074
 H   -2.0197595133    0.3180580941   -0.4076277004
 H    1.1641179655   -2.4691666195    1.2513943457
 H    0.8527840085   -2.5129816614   -0.5015900795
 H    3.6929307296   -2.2676720878    0.5238145343
 H    4.1122962299   -0.6200756897   -1.3927863675
 H    2.4098370360   -0.9083653097   -1.9994667215
 H    3.0833769674    0.5594818693    0.6872252342