17

 N   -0.3758259095   -1.1706602215   -0.4188346552
 C   -0.2151743477   -0.0408931392   -0.2292628684
 C   -0.0251050170    1.3763298199    0.0226411425
 C   -0.2555449196    1.9390210545    1.4766599515
 C    1.1414558392    2.6203879047    1.4178570193
 C    2.3574744385    1.8216119658    1.9166008981
 C    2.2603728670    0.3766140080    1.6610114530
 N    2.6286522729    1.2409339887    0.5208911084
 C    1.4177718774    2.0006643822    0.0322214416
 H   -0.6364921253    1.9273797571   -0.6980984800
 H   -1.0954994055    2.6335532483    1.5260721695
 H   -0.3810686381    1.1833970727    2.2537484441
 H    1.1860617729    3.6943469334    1.5878274620
 H    3.1627855931    2.2519767744    2.5034243825
 H    3.1015066699   -0.2329832333    1.9775453418
 H    1.3145505149   -0.1524062165    1.6764744641
 H    1.6817710271    2.5811251108   -0.8507887748