21

 C   -1.3226982594    0.6070705596   -1.2740876785
 C   -0.1352599147   -0.2366956488   -0.8337703941
 C    1.2942145975    0.1612688942   -1.2891462726
 C    1.8285569860   -0.3249180154    0.0846225681
 C    2.9860603884    0.4135028446    0.7409379267
 C    0.3710634612   -0.2061650578    0.6495485499
 C    0.0670392276    1.0756200400    1.4227866228
 H   -1.1854070097    1.6650358882   -1.0281858495
 H   -1.4636127289    0.5387227989   -2.3588668753
 H   -2.2527135581    0.2725990890   -0.8001382333
 H   -0.3181675589   -1.2811292045   -1.1125561198
 H    1.6956458385   -0.3066566969   -2.1924835619
 H    1.3921426084    1.2480647816   -1.3941499244
 H    2.0820524253   -1.3889567955    0.0099233612
 H    2.7878764225    1.4865394182    0.8299529302
 H    3.1919977994    0.0279992430    1.7461266773
 H    3.9021437702    0.2976721252    0.1504733944
 H    0.0498904708   -1.0612363505    1.2541766706
 H    0.3628931039    1.9776023141    0.8767548335
 H   -1.0042434957    1.1583410004    1.6347230318
 H    0.5946602256    1.0865296525    2.3824239131