13

 N   -0.3317382787    1.0893260989   -0.0975163618
 C   -0.4849237218   -0.1417637681    0.1198797832
 O   -0.3832593009   -1.0181988211   -0.9072127227
 C   -0.5904250557   -2.3932058473   -0.5781909320
 C   -1.9833173633   -2.7202206330   -0.2992407305
 C   -3.1394789906   -2.9865130454   -0.0625091487
 C   -4.4391637407   -3.2878282727    0.2025916413
 C   -5.5922670130   -3.5552636967    0.4393309372
 H   -0.4248513508    1.6119510031    0.7709295888
 H   -0.6967719573   -0.6186735022    1.0860264552
 H   -0.2367131104   -2.9501205343   -1.4507898506
 H    0.0419867484   -2.6825160599    0.2732823208
 H   -6.6074554951   -3.7899489014    0.6446469199