16

 O   -0.0596887978   -0.0398888487   -0.0267387616
 C   -0.0370257622    1.1612222616    0.0039221044
 C   -1.1787763348    2.1356313654    0.0530721054
 C   -0.6932166499    3.3140838916    0.8379813613
 C    0.8274698320    3.2291038008    1.0823094190
 C    1.3507653766    4.2804304058    0.0565209611
 C    0.7237268250    3.2873218588   -0.9462040797
 C    1.1326535988    2.1264602818    0.0049076978
 N   -0.7615012281    3.3941978415   -0.6321478578
 H   -2.2148638703    1.8333655318   -0.0234449664
 H   -1.3524168120    3.9445984984    1.4232795193
 H    1.1876548241    3.1547671537    2.1065411801
 H    0.9398204659    5.2926739833    0.0933088436
 H    2.4409613818    4.3053126223   -0.0038093285
 H    0.9242490355    3.2886407825   -2.0158579673
 H    2.1403446254    1.7286826692   -0.0512258608