13

 N    0.1481165515    1.3981147596    0.0852440150
 C    0.0104151636   -0.0054263530    0.0051385679
 C   -1.0861169744   -0.8380975512   -0.1164071829
 C   -0.5932535920   -2.1753820450   -0.0833033332
 O   -1.3143394973   -3.3331327085   -0.1782078613
 C    0.7734567220   -2.1299006707    0.0467806245
 N    1.1225109714   -0.7904411567    0.1000469950
 H    0.3489501748    1.8163291032   -0.8192168179
 H   -0.7050379314    1.8211239823    0.4303164188
 H   -2.1123013242   -0.5248932003   -0.2427163787
 H   -2.2431294345   -3.1024535221   -0.2645090453
 H    1.5053395731   -2.9169327763    0.0966664841
 H    2.0380052074   -0.4284984012    0.3005225441