20

 C   -0.0621974807    1.1364086727    0.1346249085
 C   -0.3107147631   -0.1704727255   -0.5948279630
 O    0.9532940317   -0.6687200284   -1.0448649175
 C    0.9164156108   -1.8335287978   -1.7213772356
 N    1.9887701765   -2.3454113032   -2.1418362142
 C    1.9451179705   -3.6099210970   -2.8596413983
 C    0.6317638445   -4.0005487077   -3.4986125646
 C    0.2060468343   -5.4002780475   -3.6137524291
 O   -0.3829001682   -4.5400209988   -2.6378044674
 H    0.5965637970    0.9783086761    0.9926867900
 H    0.4094453309    1.8643915931   -0.5309094882
 H   -1.0084025218    1.5523720431    0.4928195938
 H   -0.7839063758   -0.9056414735    0.0699576538
 H   -0.9767568817   -0.0170736255   -1.4550658308
 H   -0.0903279524   -2.2511962477   -1.8455793767
 H    2.7059366133   -3.5654386558   -3.6507501571
 H    2.2623551183   -4.4106444216   -2.1779368329
 H    0.2458727016   -3.2936354170   -4.2359071324
 H   -0.4495468700   -5.7006953790   -4.4297506422
 H    0.8421255344   -6.1903355489   -3.2163860258