18

 O   -0.0017052825    1.4266149494    0.1416110935
 C    0.0514152579    0.0392644881    0.0507268838
 C    0.6719875253   -0.9774004516    1.0136975868
 N    0.0216413867   -1.8732258949   -0.0332615595
 C   -1.1861884956   -0.8818908784   -0.0297759288
 C   -1.7667150706   -0.9161099980   -1.4270367037
 C   -1.4470257798    0.2460403926   -2.3365323470
 C   -0.4847397645   -0.9150663623   -2.2405863428
 C    0.5300172803   -0.8812073420   -1.1194866250
 H    0.8996760789    1.7680168615    0.1389029630
 H    1.7620663804   -1.0649596956    1.0478047642
 H    0.2344627123   -1.0752616243    2.0107696373
 H   -1.8478243440   -0.9810759357    0.8317881771
 H   -2.5944306727   -1.5780068055   -1.6484261966
 H   -2.0270862353    0.3055213349   -3.2519004340
 H   -1.1800934721    1.2023580041   -1.9051882528
 H   -0.3337164784   -1.5747973805   -3.0859419594
 H    1.5930468337   -0.9734788617   -1.3500298959