14

 O    0.0924279808    0.0425231774    0.1677554035
 C    0.0051972359    1.2218468058    0.0055226337
 C   -1.1319030415    2.2023932028    0.0346483069
 C   -0.1122736700    3.2773101777    0.3992420290
 C    1.0829947265    2.3722068045   -0.0042613131
 C    1.3514224015    2.7184259517   -1.4597253732
 O    2.3649474260    2.5671514009   -2.0831577884
 C    0.0013720510    3.2403379860   -1.9873932056
 N   -0.8771841572    3.3817567286   -0.8189393358
 H   -2.1457790429    2.0316045416    0.3755895073
 H   -0.1637741047    4.0102584435    1.1931143094
 H    1.9554156339    2.2152110418    0.6232429701
 H    0.1248489444    4.2215951221   -2.4555099776
 H   -0.4157386336    2.5565940256   -2.7331335862