18

 C   -0.6409275000    1.3697040759    0.5603967336
 C   -0.3457173834   -0.0463170780    0.0873927071
 C    1.1225025682   -0.4376391390    0.2488460123
 O   -1.1776227918   -0.9198323883    0.8789016356
 C   -1.5708966644   -2.0962908260    0.2644991084
 C   -2.7386165670   -1.9070965439   -0.7015854146
 O   -3.2406440968   -0.8535001813   -0.9886405887
 C   -3.2291090684   -3.1749565827   -1.2931424028
 N   -3.5842339690   -4.1813702274   -1.7383588788
 H   -0.0398632900    2.0943364363    0.0032439202
 H   -1.6984062077    1.6004920210    0.4138953180
 H   -0.4055805007    1.4706260437    1.6245924683
 H   -0.6386635231   -0.1374101210   -0.9670412857
 H    1.4272870763   -0.3405201720    1.2952973006
 H    1.3026627792   -1.4709067667   -0.0651218681
 H    1.7604838519    0.2097954207   -0.3608826081
 H   -0.7639689330   -2.6071891022   -0.2906340797
 H   -1.8978117705   -2.8031894592    1.0400052422