19

 O   -0.9509192083    0.6180935742    0.0747454627
 C    0.1440775263   -0.2652717413   -0.1728341068
 C    1.1057542214    0.2948564182   -1.2420153490
 C    0.3889416718    0.5911998281   -2.5406362591
 C    1.1621147897    0.6398305287   -3.8444248425
 C    0.2064272771   -0.4936853647   -3.5633013595
 O    0.7115898244   -1.7569340490   -3.2323577520
 C    0.8587313248   -0.5885356254    1.0650110644
 C    1.4600028239   -0.8007049112    2.0845260760
 H   -0.6145715287    1.3481438219    0.6065914211
 H   -0.3147308914   -1.1759813320   -0.5740654515
 H    1.5773200808    1.2052307831   -0.8496966549
 H    1.9007316249   -0.4372655494   -1.4067909870
 H   -0.4410684350    1.2824094912   -2.4396288454
 H    0.8970225916    1.3809066518   -4.5909397227
 H    2.2204561356    0.4029645838   -3.7943117983
 H   -0.7335163462   -0.5127070334   -4.1143227627
 H    1.0832509147   -2.1491672240   -4.0288981170
 H    1.9791397224   -1.0107328605    2.9869345340