19

 O    0.1132013773    1.3187047022   -0.2993307974
 C   -0.0460595549   -0.0799123274   -0.0560722092
 C    0.6663433305   -0.5247755308    1.1942505300
 C   -0.1876406297   -0.8845253730    2.1529472925
 C   -1.6252659677   -0.8048694926    1.7038450324
 C   -1.5239669812   -0.5239582269    0.1903119309
 C   -2.6256794380    0.2776618025   -0.5317745620
 C   -2.8285975677   -1.0024514196   -1.3622651951
 O   -1.8349807213   -1.7124280430   -0.5927784866
 H    0.0411285988    1.7681940780    0.5501991380
 H    0.3145748798   -0.5713621082   -0.9649370813
 H    1.7462605494   -0.4917397298    1.2835738158
 H    0.0932027373   -1.2013670982    3.1519900589
 H   -2.1766179403   -1.7375572743    1.8639984290
 H   -2.1728081433   -0.0163839801    2.2384132898
 H   -3.4731405321    0.5562043529    0.0978595671
 H   -2.2620004749    1.1544988285   -1.0674291349
 H   -3.8142624457   -1.4770752514   -1.2904206678
 H   -2.5488453065   -0.9267440387   -2.4202861102