17

 O   -0.0370218723    1.4097592201    0.0109696319
 C   -0.0260190601    0.0191070610   -0.0423900570
 C    0.4831903752   -0.7686961645   -1.2701152263
 C   -0.5465153385   -1.8530718788   -0.8715834217
 C   -0.1187922465   -2.5288560264    0.4940211290
 O    1.1182472421   -1.9611302955    0.9839758880
 C    0.3873653237   -0.7545283158    1.2869214915
 C   -0.9787304619   -1.4959954545    1.2780935727
 C   -1.3662006625   -0.7898713264   -0.0529637593
 H    0.8725618935    1.7166906398    0.1053724612
 H    0.1810913100   -0.2643549144   -2.1923957847
 H    1.5381817040   -1.0507749747   -1.3072696154
 H   -0.9851399002   -2.5023069404   -1.6278779258
 H   -0.1511089753   -3.6153499971    0.5798835749
 H    0.8180205821   -0.1670910623    2.1005022202
 H   -1.5950942089   -1.7057466576    2.1498172883
 H   -2.3311085344   -0.3801123524   -0.3391720576