21

 C    0.0218796208    1.5582178559   -0.0324306688
 C   -0.0114355697    0.0197148389    0.0453651469
 C    0.7326722922   -0.4828835359    1.2965487272
 C   -1.4209390869   -0.5053319661    0.0035802569
 C   -1.9656823186   -1.3115864493   -0.9158408218
 C   -3.4174831061   -1.6419588047   -0.6347175946
 C   -3.6701108811   -0.9445116751    0.6966090385
 O   -2.8630323989   -1.4212440391    1.7749638379
 C   -2.4406761062   -0.2274121719    1.0719955724
 H    1.0552722990    1.9197979458   -0.0473474685
 H   -0.4807751599    1.9206241648   -0.9340800001
 H   -0.4716488841    2.0122392632    0.8342239205
 H    0.5079789430   -0.3699768090   -0.8394633058
 H    0.7457576077   -1.5757101348    1.3351935949
 H    1.7674634618   -0.1244746623    1.3010785780
 H    0.2509401748   -0.1237486008    2.2126314257
 H   -1.4294842736   -1.7321404767   -1.7604970376
 H   -4.0870761779   -1.2570655751   -1.4152216474
 H   -3.5962482528   -2.7220571461   -0.5664628069
 H   -4.6664183868   -0.6095473556    0.9729672614
 H   -2.4277585967    0.6750404339    1.6760883311