19

 C   -0.1391880432    1.4948625855   -0.0154031644
 C    0.0030189926   -0.0112400646    0.0450160224
 O    0.0912265361   -0.6093925615    1.0877067462
 C    0.0108964245   -0.7866704962   -1.3123500136
 C   -0.0070015452   -2.3026148617   -1.0407054856
 C   -1.2337416329   -0.3607382455   -2.1463524602
 O   -2.4351447360   -0.4316806456   -1.4043166125
 C    1.2145588224   -0.4135548835   -2.0523729477
 C    2.1951476033   -0.0967133485   -2.6729017629
 H    0.4586127257    1.9274409379   -0.8214900245
 H   -1.1914132352    1.7341265709   -0.2063706614
 H    0.1494803380    1.9228036061    0.9452652518
 H   -0.9033208322   -2.5804800373   -0.4783867220
 H    0.0171976828   -2.8550093881   -1.9839886290
 H    0.8513438632   -2.5958043231   -0.4358556617
 H   -1.1314688876    0.6809004483   -2.4580339783
 H   -1.2707623300   -0.9763311922   -3.0559824523
 H   -2.6275211666   -1.3558054431   -1.2172594814
 H    3.0674634003    0.1756755524   -3.2143634528