14

 O   -0.1738782196    1.4746362998    0.1256822798
 N    0.0349452801    0.0825948674    0.1363213361
 C   -1.0413529337   -0.5484599873    0.0036246207
 C   -2.5599167561   -0.5008208581   -0.1057121963
 C   -2.4672976202   -1.6251430402   -1.1739303614
 C   -1.5170951731   -2.0031397174   -0.0037085814
 O   -2.5768423433   -1.5607681138    0.9493183298
 C   -0.7684536793   -3.2646244963    0.2935480169
 O   -0.2273573317   -3.9203863371   -0.5567911892
 H    0.7221784420    1.8115570528    0.2361522491
 H   -3.2596754216    0.3241074940   -0.0072360750
 H   -3.3575548195   -2.2526996161   -1.2339618536
 H   -2.0211285670   -1.3924567223   -2.1420062081
 H   -0.7465253869   -3.5341110855    1.3705462524