21

 C   -0.3203971265    1.4861300400   -0.0243786653
 C    0.1496820692    0.0303840945    0.0950772709
 C    0.8225590673   -0.4891328944   -1.1574584191
 C    0.0165361971   -0.9259270290   -2.3601948929
 C    0.8053155554   -1.9512128363   -1.5830646316
 C    2.2035583526   -2.3592439767   -2.0588992335
 C    3.0426155918   -1.0894493731   -2.0065724737
 O    2.5893544690   -0.0314311460   -2.8635308801
 C    2.2212998000    0.0114310245   -1.4768008058
 H    0.5169172896    2.1624673748   -0.2269322923
 H   -1.0383331483    1.5987511513   -0.8430322357
 H   -0.8021893637    1.8224236076    0.8989967106
 H    0.8360625919   -0.0657599088    0.9477563806
 H   -0.7086542788   -0.6118931506    0.3261766479
 H   -1.0627617901   -0.9507338474   -2.2450541740
 H    0.3693412655   -0.6285740780   -3.3397864801
 H    0.2422360623   -2.6760418346   -1.0037037380
 H    2.6339805494   -3.0968333360   -1.3714077101
 H    2.2067021662   -2.8063551570   -3.0591657035
 H    4.1226486623   -1.1500057987   -1.8881873846
 H    2.6328527077    0.8467870238   -0.9155991098