16

 N    0.1526249792    1.2225771492    0.4607946230
 C    0.0408426435   -0.0090416938   -0.1270347410
 O    0.9524299959   -0.5397655025   -0.7357366742
 C   -1.2645877225   -0.6764854635    0.0466237251
 C   -1.5788875944   -2.1712948220    0.2343307926
 C   -2.5518912073   -1.8546625268    1.3727093402
 C   -2.6895348312   -0.4661157998    0.7003618864
 O   -3.3370577546   -0.7633997815   -0.5688944997
 C   -2.1221585143   -1.4004871047   -0.9564396545
 H    0.9795099296    1.7574892176    0.2464892076
 H   -0.6619023521    1.7211386775    0.7756459593
 H   -0.8720484739   -2.9834462555    0.1335138107
 H   -3.4723904018   -2.4395753032    1.4596217194
 H   -2.0348036384   -1.7944807040    2.3329806603
 H   -3.1007037148    0.4083666056    1.2014557189
 H   -1.9421412229   -1.6282700325   -1.9976794540