21

 C   -0.0855051175    1.5530342136   -0.1591377034
 C    0.0201333460    0.0282984346   -0.0931515359
 C    0.8318899005   -0.6107082564   -1.2365351499
 C    0.7682207894   -2.1496954230   -1.1238855947
 O    1.3159816930   -2.7883453530   -2.2535425578
 O    0.2472818510   -0.2649564038   -2.5165799103
 C    1.1667124700    0.4919621064   -3.3058459025
 C    2.4336825155    0.5300531492   -2.5001985588
 C    2.2445043604   -0.0902861735   -1.3436082049
 H    0.8966473370    2.0306679282   -0.0957032704
 H   -0.5529887991    1.8633834673   -1.0978094234
 H   -0.6984399840    1.9327870806    0.6636858014
 H    0.4722414373   -0.2794479752    0.8590670305
 H   -0.9857798523   -0.4075809469   -0.1136890441
 H    1.3426457918   -2.4825387110   -0.2525738638
 H   -0.2816182962   -2.4448348229   -0.9644006581
 H    0.8692073968   -2.3867524789   -3.0087751056
 H    1.3004617506    0.0061285231   -4.2840175939
 H    0.7614723659    1.4980382285   -3.4969006280
 H    3.3425131669    1.0043710419   -2.8480510607
 H    2.9713223570   -0.2267096789   -0.5526410257