20

 C    0.0591313073    1.5097632356    0.1348619740
 C   -0.0850786539   -0.0009283293   -0.0615980639
 C    0.7422544552   -0.5252280735   -1.2342379822
 N    0.5561652808   -1.9542796222   -1.4093340273
 C    1.2750873171   -2.5970424705   -2.4066868463
 C    1.8629258185   -2.0755462247   -3.5380463789
 N    2.3888263932   -3.1787994072   -4.1993376065
 C    2.1111009102   -4.2715885537   -3.4494135805
 N    1.4414442966   -3.9619119243   -2.3597361636
 H    1.1016587031    1.7895692105    0.3220187678
 H   -0.2771663834    2.0588516810   -0.7515406437
 H   -0.5357019489    1.8561954382    0.9850590535
 H    0.2243508466   -0.5209069485    0.8555289743
 H   -1.1361046767   -0.2644457566   -0.2268834635
 H    0.4193705198   -0.0226545242   -2.1565341249
 H    1.8057771244   -0.2580920613   -1.0922705865
 H    0.5746870524   -2.4841344564   -0.5479528308
 H    1.9533897796   -1.0781747267   -3.9293828965
 H    2.8914580526   -3.1611550070   -5.0695885014
 H    2.4176010455   -5.2660603491   -3.7372064233