14

 C   -0.0113913041    1.4019150067   -0.0552536698
 N   -0.1231086778    0.0280333411   -0.4986495141
 C   -1.0588279117   -0.6607524326   -0.0266835485
 O   -1.1976317438   -1.9620365940   -0.3752598589
 C   -2.3609961118   -2.6326989300    0.0707629345
 C   -2.0137663927   -4.0944493590    0.3130880753
 O   -2.8429242873   -4.9422505296    0.5019327817
 H    0.9664788571    1.5567798614    0.4141497537
 H   -0.0574740263    2.0701645302   -0.9222235451
 H   -0.7914858267    1.7077596587    0.6608599586
 H   -1.8146372827   -0.3035856360    0.6912908697
 H   -2.7381205259   -2.2081894382    1.0132034666
 H   -3.1669525916   -2.5695113874   -0.6713479975
 H   -0.9219181149   -4.3022470715    0.3098445438