21

 C    0.0328608782    1.5164398034    0.1237220117
 C    0.0320215151    0.0298638680   -0.0256476490
 C   -0.0086815857   -0.7830580729   -1.1431555840
 C   -0.0659029576   -0.3533842969   -2.5783589951
 C    0.0144720289   -2.1444606338   -0.6909090747
 C   -0.0133753045   -3.3697969652   -1.5511454051
 C    0.0678865697   -2.1146730523    0.6864650075
 N    0.1091111856   -3.1142115015    1.6911167288
 N    0.0777612637   -0.7944891753    1.0734355990
 H    0.9364309967    1.8813290438    0.6294188150
 H   -0.0092595877    2.0003460701   -0.8542740247
 H   -0.8286196397    1.8749507908    0.7021844471
 H    0.7935744282   -0.7252278663   -3.1509158117
 H   -0.9647565493   -0.7310224874   -3.0825587815
 H   -0.0733137114    0.7357019117   -2.6775559139
 H    0.8381287810   -3.4094362970   -2.2424399407
 H    0.0197969185   -4.2774269987   -0.9396813359
 H   -0.9200517652   -3.4229052104   -2.1673533514
 H    0.9358974514   -3.6975719124    1.6113962687
 H   -0.6955377559   -3.7307132096    1.6435705325
 H    0.1108522499   -0.5066648081    2.0364160874