21

 C    0.0065584569    1.5346545846   -0.0208622151
 C    0.0210595839    0.0203356087   -0.0110569836
 C   -1.2152823024   -0.6627737331   -0.6020171008
 C   -1.7309668345   -1.8070056766    0.2738269302
 O   -0.6636133556   -2.6461434720    0.7124654038
 C    0.1488942861   -1.9820202653    1.6797719308
 C    0.7343223559   -0.6923630769    1.1426028961
 C    1.3460089404   -0.6858340785   -0.2350905610
 O    1.4466829401   -1.8464305321   -1.0026879030
 H    0.9530740899    1.9449028698    0.3467831713
 H   -0.1498860598    1.9197973143   -1.0356716278
 H   -0.7945622107    1.9331025694    0.6139118592
 H   -2.0175782947    0.0709272033   -0.7342998432
 H   -0.9713716651   -1.0521193796   -1.5982149767
 H   -2.2614350771   -1.4127294076    1.1547921890
 H   -2.4205956534   -2.4521170468   -0.2773633493
 H   -0.4487018366   -1.7841279337    2.5839937137
 H    0.9369940512   -2.6951498145    1.9445315325
 H    1.1951781558   -0.0661301037    1.9026404096
 H    2.2149320576   -0.0556861504   -0.4019359683
 H    0.7824651221   -2.4724248492   -0.6789127474