21

 C   -0.0345968793    1.5755742686    0.1266999156
 C    0.0011202740    0.0441197912    0.2027131797
 C   -1.3841655447   -0.5771421127    0.0540665707
 C   -2.0245338215   -0.7268509531   -1.3880750545
 C   -1.1461255232   -2.0136602505   -1.5537183404
 C   -1.4999178961   -2.1406693976   -0.0273825888
 O   -0.7730760492   -2.9075757808    0.8792840151
 C   -3.0305235300   -2.2920198340   -0.1190989345
 C   -3.3703950213   -1.3615357076   -1.0148362823
 H    0.9633254685    2.0017112067    0.2691465489
 H   -0.4070570446    1.9195572549   -0.8444049632
 H   -0.6896132339    1.9953284664    0.8981267240
 H    0.6982381241   -0.3408618939   -0.5483052032
 H    0.4052174288   -0.2659478673    1.1745116345
 H   -2.0630643392   -0.1300958525    0.7878391746
 H   -2.0065898285    0.0808405441   -2.1174258787
 H   -1.5263069632   -2.7885717277   -2.2236970235
 H   -0.0891374931   -1.8181453471   -1.7457118950
 H   -0.9269275011   -3.8385208880    0.6864956161
 H   -3.6335834682   -2.9835326975    0.4535164095
 H   -4.3425741382   -1.0794911216   -1.3943536947