21

 C    0.1146738526    1.5277381528    0.0075282300
 C    0.0256894327    0.0243494430   -0.0095320821
 C    0.6050698773   -0.9437773082   -1.1251778316
 C   -0.0738715072   -1.8629127125   -0.0710135090
 C    0.6041618899   -0.9719122585    1.0210172825
 C   -0.6150352604   -3.2436981428    0.2561086792
 C   -1.8329945493   -2.8188180338    1.0919738933
 C   -2.1472246261   -1.5178107469    0.9786985952
 C   -1.2670194015   -0.8808644226   -0.0689208168
 H    1.1583462988    1.8613826959   -0.0151471492
 H   -0.3962555118    1.9651757060   -0.8573896629
 H   -0.3477996178    1.9367099756    0.9125855841
 H    0.1349302060   -0.8922287853   -2.1118851569
 H    1.6958842481   -0.9789063304   -1.2021495239
 H    1.6955412276   -1.0317452558    1.0776103645
 H    0.1513099134   -0.9768337129    2.0139994816
 H   -0.9281823527   -3.8173676772   -0.6275112942
 H    0.0828815847   -3.8726788006    0.8200241894
 H   -2.3774228253   -3.5319813207    1.7035746289
 H   -2.9942649076   -1.0490030165    1.4681497785
 H   -1.8070128613   -0.7760553087   -1.0210117004