18

 C   -0.0936393953    1.5772328298   -0.0754390311
 C    0.0225106061    0.0553729616   -0.0257180837
 O    0.7499569395   -0.4534932350   -1.1314867273
 C    0.7753869877   -0.4790312515    1.2427210041
 C    2.2571557001   -0.0177786053    1.2715098123
 C    0.0768539791   -0.0475080492    2.4590530956
 C   -0.4833257979    0.3237581471    3.4541384513
 C    0.7428295589   -1.9570985784    1.1894411959
 N    0.7229906541   -3.1115192061    1.1634823863
 H    0.8904553218    2.0441513345   -0.1650800324
 H   -0.6833666308    1.8675219866   -0.9514102024
 H   -0.5965526726    1.9665595773    0.8129793627
 H   -0.9853420897   -0.3823099760    0.0080754543
 H    0.2416569669   -0.2908961891   -1.9315423896
 H    2.3063431666    1.0644980111    1.4037333958
 H    2.7780313334   -0.4909798713    2.1055581551
 H    2.7426274653   -0.2943163830    0.3351467674
 H   -0.9812288933    0.6393976668    4.3380250660