15

 N   -0.0788801079    1.2233333839   -0.5793594926
 C    0.0502478353    0.0331839445   -0.1964195996
 N    1.0729180799   -0.7980002420    0.2748625137
 C    0.2304750049   -1.9720787009    0.4936292329
 C   -0.5512275388   -2.0646279576    1.8271813957
 N   -1.5490394861   -1.0796925292    1.3314327209
 C   -0.9722391766   -1.1106851678   -0.0446416287
 C   -1.8394294778   -1.4856129480   -1.1338936061
 N   -2.5513027671   -1.8052437903   -1.9870654026
 H    0.7865323316    1.7583269972   -0.4935075229
 H    1.8732417217   -0.5180678211    0.8245516876
 H    0.5893181205   -2.8916212760    0.0330322981
 H   -0.9534432686   -3.0720363626    1.9861919597
 H   -0.0220332745   -1.7440128510    2.7302233324
 H   -2.5119513066   -1.3905675389    1.3728263214