18

 C   -0.1272715006    1.5897556015    0.0618783439
 C    0.0185159592    0.0730410854    0.0773192212
 O   -1.2321888666   -0.5930857637    0.1954338996
 C    0.7565161779   -0.4590234270   -1.1749657552
 O    1.9951145948    0.2108326466   -1.2669578834
 C    2.7031166194    0.0744437992   -2.4145735223
 N    3.8231033555    0.6413418196   -2.5170814679
 C    0.9267011219   -1.9765613025   -1.1099896399
 O    1.9586928430   -2.5396204277   -1.3647034284
 H    0.8497587781    2.0738541492    0.0154223428
 H   -0.7063071618    1.9137242708   -0.8131101662
 H   -0.6495595579    1.9196183911    0.9638434385
 H    0.5944851646   -0.2281033385    0.9599175522
 H   -1.8624212589   -0.1486511776   -0.3825030932
 H    0.1202513291   -0.2422347396   -2.0529794843
 H    2.1942068541   -0.5245614528   -3.1781104084
 H    4.2215306597    0.4601194039   -3.4358586864
 H    0.0071055784   -2.5194092280   -0.8156456426