23

 C   -0.3956557871    1.3824861696    0.0660472051
 C    0.0136312619   -0.0616280772   -0.1754032812
 C    1.2212012932   -0.2692688111   -1.0952085192
 C    1.7435976825   -1.6367301708   -0.6342650623
 C    1.1474377133   -2.8416383218   -1.4312933360
 C    2.4742354389   -2.9320150207   -2.2308880102
 C    3.1501527486   -2.0539151335   -1.1431068776
 C    1.4847451511   -1.5527262861    0.8729063905
 O    0.3950866993   -0.6548869482    1.0727018359
 H    0.4489273940    1.9612019523    0.4532988834
 H   -0.7416430726    1.8457311161   -0.8638689605
 H   -1.2082178785    1.4322730371    0.7964164631
 H   -0.8502975345   -0.6156332511   -0.5815346509
 H    0.9597609387   -0.2353293024   -2.1566684880
 H    1.9728212945    0.5076351113   -0.9039989888
 H    0.9940790109   -3.7143291114   -0.7893374309
 H    0.2265005950   -2.6616535174   -1.9935444273
 H    2.8896909514   -3.9277423487   -2.4003634329
 H    2.4128073495   -2.4175489753   -3.1936036286
 H    3.8139523663   -1.2503052380   -1.4748249121
 H    3.6849140182   -2.6589970210   -0.4035015645
 H    1.2392712566   -2.5306164070    1.3074685473
 H    2.3731553486   -1.1672983648    1.3970966956