16

 C   -0.0055040186    1.5694339677    0.0089084997
 C    1.4810430018    1.8650728841    0.0162053993
 C    2.1044764929    0.6346355876    0.5886001159
 O    1.1177369574   -0.3134884271    0.8661391996
 C    0.0240262446    0.0176480974   -0.0349359167
 C    0.4188160692   -0.4303864021   -1.4164471133
 C    1.5923214890    0.0586498911   -1.8357082147
 C    2.3128793622    0.9451045947   -0.9041250178
 H   -0.4613242894    1.9258655943    0.9380744041
 H   -0.5485298483    1.9856241360   -0.8428809601
 H    1.8485081961    2.8623498618    0.2200254871
 H    2.9386460748    0.5956608917    1.2766041156
 H   -0.8717731980   -0.4660904914    0.3528745530
 H   -0.1921466905   -1.1189874350   -1.9873082161
 H    2.0413884730   -0.2035570073   -2.7879755300
 H    3.2884666039    1.3189963264   -1.1915092657