19

 C   -0.1823397068    1.6730458189    0.1135794584
 C   -0.0498295168    0.1769126532   -0.1738945074
 C   -1.3552178869   -0.5854418364    0.0897868432
 O   -2.4288731588   -0.1684637603   -0.7577342453
 C   -2.5780866238   -1.1095761442   -1.8268118846
 C   -2.3184959152   -2.4666368938   -1.1645389842
 O   -1.9357292276   -3.5015095731   -2.0219152904
 C   -1.2103049616   -2.0768381513   -0.1900881200
 O   -0.3355947093   -2.8238052671    0.1704939871
 H    0.7472333869    2.2002939814   -0.1194537112
 H   -0.9850053537    2.1099774685   -0.4866226459
 H   -0.4153679196    1.8529800583    1.1688813160
 H    0.2513810752    0.0173599221   -1.2164114107
 H    0.7282268082   -0.2793327464    0.4486705752
 H   -1.6688797067   -0.4223190210    1.1298590427
 H   -3.5846546065   -0.9899267096   -2.2301089120
 H   -1.8475982256   -0.9450651110   -2.6328747130
 H   -3.2054638288   -2.7378237089   -0.5641748723
 H   -1.2081541926   -3.9621704792   -1.5777055355