16

 C    0.1056730805    1.3327903488   -0.2526342274
 C   -0.0364987656   -0.1396712830    0.1567521549
 N   -1.4251868670   -0.5794794294    0.0790069351
 C   -1.8898609438   -1.0113999230   -1.0162799228
 O   -1.1362110181   -1.0856715971   -2.1758006056
 N   -1.6672395428   -1.6480127781   -3.3441903773
 C   -2.8899523958   -2.0308894767   -3.2827608729
 N   -3.7739015070   -1.9575895953   -2.2063230404
 C   -3.2712974206   -1.4644543790   -1.1330646947
 H    1.1378357795    1.6657586362   -0.1079045035
 H   -0.1545127232    1.4700332368   -1.3058358202
 H   -0.5504107771    1.9655938598    0.3516699507
 H    0.6189504898   -0.7591997239   -0.4685292970
 H    0.2804318434   -0.2585696170    1.1975218237
 H   -3.2755066190   -2.4623820917   -4.2003260164
 H   -3.8836213631   -1.3704359874   -0.2386146363