18

 O   -0.0267361426   -0.0694148284   -0.3728492392
 C   -0.0200731780    1.0811122314   -0.0163621230
 C    1.2108653290    1.9529497542   -0.0223566827
 C    1.0225439014    3.3755661047   -0.6029243181
 O    1.3006571407    4.0015429568    0.6666782331
 C    1.5501608994    2.7254399332    1.2972367126
 C    0.6891966864    2.5121186514    2.5186371700
 C    0.4530104919    3.6377518814    3.4520076616
 N   -0.6409443040    3.1299470925    2.5988965089
 H   -0.9488151661    1.5786084878    0.3394158800
 H    2.0417304435    1.3842129197   -0.4395804647
 H    1.7543027314    3.6562656084   -1.3676945068
 H    0.0146645008    3.6152123789   -0.9640499675
 H    2.6092613673    2.6178286859    1.5673262508
 H    0.7410083506    1.5008972696    2.9198327588
 H    0.3394430831    3.4463828847    4.5146913907
 H    0.8864395686    4.6002977235    3.1958290178
 H   -0.7294498334    3.7751903242    1.8147311876