21

 C   -0.0464105360    1.5322672656   -0.0932980784
 C    0.0298981095    0.0195706216   -0.0179216231
 C    1.3759856000   -0.6719074753   -0.2237408058
 C    0.7174418429   -0.6863981806    1.1336831907
 C    1.3257017464    0.0549758489    2.2977951300
 O    0.1540387164   -1.8817976245    1.6311757704
 C   -0.7775532188   -2.5166518322    0.7914752512
 O   -1.7614977395   -1.6439707343    0.3288144444
 C   -1.2125241645   -0.6893437602   -0.5719715506
 H    0.8758721030    2.0114867566    0.2437771472
 H   -0.2187193060    1.8539881412   -1.1278927565
 H   -0.8706709996    1.9206169679    0.5160464287
 H    1.3938887030   -1.5856963006   -0.8097744986
 H    2.2561316996   -0.0491767637   -0.3494436303
 H    1.8524869701    0.9551805411    1.9763235147
 H    0.5531760965    0.3379684460    3.0195783298
 H    2.0426206383   -0.5955170482    2.8087505128
 H   -0.2658042368   -3.0027452787   -0.0606259378
 H   -1.2693224672   -3.2756069040    1.4036151583
 H   -2.0090458149    0.0388379278   -0.7453726919
 H   -0.9878881524   -1.1772379744   -1.5345107949