19

 C    0.1123990431    1.5177228738   -0.0423370401
 C   -0.0459992431    0.0196943662    0.0543784197
 C   -1.3538715614   -0.5529770219   -0.4911345618
 O   -2.3580820403   -0.6399902001    0.5098341371
 C   -2.2840529675   -1.7917226963    1.3087800800
 O   -1.2347381731   -1.8159322927    2.2398265388
 C    0.0538259454   -2.0177896889    1.6752456458
 C    0.6431431485   -0.7316030584    1.1132815051
 O    1.1327422879   -0.7532822089   -0.2354241963
 H    1.0463489727    1.8449039073    0.4205442398
 H    0.1170944018    1.8373102697   -1.0903587093
 H   -0.7243123715    2.0156522478    0.4588700953
 H   -1.7564500217    0.0990078913   -1.2725763716
 H   -1.1565917383   -1.5378083538   -0.9368546946
 H   -3.2053977880   -1.8107882093    1.8946231521
 H   -2.2207244353   -2.6847173087    0.6594106113
 H    0.6815037912   -2.4029166149    2.4837818882
 H    0.0211575454   -2.7756610253    0.8791821255
 H    1.2694863942   -0.1611486172    1.7998178249