18

 C    0.7161517421    1.3787399763    0.2615817274
 O    0.0222139818    0.1965441030   -0.1037148862
 C    0.5688486775   -0.4628782839   -1.2193376637
 C    0.1764387585    0.3062363626   -2.4697957184
 O    0.7299507418    0.2804775972   -3.5421074567
 C    1.9709311812   -1.1622807626   -1.1177331007
 C    1.3617965732   -2.1317899266   -0.0697716438
 C    0.3589435199   -2.0240757995   -1.2462539194
 N    1.5468404790   -2.1731312231   -2.1685516144
 H    1.7435298832    1.1604211143    0.5837701630
 H    0.7591007129    2.1055137159   -0.5630609393
 H    0.1686963721    1.8252570602    1.0940302311
 H   -0.7332176855    0.9259912286   -2.3037506581
 H    2.9563685074   -0.6957540290   -1.1349211377
 H    1.8693115302   -3.0937312267   -0.0032906740
 H    1.0547765244   -1.7223041991    0.8893633155
 H   -0.5796902406   -2.5565780460   -1.4041986317
 H    1.3813601808   -1.6937307315   -3.0551193329