18

 C   -0.0250662928    1.3538665350   -0.3843994093
 C    1.4360530001    1.5988223912    0.1234939624
 C    1.1399929545    0.3744292960    0.9748880232
 C    1.6220757673   -0.8369778384    1.8628179534
 C    0.4485542530   -1.7973015639    1.5155129590
 C   -0.5666113569   -0.6469212543    1.2593890441
 C    0.1609335772    0.4354351503    2.1808526829
 O    1.0929383866   -0.1998155659    3.0597011041
 N    0.0894087074   -0.0980309259    0.0239201846
 H   -0.7645914238    1.9357905493    0.1780071210
 H   -0.2135915473    1.4698171994   -1.4531529979
 H    2.1731914910    1.4113555243   -0.6610006523
 H    1.6618528057    2.5343493383    0.6371688361
 H    2.6372168409   -1.2146111405    1.9656158414
 H    0.5908592893   -2.3991688742    0.6173653037
 H    0.2140731816   -2.4211478242    2.3796474768
 H   -1.6326601959   -0.8714694257    1.2623583462
 H   -0.3537525778    1.2985229393    2.5992393107