16

 C   -0.0463885641    1.5006529890    0.0093127523
 C    0.0319564573   -0.0092189722    0.0032708801
 O    1.0873993434   -0.6079550493   -0.0070211879
 C   -1.2688840169   -0.7721547634    0.0104845634
 N   -2.4050998318   -0.0622006796    0.0217987511
 C   -3.5551231182   -0.7359063488    0.0281878938
 C   -3.6300905527   -2.1279079830    0.0236798852
 C   -2.4449998037   -2.8579975364    0.0119154953
 C   -1.2397936855   -2.1687202449    0.0051710386
 H    0.9637767492    1.9107205880    0.0032340852
 H   -0.6093858747    1.8555350863   -0.8590945243
 H   -0.5963661667    1.8492565047    0.8885316549
 H   -4.4628394323   -0.1370766943    0.0373271736
 H   -4.5956328407   -2.6213419213    0.0292914075
 H   -2.4624263019   -3.9428637200    0.0080907414
 H   -0.2802152905   -2.6703180348   -0.0040285003