20

 C   -0.3373486768    1.3936641733    0.0900666487
 N   -0.0579296813   -0.0328020465    0.1573499731
 C    1.2531315163   -0.4981128875   -0.2512005125
 C    0.8531603916   -0.5569919602    1.1988457498
 C    1.5422598708    0.3622207243    2.1981328688
 C    0.4408592228   -1.8244708233    1.7580448546
 C    0.1347793313   -2.8760814520    2.2620471698
 C   -0.3148952486   -4.1361658097    2.8510563840
 O   -1.4272900155   -3.9899592712    3.7246389208
 H    0.5395507721    2.0443801081    0.2256912693
 H   -0.7647446200    1.6107959258   -0.8941899305
 H   -1.0835110419    1.6549537458    0.8467867402
 H    1.2783258705   -1.4038630313   -0.8506747073
 H    2.0079703768    0.2460530125   -0.5081646495
 H    1.9142555610    1.2755032157    1.7299521298
 H    0.8581240389    0.6376409378    3.0069382143
 H    2.3936515395   -0.1572064029    2.6468553980
 H   -0.5319550860   -4.8557796496    2.0451254031
 H    0.4836014263   -4.5766031620    3.4588365285
 H   -2.0951115177   -3.4820640171    3.2519936371