17

 O    0.0414623390    1.3949364998    0.1650800939
 C    0.0702183809    0.0175570952   -0.1356590504
 C   -1.3434064540   -0.5669684478   -0.0973132956
 C   -1.5314925638   -2.1092988516   -0.0346806335
 N   -2.1167317385   -1.9332993324    1.3089696068
 C   -2.5744173945   -2.8814834740    2.2100305031
 N   -3.0351058431   -2.5745862416    3.3505989972
 C   -1.9351415037   -0.5444716539    1.3206966358
 O   -2.0990120992    0.3051772469    2.1516185686
 H   -0.4333309629    1.4975575155    1.0010600938
 H    0.5046748288   -0.0809761263   -1.1361086824
 H    0.7167618223   -0.5437594449    0.5604767148
 H   -1.9789546187   -0.0664575507   -0.8314939810
 H   -2.2248963743   -2.5300606161   -0.7674925873
 H   -0.6015315766   -2.6868428818   -0.0278379305
 H   -2.4836268266   -3.8952834558    1.7986180724
 H   -3.3162408151   -3.4150809504    3.8527475545