19

 C   -0.0789703659    1.5278760127    0.0342800040
 C   -0.0511136933    0.0135898785    0.0575886584
 C   -1.2700870276   -0.6608318069   -0.5380197380
 N    1.2855486879   -0.5757210068   -0.2108807129
 C    0.7029281083   -0.6924555528    1.1197746728
 C    1.3518427277   -0.1948934027    2.4073519582
 O    0.9137884352   -1.3860480448    3.1031088916
 C    0.3478861897   -1.9542912480    1.9045490786
 H    0.8477972157    1.9407424068    0.4391846661
 H   -0.1894649070    1.8954788038   -0.9920361503
 H   -0.9195331502    1.9135375377    0.6220227365
 H   -1.3775880764   -0.3986991389   -1.5969124604
 H   -1.2071006693   -1.7512069211   -0.4651887548
 H   -2.1856164880   -0.3435118486   -0.0263149287
 H    1.1950154113   -1.4569694119   -0.7141931777
 H    2.4452988573   -0.1148193266    2.3664636330
 H    0.9333552130    0.7168226090    2.8514197224
 H   -0.7198779653   -2.1832387532    2.0181437878
 H    0.8774542370   -2.8651000962    1.5895460735