20

 C   -0.2835783343    1.5118419095   -0.0422755179
 C   -0.0739529665    0.0026892153    0.0148727445
 C    0.5067713468   -0.6456629307   -1.2673958533
 C    1.2941658809   -1.8717129943   -0.7515116592
 C    1.5891783016   -1.5458805940    0.7067268205
 C    2.2502260549   -0.2393894511    1.0328699278
 C    2.9372972058    0.5594721568    0.0560472778
 C    3.5919365031    1.2347267022   -0.6959591640
 N    0.7764711206   -0.4132270201    1.1572112113
 H    0.6550160979    2.0353649517   -0.2413327082
 H   -0.9916927583    1.7660130894   -0.8375873636
 H   -0.6891311347    1.8784968762    0.9050881679
 H   -1.0409705714   -0.4705286975    0.2312779867
 H   -0.2842782531   -0.9277387588   -1.9675351196
 H    1.1697778295    0.0502519872   -1.7836840274
 H    0.6848410115   -2.7807421618   -0.7919502860
 H    2.2025690044   -2.0617106462   -1.3308115514
 H    1.7173397875   -2.3701424741    1.4042469087
 H    2.7066312583   -0.1653290126    2.0182550535
 H    4.1525744455    1.8337104429   -1.3702476682