20

 C    0.1529301240    1.4891380094   -0.4227125651
 C    0.0075863739    0.0530551190    0.0191051791
 N    1.2358223312   -0.7592900043    0.1184014619
 C    0.4513517839   -0.4781213932    1.3340401571
 C    1.1406935409    0.3527824456    2.4025998189
 O    0.1998349716    0.9259347623    3.2923282836
 C    2.1405661966   -0.5060135815    3.1627411631
 C    2.5443405879   -0.1862402727    4.5332125144
 O    1.5726007973   -1.2155503417    4.2766082355
 H    1.0798353420    1.9311713451   -0.0513588327
 H    0.1738112984    1.5503224718   -1.5159956449
 H   -0.6877457696    2.0918289002   -0.0637532338
 H   -0.8667502834   -0.4478221917   -0.3961781829
 H    1.0710839818   -1.7086422965   -0.2036192174
 H   -0.1419780652   -1.2930970285    1.7499248024
 H    1.6822445571    1.1767957638    1.9274986620
 H   -0.0200606204    0.2249452854    3.9225677335
 H    2.8087731651   -1.0984311657    2.5393992254
 H    3.5005863559   -0.5433414705    4.9102197705
 H    2.1483268308    0.7087794538    5.0064958695