18

 C    0.0495566382    1.4438585296    0.0049552257
 N   -0.0015837928   -0.0002428451   -0.0330895497
 C    0.0237601148   -0.7993321343   -1.1909981590
 C    0.0296646151   -2.1049930870   -0.9084584344
 C   -0.0024708013   -2.2818681793    0.5935184200
 C   -1.2564294680   -2.9793666782    1.1178375908
 O    1.1009810182   -3.0136682307    1.1136630420
 C    0.0157058012   -0.8014307266    1.0947094640
 O    0.0435491921   -0.4148834222    2.2402799046
 H    0.9585317671    1.8269668423   -0.4734896838
 H   -0.8215304884    1.8865351275   -0.4906168080
 H    0.0498771964    1.7366139204    1.0564778919
 H    0.0289648074   -0.3084046865   -2.1552405410
 H    0.0369771472   -2.9183191965   -1.6182633810
 H   -1.2594072441   -4.0228466270    0.7917053845
 H   -1.2519698917   -2.9441147325    2.2104541804
 H   -2.1611367601   -2.4890033051    0.7492674753
 H    1.9092653786   -2.6234897188    0.7632910375