17

 N   -0.1214121268    1.3022171461    0.0698736438
 C   -0.0408054964    0.0439417337    0.0396585836
 O   -1.1672183870   -0.6902738500   -0.1106005221
 C   -1.0294234512   -2.1121921231   -0.0424818146
 C   -0.8420654832   -2.6469198786    1.4153270823
 N   -2.3013800185   -2.8612802156    1.5079009298
 C   -2.4544994238   -2.7267722452    0.0420015907
 C   -0.1317490765   -2.6274391942   -1.0635001785
 C    0.6099489020   -3.0654020779   -1.9021835026
 H    0.8075326618    1.7053751269    0.1749416864
 H    0.8737990754   -0.5564446857    0.1104474734
 H   -0.2282841250   -3.5558236034    1.4372686870
 H   -0.4421722214   -1.9204550162    2.1307871855
 H   -2.5770351467   -3.7591347268    1.8864764900
 H   -3.2502578611   -2.0463265269   -0.2734565436
 H   -2.5261682504   -3.6685963275   -0.5142503661
 H    1.2611229788   -3.4478696957   -2.6495182949