17

 C    0.0345724049    1.5355193505   -0.0124559256
 C   -0.0167256772    0.0082330741    0.0652925039
 N   -1.3726425155   -0.5175531403    0.0268492676
 C   -2.1082955734   -1.0168621384    1.0648797872
 N   -3.3190712184   -1.3757802731    0.6846715059
 C   -3.3766548297   -1.0952136259   -0.6475870400
 O   -4.4751133238   -1.3287286477   -1.4190952169
 C   -2.1921303554   -0.5647712254   -1.0811058389
 O   -1.7278714667   -0.1269417703   -2.2838439896
 H    1.0729029175    1.8784131611    0.0297072273
 H   -0.4062082121    1.8863525379   -0.9487795652
 H   -0.5132049690    1.9859922485    0.8203387216
 H    0.5462174124   -0.4318745439   -0.7639983034
 H    0.4360428966   -0.3494015637    0.9944801821
 H   -1.7043157735   -1.0965076448    2.0620529690
 H   -5.1353013293   -1.7211937616   -0.8364538347
 H   -2.4195917174   -0.2869266969   -2.9348055004