15

 O   -0.0500622705    1.4839853393   -0.1959390180
 C    0.0440305873    0.1311138549   -0.0697409059
 C    0.1001305503   -1.0430444805   -0.9913973403
 O    1.1914628608   -1.6864345416   -0.3400301529
 C    0.8927544743   -0.8905878880    0.8282681735
 C   -0.4609141498   -1.4961482346    1.3391737371
 C   -0.9572658065   -0.8901909632    2.5580803859
 C   -1.3502201746   -0.3881478836    3.5775114403
 C   -1.0512662933   -0.8993841081    0.0528376409
 H    0.7364434610    1.8078856972   -0.6512162347
 H   -0.0537903266   -1.1865159394   -2.0524234795
 H    1.7384940111   -0.7225222146    1.4907384648
 H   -0.4431351083   -2.5889652391    1.4125794347
 H   -1.7033882081    0.0534176813    4.4762661283
 H   -2.0900962970   -0.8177201302   -0.2381535642