19

 C   -0.0535071394    1.4437529107    0.0320574912
 N    0.1340660258    0.0063442131    0.0546814500
 C    0.6482664035   -0.6763192988   -1.0390298709
 C    1.2510885780   -0.0123012304   -2.1197096663
 N    1.7991100494   -0.6278466755   -3.1684588732
 C    1.7617983219   -1.9592978543   -3.1926834199
 C    1.1824864569   -2.7145640955   -2.1757938337
 C    0.6140089718   -2.0878558344   -1.0745179335
 C   -0.0071640135   -2.8702822181    0.0510805479
 H    0.9119605902    1.9572170308   -0.0287383730
 H   -0.6745715345    1.7918594010   -0.8078320129
 H   -0.5314605538    1.7488019182    0.9655632221
 H   -0.5743906193   -0.4954285670    0.5650866219
 H    1.2947009903    1.0725983253   -2.1331042671
 H    2.2101538034   -2.4445481176   -4.0556722951
 H    1.1776494105   -3.7986196511   -2.2400580209
 H    0.4515569438   -2.6163119643    1.0146101649
 H   -1.0833846442   -2.6679147011    0.1455572029
 H    0.1079729991   -3.9448593409   -0.1073048545