17

 C   -0.0539229987    1.5562103214   -0.0648669186
 C    0.0245404527    0.0337789330    0.0162420180
 O    0.7959634228   -0.4736905509   -1.0859395722
 C    1.8405321932   -1.2239142296   -0.6190669013
 O    2.6359765653   -1.7624679679   -1.3395119457
 C    1.7761454070   -1.2232986011    0.8646757149
 C    2.7853268688   -1.9512200085    1.6829148137
 O    2.4781791054   -1.7747367155    3.0529014925
 C    0.7221592785   -0.4988080329    1.2365184025
 H    0.9448740595    1.9943678755    0.0113244455
 H   -0.5010963525    1.8606733012   -1.0143460015
 H   -0.6708966195    1.9450061331    0.7510598788
 H   -0.9852785837   -0.3907583481   -0.0726028796
 H    2.7799058868   -3.0137390581    1.3897901401
 H    3.7886081482   -1.5707823336    1.4306029447
 H    3.1320678375   -2.2533332036    3.5700089544
 H    0.3934622588   -0.2993448546    2.2471683839