19

 C   -0.0278673308    1.5774715457    0.0293847561
 C    1.4880067003    1.9472128677   -0.0099228629
 C    2.1863869335    0.5905039030    0.1866740866
 C    2.0638130987   -0.3334575201   -1.0457230439
 O    0.6212054620   -0.2654819604   -1.3159587936
 C    0.0382345241    0.0493082904   -0.0427431687
 C    1.1834404400   -0.3040758289    0.9820879983
 C    1.7207109599   -1.6905215334    0.7534598927
 C    2.2928826652   -1.7108333318   -0.4566359320
 H   -0.5051091949    1.9138544962    0.9569981498
 H   -0.5917232739    1.9880118049   -0.8109788050
 H    1.7721372946    2.4130534671   -0.9582206568
 H    1.7578179631    2.6452741848    0.7873278973
 H    3.1940024969    0.6256283189    0.6013740585
 H    2.5946277482   -0.0619098299   -1.9577893708
 H   -0.9043660125   -0.4886896161    0.0720176399
 H    0.9549798672   -0.0126687466    2.0075792553
 H    1.5788441940   -2.5248525110    1.4290609938
 H    2.6959379844   -2.5618260006   -0.9898955447