14

 C    0.4928728951    0.8957054351   -0.7040154283
 O   -0.3813351025    0.2056945997    0.1759311787
 C    0.2632084835   -0.4402014043    1.2459397747
 C   -0.8675947767   -0.8967805530    2.2003250098
 O   -0.7118705182   -1.0750681823    3.3723301499
 C    1.0492112990   -1.6036282039    0.8282352166
 C    1.6684486686   -2.5793303482    0.4748458878
 C    2.3746539608   -3.6774593208    0.0749745599
 N    2.9766659003   -4.6095056086   -0.2683015393
 H    1.1899874324    0.2092650618   -1.2011291630
 H   -0.1372346316    1.3751827014   -1.4547268528
 H    1.0689904235    1.6643750412   -0.1696760598
 H    0.9134145157    0.2468288768    1.8113872466
 H   -1.8349980498   -1.0283106749    1.6742894691