18

 C    0.0636772631    1.5404775363    0.0716517512
 C    0.0067157235    0.0267295876   -0.0427425186
 C    0.7311691696   -0.5186100879   -1.2754281315
 C    0.9314487013   -2.0209747545   -1.1836090620
 O    2.1044372569   -2.4337664467   -0.4894159527
 C    0.8339153842   -2.6745056222    0.1354395646
 C    0.5709245526   -1.8467632888    1.3491911768
 N    0.4227643574   -2.4023288856    2.4767171441
 O    0.5723091374   -0.4934896195    1.1828357546
 H    1.1017881036    1.8769576950    0.1497684297
 H   -0.3877753046    2.0045691985   -0.8102599813
 H   -0.4767262164    1.8790101316    0.9590565214
 H   -1.0431655632   -0.2993592199   -0.0801095172
 H    0.1456057834   -0.2674786866   -2.1659988174
 H    1.7124400942   -0.0424866923   -1.3794211145
 H    0.7052093720   -2.6133530927   -2.0693385227
 H    0.5550324996   -3.7193373040    0.2343782841
 H    0.2634395655   -1.6926674683    3.1959631513