19

 C    0.9443838302    1.1334957874    0.7529600680
 C    0.0108565315    0.0519684069    0.2071618124
 C    0.2584617364   -0.2336354178   -1.2689006696
 O    0.1688552625   -1.2036275035    0.8773158806
 C   -0.2872172987   -1.2716042474    2.1929156322
 C    0.8186375910   -1.1549184187    3.2328320844
 O    1.9802110508   -0.9303894091    2.9969284293
 C    0.3925114994   -1.3590286262    4.6940224313
 O   -0.7430258739   -1.5739438553    5.0293942630
 H    1.9853282758    0.8071900952    0.6861445878
 H    0.8212548119    2.0568424811    0.1776038379
 H    0.7302473345    1.3669442372    1.7998526705
 H   -1.0337824865    0.3814557108    0.3401918278
 H    1.2872857526   -0.5743063016   -1.4208538555
 H   -0.4181372759   -1.0140570653   -1.6261720909
 H    0.1003765038    0.6689282200   -1.8660533664
 H   -1.0596775508   -0.5198627732    2.4234830423
 H   -0.7726732595   -2.2458692543    2.3501144425
 H    1.2409084052   -1.2796706363    5.4066740826