12

 C   -0.0037901202    1.5219678964    0.0102799580
 C   -0.0358937194   -0.0077825368    0.0022567120
 C   -1.4521901630   -0.5665371088    0.0128438557
 O   -1.3679978502   -1.9839460351    0.0045360642
 H    1.0247757648    1.8941123069    0.0023979304
 H   -0.5128667381    1.9376461379   -0.8665388825
 H   -0.4958407988    1.9280134358    0.9012172128
 H    0.4814078416   -0.3953055191   -0.8831606436
 H    0.4982858852   -0.4048625622    0.8733034811
 H   -1.9873421975   -0.2039949369    0.9066606242
 H   -2.0043148492   -0.1945947268   -0.8666646015
 H   -2.2617181851   -2.3382429813    0.0103474791