21

 C   -0.2611459075    1.5436254931    0.0544566420
 C    0.1372420062    0.0616907297   -0.0544567507
 C    0.8065429872   -0.4714892604    1.1795202012
 C    2.1280317787   -0.8328279479    1.3013126334
 N    2.3570959234   -1.2674797513    2.5899153547
 C    3.6165404320   -1.7513981108    3.1099630330
 C    1.1856365131   -1.1616213722    3.3059073383
 N    1.1453532564   -1.6044922872    4.6467363668
 C    0.2104987778   -0.6758971898    2.4614981788
 H    0.6191838348    2.1705391900    0.2286475769
 H   -0.7528833582    1.8900579821   -0.8609427849
 H   -0.9506631748    1.7053251885    0.8892931070
 H   -0.7603541731   -0.5305435704   -0.2774300791
 H    0.8074515234   -0.0694291491   -0.9124007339
 H    2.9285791266   -0.8192962623    0.5778073758
 H    4.2613925561   -0.9347957796    3.4592725930
 H    3.4156636131   -2.4206364468    3.9488039596
 H    4.1492839304   -2.3021859063    2.3304747445
 H    1.4993814976   -0.9090868228    5.2981785498
 H    0.1926843199   -1.8161105607    4.9169547142
 H   -0.8182869127   -0.4895755560    2.7342746097