18

 C   -0.4932808342    0.5467660906   -0.6031582190
 O    0.2742799357    1.3915439611    0.2715546106
 C    0.4660600419   -0.0200850404    0.3503697757
 C    0.0007723350   -0.6829719564    1.6207844336
 C    0.4764429234   -0.1235806638    2.9138736496
 N   -0.9214027837    0.0599242827    2.4821483370
 C   -0.2483953297   -2.1556449568    1.4759167913
 C   -1.3686595837   -2.8223751208    2.1460236609
 O   -1.4223283619   -2.5289057573    0.7463027523
 H   -1.5559872315    0.4888994528   -0.3801136405
 H   -0.2329743553    0.6194933356   -1.6568311470
 H    1.4270823961   -0.3667576809   -0.0328513903
 H    0.6106917580   -0.7786779893    3.7701238506
 H    1.1412468321    0.7351768550    2.8770722272
 H   -1.0166096257    0.9997810335    2.0982871838
 H    0.6337455700   -2.7477512932    1.2235409105
 H   -1.2885951831   -3.8792029721    2.3972163233
 H   -2.0268528332   -2.2223058904    2.7680765201