20

 C   -0.3131330752    1.5638309502    0.0206708752
 C    0.0246418415    0.0862184450   -0.0448012413
 C    0.6246331698   -0.5658726226   -1.3108964290
 C    1.8772349730    0.1701276684   -1.8643587258
 C    2.7239420914   -0.3843657176   -0.6876626783
 O    4.0141543427   -0.8496217219   -0.9510912792
 C    2.4234543031    0.3254997950    0.6477856006
 N    1.1424254553   -0.4450446249    0.8268027935
 C    1.5547583116   -1.3512868854   -0.3325565036
 H    0.4919682866    2.2031164258   -0.3515726860
 H   -1.2041634718    1.7717498214   -0.5813011004
 H   -0.5277592918    1.8573644174    1.0539963401
 H   -0.8641642306   -0.4865780947    0.2489633540
 H   -0.0544647811   -1.0155805911   -2.0368532084
 H    2.2090745853   -0.3058475013   -2.7918860366
 H    1.8320435932    1.2539583708   -2.0139049792
 H    4.5513635953   -0.1063700482   -1.2481401952
 H    3.1315865785    0.0155680103    1.4234578617
 H    2.3352116757    1.4166769563    0.6626612950
 H    1.6188489276   -2.4281444128   -0.1866066071