19

 C   -0.1076229980    1.5291447301    0.0400335566
 C   -0.0200534932    0.0071953949   -0.0429539354
 C    0.8046917833   -0.4804706716   -1.2493012588
 C    0.9008545933   -1.9914216192   -1.1760364886
 C    2.1840906049   -2.7002817850   -0.8773089061
 N    1.1672454833   -2.5396744177    0.1529096749
 C    1.3887666438   -1.6464795607    1.2249711810
 O    2.1534024385   -1.8849970980    2.1357303571
 N    0.5969917440   -0.5231248888    1.1740997874
 H    0.8907140638    1.9749890764    0.1058705659
 H   -0.6070044647    1.9320505817   -0.8456694356
 H   -0.6824202279    1.8408318004    0.9184978300
 H   -1.0401287675   -0.3937933677   -0.1425507150
 H    0.3335939058   -0.1668710704   -2.1854425110
 H    1.7977276555   -0.0185739307   -1.2033797014
 H    0.1339020547   -2.5378366412   -1.7220531770
 H    2.3394613953   -3.7167626724   -1.2273549900
 H    3.0882057658   -2.1029088425   -0.7872243955
 H    0.7348181996    0.1022242223    1.9531317715