18

 C    0.3006111783    0.7921684548    0.4797530341
 O   -0.3871128764    0.2394250345   -0.6353826514
 C    0.4147646171   -0.5090169812   -1.5162232725
 C    0.5128006192   -1.9962803063   -1.1175035502
 N   -0.7634414382   -2.6186465672   -0.7946329868
 C    1.4092435666   -2.8519846293   -2.0376001079
 O    2.3521397300   -3.0769457285   -0.9403629857
 C    1.5902108774   -2.3512425976   -0.0684676258
 O    1.8036542872   -2.1418610037    1.0835053532
 H    0.7030122740    0.0194735305    1.1439542562
 H    1.1245990042    1.4417844481    0.1496293186
 H   -0.4277774548    1.3977778833    1.0238042756
 H   -0.0782124733   -0.4629900716   -2.4970135879
 H    1.4167429891   -0.0641742492   -1.6253193142
 H   -1.2042483331   -2.0628395728   -0.0649915664
 H   -1.3829174460   -2.5445133147   -1.5997000622
 H    0.9616321876   -3.7919749272   -2.3630915127
 H    1.8996900708   -2.3348144821   -2.8658985541