17

 O   -0.1422294026    1.5014365156    0.3380548707
 C    0.0223025003    0.1302222908    0.1152243309
 C    0.3413727115   -0.8217580894    1.3188015356
 C   -0.8608355916   -1.7159252779    0.9033577328
 C   -2.1834783175   -1.3137281786    1.5996847252
 O   -2.3850312131   -0.2253335803    0.6927504771
 C   -1.2878719699   -0.6394071958   -0.1434571437
 C   -3.2463886261   -2.3896509830    1.5118238268
 O   -4.1216101647   -2.4344070059    0.6904877600
 H    0.7276690428    1.9050154082    0.4173023450
 H    0.7176503439   -0.0725511918   -0.7144064796
 H    1.3200789153   -1.3046161980    1.2795024806
 H    0.2167731681   -0.3453759962    2.2945990596
 H   -0.6802967709   -2.7659413402    0.6801149794
 H   -2.0883039974   -0.9899482768    2.6471226191
 H   -1.6040988875   -0.8205335256   -1.1729446939
 H   -3.1201495405   -3.1871344351    2.2843235945