17

 C   -0.0124664537    1.5889603471   -0.0087849908
 O    1.3948703065    1.9278508937   -0.0007760014
 C    2.1016892882    0.7154099082   -0.1703489207
 C    2.0298894531   -0.2156199658    1.0665552352
 C    2.4157321681   -1.5594854024    0.4615004050
 O    1.7091216577   -1.5454579413   -0.8018339958
 C    1.1815369536   -0.2427466343   -0.9533529972
 C    0.0180346430    0.0661285687    0.0227427233
 O    0.6039599350   -0.2862780058    1.2970675731
 H   -0.4910304765    2.0009302897    0.8840917094
 H   -0.4937756084    2.0025559581   -0.9063475176
 H    3.0972776187    0.9113500878   -0.5663438723
 H    2.5422964721    0.0899499641    1.9779601418
 H    3.4952696549   -1.6717879065    0.2873584928
 H    2.0560097451   -2.3936533443    1.0703808223
 H    0.9942310990   -0.0315984170   -2.0053671090
 H   -0.9274635163   -0.4575658100   -0.1127952579