19

 O   -0.0869867572    1.3668938589    0.0198157681
 C    0.0256307632   -0.0335597238    0.0112844207
 C   -0.4642163292   -0.7823774633   -1.2146922766
 C   -1.2981902042   -0.7361157972    0.0402098322
 O   -1.4351733247   -1.9145833775    0.7785819270
 C   -1.3260367778   -1.7225606576    2.1763540303
 O   -0.0154380152   -1.7690290952    2.6558359486
 C    0.8051436861   -0.6504221173    2.3419899293
 C    1.1647894223   -0.5867646371    0.8526075690
 H    0.6242008203    1.7247968980   -0.5239757444
 H   -0.8142451536   -0.2017791346   -2.0608524953
 H    0.0136329325   -1.7255714157   -1.4549617591
 H   -2.1806502670   -0.0970819711    0.0264391993
 H   -1.8096394744   -0.7716430825    2.4586631836
 H   -1.8429875832   -2.5659916532    2.6395722207
 H    0.3140110940    0.2863683607    2.6484174400
 H    1.7067062833   -0.7771372990    2.9487749766
 H    1.4416594296   -1.5928494658    0.5249681160
 H    2.0449163450    0.0546421535    0.7141588741