17

 C   -0.1193048273    1.6026054777   -0.0168703043
 C    0.0733007723    0.0855452667    0.0383077345
 C    0.7693311334   -0.4885922519   -1.2163300616
 C    0.6473511108   -2.0276537577   -1.3953397423
 O   -0.2428433376   -1.8411480785   -2.5395353200
 C   -0.1508761114   -0.4790108006   -2.4702327085
 O   -0.6708817550    0.3288445524   -3.1665546188
 C    2.0955434532    0.0578983711   -1.4323699870
 C    3.1997953736    0.4992267485   -1.6070048172
 H    0.8439523399    2.1165908937   -0.0765317940
 H   -0.7101119225    1.8896943824   -0.8908207422
 H   -0.6379788719    1.9522980824    0.8802032697
 H    0.6726743090   -0.1931708096    0.9125138840
 H   -0.8976894444   -0.4133471549    0.1438292969
 H    1.5608329323   -2.5429790428   -1.6928970020
 H    0.1365650201   -2.5576186809   -0.5890152423
 H    4.1717246554    0.8958469018   -1.7696371549