17

 C    0.1224057598    1.3538232818   -0.4890492279
 C   -0.1018655785    0.0682707411    0.3289058716
 C   -1.4889634013   -0.4757211709    0.2247250427
 N   -2.4492840955   -0.3397131827    1.1208107209
 C   -3.5518681506   -0.9520702475    0.5955724914
 O   -4.7484581632   -1.0235112580    1.2441111911
 C   -3.2749954766   -1.4717005259   -0.6368040960
 O   -3.9833555490   -2.1675168572   -1.5650412403
 N   -1.9516780401   -1.1619082628   -0.8686946330
 H    1.1469141988    1.7188583054   -0.3661149620
 H   -0.0467470356    1.1821765740   -1.5572395478
 H   -0.5646428678    2.1405769958   -0.1648103368
 H    0.6245385657   -0.6940416592    0.0177077977
 H    0.0826299149    0.2674576175    1.3879505353
 H   -4.6253048008   -0.5716569941    2.0865264374
 H   -4.8707794121   -2.2952038032   -1.2130187014
 H   -1.4381494382   -1.4148914539   -1.6961814632