14

 N   -0.1268480650   -1.1658563912   -0.0021942246
 C   -0.0728561607   -0.0086842869    0.0012599952
 C    0.0031094355    1.3999964689    0.0211475703
 C   -0.7545362463    2.4811193391    0.7999087345
 C    0.5591519909    3.1205628172    1.2457474340
 C    1.1876845681    2.4525623944   -0.0123706188
 N    0.5356497494    3.0846521997   -1.1966149910
 C   -0.7165211891    2.4862293374   -0.7377479202
 H   -1.6725409160    2.3461679666    1.3560931430
 H    0.6201938215    4.2130319170    1.3089749042
 H    0.9264169303    2.6702230067    2.1706550082
 H    2.2497759486    2.2330396215   -0.0872179586
 H    0.5445014593    4.1057037039   -1.1534793113
 H   -1.5996716367    2.3978626456   -1.3566916250