23

 C    0.0521213405    1.5252440006    0.0548159426
 C    0.0296651327   -0.0051270654   -0.0081751227
 C   -1.3957334449   -0.5680321680   -0.0273566979
 C   -1.5140404491   -2.0991955299    0.0014102789
 C   -2.9820173332   -2.5250001901    0.0908447297
 N   -0.9274439816   -2.6782311015   -1.2124585947
 C    0.4755985425   -3.0756860605   -1.1624543545
 C   -0.6021508525   -4.0998836351   -1.1634573401
 H    1.0765298021    1.9108082096    0.0637980694
 H   -0.4604208020    1.9632982668   -0.8089844371
 H   -0.4506131877    1.8929756864    0.9565466604
 H    0.5701630742   -0.3384370527   -0.9004613794
 H    0.5735004303   -0.4131440327    0.8546696711
 H   -1.9441305500   -0.1730859204    0.8385805862
 H   -1.9192065039   -0.2025111368   -0.9205111576
 H   -0.9857481945   -2.4755991715    0.9002152872
 H   -3.5344405331   -2.1708074417   -0.7852010646
 H   -3.0764131349   -3.6142054595    0.1314232033
 H   -3.4514108444   -2.1102226372    0.9879855737
 H    1.0581964653   -2.8801137826   -2.0586131603
 H    1.0165415356   -2.9316939699   -0.2285644538
 H   -0.7739543937   -4.6331103814   -0.2290649190
 H   -0.8272859276   -4.6715010163   -2.0594253307