19

 C   -0.0776342769    1.5648593010   -0.0626253919
 C   -0.0423015614    0.0696588449    0.0145718893
 C    0.5225134447   -1.0124738437   -0.8282081672
 O    1.1811102866   -1.6950935599    0.2026428246
 C    0.4401448673   -0.8463404730    1.2026026426
 C    1.3698524500   -0.3334281179    2.2662253544
 C   -0.7571149294   -1.6818598021    1.5776639533
 C   -1.5687027973   -1.7556632523    0.5118683957
 C   -1.0393108451   -0.9060787358   -0.5754662668
 H    0.8870774306    2.0071325987    0.2098720741
 H   -0.3155467889    1.8906935430   -1.0805510272
 H   -0.8417758175    1.9805796070    0.6043278057
 H    0.9424840947   -1.0623642345   -1.8263551154
 H    2.1999049103    0.2256041982    1.8263904463
 H    0.8304628788    0.3202750902    2.9597230073
 H    1.7862359489   -1.1691753017    2.8376066521
 H   -0.8198213187   -2.2640925953    2.4883003525
 H   -2.4297753769   -2.4044562830    0.4057482208
 H   -1.6353705497   -0.6067149437   -1.4301777603