21

 C    0.0948232599    1.5268443625    0.0017186956
 C   -0.0112649370    0.0190252075   -0.0048367782
 C    0.4598496098   -0.7444980760   -1.2711740179
 C   -0.7016025279   -1.7553291219   -1.1186396030
 C   -0.4379854486   -2.8160202847   -0.0224012374
 C   -0.7644098884   -1.7745232190    1.0746722378
 C    0.3658495313   -0.7395651019    1.3019425344
 O    1.6889540057   -1.1541068609    1.5344410154
 C   -1.3494832693   -0.8200896361   -0.0320871027
 H    1.1449854172    1.8395492007    0.0554191510
 H   -0.3371526921    1.9665048104   -0.9044800598
 H   -0.4239020089    1.9608542557    0.8642100047
 H    0.3287328207   -0.1210657314   -2.1611705053
 H    1.4849545857   -1.1366508928   -1.2856166211
 H   -1.2033828364   -2.0843783254   -2.0291111976
 H   -1.1983599601   -3.6018587905   -0.0427549953
 H    0.5456910147   -3.3034857861   -0.0028908612
 H   -1.3036125429   -2.1218495315    1.9565071560
 H    0.1038841575   -0.1069921640    2.1574561579
 H    1.9386959984   -1.7686898097    0.8367021594
 H   -2.3557571295   -0.4087588449   -0.0518657028