13

 O   -0.2029893693    1.4132046453    0.1159676943
 C    0.0237688653    0.0384932372   -0.0177558974
 C    0.8416730516   -0.2710758758   -1.2938995071
 C    0.1153897098    0.2017643609   -2.5396999921
 O   -0.1390889464   -0.5091240624   -3.4770946309
 C    0.7517781087   -0.4999958010    1.1996755179
 O    1.0805907928    0.2259151409    2.1056393258
 H    0.1869718198    1.6617656944    0.9698965312
 H   -0.9354371059   -0.5058121604   -0.0819187885
 H    1.7942572267    0.2705923665   -1.2234802218
 H    1.0415207427   -1.3422550328   -1.3926054921
 H   -0.1736131117    1.2728100081   -2.5229848369
 H    0.9690924059   -1.5867761710    1.2074060577