19

 C    0.0562858878    1.5460088197    0.0393482092
 C   -0.0243244389    0.0084258855   -0.0195923424
 C   -1.4801157848   -0.4850113958   -0.0372488190
 O   -2.1006013200   -0.0717071335    1.1635238341
 C   -3.4501813787   -0.4453428386    1.2582005571
 C   -3.9889610116    0.0521962204    2.5887099395
 O   -5.1232936665   -0.1105000350    2.9500831721
 C    0.6876879194   -0.5269964725   -1.1774015650
 C    1.2529042578   -0.9589376418   -2.1463298028
 H    1.0955340750    1.8747858085    0.1138028018
 H   -0.3756294776    1.9873494269   -0.8641681670
 H   -0.4962161445    1.9127705736    0.9067988759
 H    0.4341836048   -0.3976896244    0.8920727274
 H   -2.0072384793   -0.0676461441   -0.9104421676
 H   -1.5055275082   -1.5816527462   -0.1262180669
 H   -4.0583348827   -0.0138833364    0.4452102442
 H   -3.5813784441   -1.5398193079    1.2103420303
 H   -3.2310368189    0.5853703572    3.2040681282
 H    1.7645240311   -1.3431801456   -2.9938578091