20

 C    0.3808352949    1.5220647129   -0.0372459371
 C    0.2079517621    0.0029386769   -0.0115046155
 C   -1.2715584767   -0.4479657989   -0.0144009921
 N   -1.9876730937    0.0133201933   -1.2078181959
 C   -2.9413274024    0.9817743448   -1.1662594985
 O   -3.2394600533    1.6308509476   -0.1857460524
 C   -1.3843491658   -1.9017732786    0.1129396706
 C   -1.4454328931   -3.1015913337    0.1958774082
 C   -1.5351840671   -4.5499133614    0.3143880202
 H    1.4412947089    1.7884898687   -0.0002560586
 H   -0.0424168510    1.9553315839   -0.9478518772
 H   -0.1184054365    1.9934772449    0.8149904117
 H    0.7156448621   -0.4569254677   -0.8682826002
 H    0.6748438965   -0.4182819963    0.8856621406
 H   -1.7840385328    0.0405328059    0.8223200848
 H   -1.8758745016   -0.5181823474   -2.0571848350
 H   -3.4216716162    1.1249958703   -2.1546017843
 H   -2.3219652258   -4.9522367458   -0.3331341159
 H   -0.5934831102   -5.0340731073    0.0335853972
 H   -1.7690257482   -4.8483081221    1.3421599094