17

 O   -0.0321082898    1.5281912683   -0.0557098313
 C    0.0632817069    0.1403409672    0.1561855518
 C   -1.3196050238   -0.5079077553    0.0295772544
 N   -1.8714560324   -0.1881376402   -1.2988199754
 C   -2.3237720013   -1.2769005801   -1.7845983766
 N   -2.2678793858   -2.4137022711   -0.9914131052
 C   -1.3903335604   -2.0791628186    0.1298562726
 C   -0.0607918871   -2.8086186612    0.0337325007
 O    0.2041806084   -3.5966973701   -0.8392639490
 H   -0.5776720940    1.6317634985   -0.8472058276
 H    0.7528989144   -0.3341116653   -0.5639311971
 H    0.4758334545   -0.0062063718    1.1610290927
 H   -1.9703936585   -0.0611345674    0.7905548610
 H   -2.7829023480   -1.3480191968   -2.7664538006
 H   -2.0400628818   -3.2833787155   -1.4604211345
 H   -1.8311910576   -2.3703068783    1.0925985582
 H    0.6513209563   -2.5993706722    0.8604160560