16

 C    0.0810271646    1.3912887281    0.4430133475
 C   -0.0349696560   -0.0005204063   -0.1468519422
 O    0.8842233592   -0.5495414971   -0.7246263238
 C   -1.3308077676   -0.6752676625   -0.0003368523
 C   -1.5400746144   -2.1985397811    0.2573825261
 C   -2.9236305054   -1.8624467989    0.8634082126
 C   -2.7358829282   -0.4130407652    0.5955029864
 N   -3.3953910327   -1.2823458868   -0.4439683798
 C   -2.0131260056   -1.5926167561   -1.0126251704
 H    1.0844967872    1.7814452229    0.2699178468
 H   -0.6597203428    2.0599598693   -0.0108411156
 H   -0.1276771606    1.3682075297    1.5190097164
 H   -0.7631956680   -2.9189370265    0.4669342222
 H   -3.5850773100   -2.3928336373    1.5369620820
 H   -3.2195243186    0.4647207879    1.0074021623
 H   -1.7722939311   -1.7598649200   -2.0540131783