22

 C   -0.2353604133    1.5350544228   -0.0029672967
 C   -0.0431566629    0.0168774250    0.0089242531
 C   -1.3627896885   -0.7067771799   -0.2418777273
 C    1.1558152272   -0.4379980426   -0.8867724857
 C    2.0456505530   -0.5854498834    0.3737862804
 C    2.8851750111   -1.8470215152    0.5122415349
 O    2.8672680763    0.5779666996    0.4576635191
 C    0.7649012800   -0.4711685654    1.2566549438
 H    0.7135986155    2.0477247161    0.1740413017
 H   -0.6300029121    1.8712670588   -0.9691437013
 H   -0.9444897233    1.8453710765    0.7739099037
 H   -1.7863019597   -0.4295397194   -1.2146926357
 H   -1.2313705394   -1.7945291238   -0.2338134213
 H   -2.1044811042   -0.4546715639    0.5255132271
 H    0.9737025278   -1.3956854973   -1.3825812818
 H    1.5257390122    0.2818682280   -1.6205177938
 H    3.6758496854   -1.8627769525   -0.2446687039
 H    3.3596779859   -1.8926091559    1.5011066811
 H    2.2734424617   -2.7471943526    0.3972571891
 H    3.2745929011    0.5849594254    1.3312388595
 H    0.8348701641    0.2248411117    2.0982016353
 H    0.4215068421   -1.4417657620    1.6279427588