18

 C   -0.1331628127    1.6167537728    0.1703208352
 C    0.0136604767    0.1026699252    0.0136620865
 C   -1.3314435413   -0.5967365235   -0.1864557842
 O    0.8654656675   -0.1756187478   -1.1207075260
 C    2.0110433308   -0.8491214643   -0.7883272882
 N    2.8975517874   -1.1956140038   -1.6152856914
 C    2.0502390953   -1.1095508220    0.6963849570
 C    0.7626585858   -0.4967046549    1.2168785176
 O    0.3656450451   -0.4647220289    2.3509216433
 H    0.8450233266    2.0962697328    0.2674620813
 H   -0.6381982664    2.0375728940   -0.7033534873
 H   -0.7199659180    1.8386869996    1.0651645710
 H   -1.8419433357   -0.1858585011   -1.0616844118
 H   -1.1943643612   -1.6709352100   -0.3398330455
 H   -1.9580103541   -0.4484120886    0.6965789960
 H    2.6387802655   -0.9034103557   -2.5596460271
 H    2.0962784241   -2.1789590004    0.9219029604
 H    2.9235870944   -0.6499609635    1.1682514233