18

 C    0.1147980238    1.5376210882    0.0570481107
 C    0.0708109220    0.0827972303    0.0475274039
 C    0.0317001313   -1.1212888722    0.0420229306
 C    0.0065509262   -2.5745980188    0.0252066537
 N    0.2058731252   -3.2345043015    1.3279499530
 C   -1.0303894581   -3.8316197040    1.3859144296
 O   -1.5773834145   -4.4985087375    2.2222133070
 C   -1.4037893542   -3.2906323550   -0.0171569144
 C   -2.6630731907   -2.4437223086   -0.0967394498
 H    1.1049441356    1.9086093889   -0.2291626585
 H   -0.6135896683    1.9591995009   -0.6442150143
 H   -0.1154228787    1.9340194610    1.0518989083
 H    0.6955119274   -2.9510253489   -0.7400056206
 H    0.9219726315   -3.1047123149    2.0280681446
 H   -1.4188682297   -4.0894962421   -0.7642205474
 H   -2.6348923403   -1.6211895991    0.6226631678
 H   -2.7899661233   -2.0161047119   -1.0957588762
 H   -3.5359824052   -3.0640023247    0.1265192619