23

 C   -0.0207959047    1.5789991328   -0.1033247525
 C   -0.0009907733    0.0450658426   -0.0356848774
 C    0.6897179990   -0.5585709391   -1.2695558898
 O    0.0692908681   -0.2162089873   -2.4980463663
 C    0.6749209576   -0.4827334384    1.2427692708
 C   -0.1042500207   -0.2559576890    2.5281185359
 C    0.5530038079   -0.6852156282    3.8600350632
 C    0.3050965831    0.7735194633    4.2887071286
 O   -0.1426229199    1.1291891667    2.9650335236
 H    0.9999993704    1.9789949065   -0.1583152332
 H   -0.5715744026    1.9243177151   -0.9849326372
 H   -0.4924136903    2.0112321106    0.7804751617
 H   -1.0398600375   -0.3145445937   -0.0475283150
 H    1.7558697366   -0.2735741123   -1.2692832263
 H    0.6492140789   -1.6523478371   -1.2162285516
 H    0.2185482839    0.7208968172   -2.6539408767
 H    0.8208484638   -1.5692788635    1.1507644115
 H    1.6739421826   -0.0397629015    1.3542503357
 H   -1.1288576190   -0.6410946829    2.4123114436
 H    0.0398164795   -1.4600395692    4.4312587544
 H    1.6082428720   -0.9495686990    3.7597444549
 H   -0.4882549794    0.9050237000    5.0362649825
 H    1.1805113241    1.3565859067    4.5964962295