17

 C   -0.0246043246    1.5630559358    0.0158494853
 C   -0.0999358251    0.0427495344   -0.0335062289
 O   -1.4100608268   -0.2790662865   -0.3545480282
 C    1.1427135693   -0.6058153704   -0.7620952398
 O    1.9165166449   -0.2841620412    0.4437010930
 C    0.6829405230   -0.6452339613    1.1536922999
 C    0.6516594704   -2.1645394179    0.8534253818
 O   -0.3079909285   -2.6015978403   -0.1378485825
 C    0.9927989907   -2.1352922574   -0.5680460580
 H    0.9766832674    1.9119561076    0.2634033620
 H   -0.3236266411    1.9683610262   -0.9553955479
 H   -0.7355818339    1.9330560716    0.7605729364
 H   -1.4545628877   -1.2461590480   -0.3851297891
 H    1.5799423237   -0.2304078554   -1.6868161315
 H    0.6495513302   -0.3101784576    2.1899508882
 H    0.9679137131   -2.9156098011    1.5675474211
 H    1.6056038351   -2.8609354286   -1.0895885319