14

 O   -0.0069885360   -0.0836108957    0.1471887080
 C   -0.0051227850    1.1277393089    0.0565105517
 C   -1.3127753945    1.9149706491    0.0541595541
 N   -1.1892738514    3.2698749494   -0.4528500584
 C   -0.0660263955    4.0354210271   -0.4215801480
 O   -0.0479088874    5.2132216424   -0.7183212682
 C    1.2067127086    3.3203290408    0.0239229232
 N    1.1284107069    1.8720491907   -0.0426532968
 H   -2.0139099806    1.3493931740   -0.5642381497
 H   -1.7055529481    1.8960247856    1.0816456804
 H   -2.0308454973    3.7687333173   -0.7049701740
 H    2.0078133169    3.6793309636   -0.6266467868
 H    1.4384789215    3.6720002359    1.0402743621
 H    1.9859432318    1.3402177411    0.0069517124