22

 C    0.0552541599    1.3569841800    0.2200496417
 N   -0.0332975911   -0.0601158323    0.4996550986
 C   -1.0392780319   -0.6739482926    0.0596392986
 O   -1.1799834664   -1.9985386978    0.2536183017
 C   -2.4199844207   -2.5740228663   -0.1789358915
 C   -2.2437544865   -4.0644692060   -0.2387446743
 C   -2.3706176315   -4.9038424628    1.0103393190
 C   -3.4034591418   -5.0267810845   -0.0809872107
 C   -4.8368187352   -4.5873340406    0.1347797959
 H    0.1293901712    1.9146608304    1.1608647115
 H    0.9717231438    1.5658396966   -0.3442196454
 H   -0.7988440305    1.7576303656   -0.3515846195
 H   -1.8574010216   -0.2053541955   -0.5123672993
 H   -3.2144219870   -2.2928453090    0.5233201206
 H   -2.6859831547   -2.1715671149   -1.1667933112
 H   -1.4726782204   -4.3673372474   -0.9414587931
 H   -1.6624789466   -5.7093779828    1.1676934691
 H   -2.6665480843   -4.3904045216    1.9203830316
 H   -3.3176434814   -5.9160229446   -0.7004520156
 H   -4.9107379640   -3.7350342487    0.8163125440
 H   -5.3198875535   -4.3054061721   -0.8076396470
 H   -5.4219844158   -5.4022743031    0.5746009653