21

 C   -0.0101289036    1.5488967143   -0.0588725755
 C   -0.0148060681    0.0138534710   -0.0118241775
 C   -1.4586863152   -0.5212602665    0.0048638592
 C    0.7702046620   -0.5963730789   -1.2065999383
 O    1.5112640350   -1.7314145705   -0.7282308741
 C    1.5672836431   -1.6986130852    0.6762970702
 C    2.2516223355   -0.4952701795    1.2673861155
 O    2.9916281411    0.3532258515    0.4382310366
 C    0.7325365814   -0.5588804098    1.1936751416
 H    1.0122446001    1.9316857124   -0.0319827359
 H   -0.4977308412    1.9142547423   -0.9702959314
 H   -0.5571063918    1.9649242889    0.7938575688
 H   -2.0106837734   -0.1713258842   -0.8743526793
 H   -1.4739354869   -1.6159886765    0.0007387821
 H   -1.9979986310   -0.1784336606    0.8943686457
 H    0.1087920411   -0.9466210955   -2.0063504887
 H    1.4616363848    0.1419698477   -1.6257886107
 H    1.6362248261   -2.6887163937    1.1130896881
 H    2.6696598789   -0.5999279199    2.2677521669
 H    3.3832321041   -0.1982181323   -0.2494328451
 H    0.1914753677   -0.6290453647    2.1314191218