15

 N   -0.0961836414    1.4703839525    0.1325112086
 C   -0.0128958483    0.0487508749    0.0154846567
 C   -1.3577183129   -0.6801623346    0.0145923909
 O   -2.0737861770   -0.2007393566   -1.1302511030
 C   -1.1439957153   -1.2604286198   -1.3230043731
 C    0.2449065952   -0.6190398242   -1.4564594164
 O    0.3486215035    0.2547164598   -2.5460707297
 C    1.3292966978   -1.5997451423   -1.4196153548
 N    2.2119305876   -2.3460836744   -1.3687219538
 H    0.8138072262    1.9127305872    0.0708409211
 H   -0.6848313721    1.8429900451   -0.6057279260
 H    0.6902097503   -0.3628130489    0.7430404761
 H   -1.9387725034   -1.0465142673    0.8515682415
 H   -1.4962965289   -2.1803493303   -1.7722724398
 H    1.2418267087    0.6166508989   -2.5699465283