15

 O   -0.1036602488    1.3167303472   -0.8739960208
 C    0.0038752893    0.1018704220   -0.1670197956
 C   -1.3682330825   -0.5004267861    0.1024899841
 O   -1.9732895939   -1.1380431721   -1.0359707020
 C   -1.6160288516   -1.9768567783    0.0599700475
 C   -0.5217922784   -2.9729105067   -0.1780689187
 O   -0.3429905178   -3.9232919450    0.5384010891
 C   -2.2549815441    0.3037978706    0.9082621043
 C   -2.9696368047    0.9723212427    1.6049180008
 H   -0.5436262644    1.1291678375   -1.7109645646
 H    0.6254211359   -0.6281398004   -0.7022263243
 H    0.4924042925    0.3351839931    0.7835126153
 H   -2.4416510459   -2.3510919020    0.6630286425
 H    0.0968305823   -2.7795566796   -1.0798838530
 H   -3.6053283578    1.5695286469    2.2116415952