16

 O    0.5611823788   -0.0461299409   -0.0797843860
 C    0.6804721471    1.0836960897   -0.4406207889
 O    0.7356924157    2.1201125182    0.4265192100
 C    0.9268378212    3.4306397351   -0.1102164697
 C    2.3737350602    3.8713527908    0.0151842155
 C    2.6218470545    5.2975976786    0.4003263096
 N    2.8888064796    4.2254563506    1.3562592518
 C    3.2901374972    3.1717651557   -0.8513053977
 C    4.0089432953    2.5735573535   -1.6063668470
 H    0.7432078941    1.4065601081   -1.4968278873
 H    0.6089953094    3.4617083674   -1.1596583315
 H    0.2789855285    4.0952246616    0.4687904897
 H    3.5036051707    5.7971857236    0.0126433000
 H    1.7534249899    5.9378725673    0.5386089031
 H    2.1394099197    4.1446702527    2.0403036581
 H    4.6632265780    2.0461485179   -2.2561690398