22

 C    0.0065533321    1.5336607532   -0.0477557583
 C   -0.0631449593    0.0218996606    0.0672625787
 C   -1.2557568704   -0.5630962054   -0.6643443178
 O    1.1970285549   -0.6577594446   -0.1321406673
 C    0.6050560246   -0.7059356042    1.1776367949
 C    1.3539426802    0.0190921260    2.2819470517
 C    0.1525984699   -2.0765705225    1.6201124100
 C    0.1894784320   -3.2552399459    0.7244208975
 N    1.1786433626   -3.1250931892    1.8096014567
 H    0.9475728601    1.9345807607    0.3273684321
 H   -0.0842570636    1.8263962900   -1.0995334718
 H   -0.8196612728    2.0026145688    0.4977084646
 H   -1.1634201684   -0.3653249729   -1.7379699857
 H   -1.3512081285   -1.6372730425   -0.5179712149
 H   -2.1785491226   -0.0836591839   -0.3196344393
 H    1.7477213560    0.9818492241    1.9586083906
 H    0.6934937701    0.1831184247    3.1405866994
 H    2.1930246913   -0.5924919625    2.6289176660
 H   -0.5831726759   -2.0591291044    2.4229388941
 H   -0.5338947072   -4.0554171823    0.8559225509
 H    0.5304615861   -3.0960216316   -0.2931630165
 H    2.0529652787   -2.7977479163    1.4006394143