15

 O    0.0963861041    0.6929250494   -1.4062956835
 C    0.0310887277    1.3383624552   -0.3928560949
 C   -1.2484673570    2.0632222260    0.0143693881
 O   -1.2238950548    2.5505870772    1.3342843939
 C   -0.5987768079    3.8006744231    1.4948825360
 C    0.8974560783    3.7908364213    1.3948181664
 C    1.6884925544    2.7751524938    1.0323727897
 C    1.2815870839    1.4429660201    0.5263631444
 O    1.9707537662    0.4607801339    0.6805287346
 H   -1.4534122429    2.8618469009   -0.7168791375
 H   -2.0666091954    1.3394297884   -0.0536809748
 H   -1.0116739156    4.5392165400    0.7832340305
 H   -0.8756105099    4.1516699129    2.4968133002
 H    1.3650360799    4.7186802248    1.7211349139
 H    2.7666695090    2.8832968629    1.1146598030