17

 C    0.0022282688    1.5494477279   -0.3922153102
 C   -0.0144666491    0.0785120857   -0.0540499490
 C    1.2211901325   -0.7461999711   -0.1468902538
 C    0.6299604966   -0.4546027689    1.2321141216
 C    1.2960656218    0.4350173642    2.1377902298
 N    1.8251204356    1.1677430523    2.8607100108
 O   -1.1738262564   -0.6067341417   -0.4652491285
 C   -2.3079600007   -0.3756339878    0.2451168141
 N   -3.3960692890   -0.8697939362   -0.1515353935
 H    0.9399894833    2.0119844579   -0.0771824974
 H   -0.1097094687    1.6771030893   -1.4728129007
 H   -0.8167293672    2.0802648926    0.1029833645
 H    1.1155675904   -1.7641122312   -0.5013329531
 H    2.1465629635   -0.2488501685   -0.4106850641
 H    0.1130496778   -1.2815775683    1.7065092721
 H   -2.1453595130    0.2316765331    1.1439293267
 H   -4.1454888361   -0.6285369794    0.4937785306