14

 N    0.0381347390    1.4077883519    0.1716787888
 C    0.0138163649    0.0146827359    0.0553879844
 C   -1.0754361136   -0.8221838097    0.0037916248
 N   -0.6562917895   -2.1781990197   -0.0862940272
 C    0.6986018289   -2.1553719093   -0.0168447155
 C    1.1625798433   -0.8504769833    0.0392893980
 N    2.5264941658   -0.8676111343    0.0368196884
 N    2.9251093815   -2.1010276088   -0.0090478706
 N    1.8069078995   -2.9208961326   -0.0513991120
 H    0.8771096122    1.8129579404   -0.2215194862
 H   -0.7786910770    1.8615746984   -0.2142483397
 H   -2.1280321966   -0.5902541834   -0.0116930026
 H   -1.2537181249   -2.9599647251    0.1155152730
 H    1.9373968866   -3.9172728804   -0.0682939536