22

 C   -0.1184524196    1.5237942028    0.1887613654
 C   -0.0724009707    0.0095970012   -0.0371473840
 C    0.7373976968   -0.4256714322   -1.2736137319
 C    1.0225554571   -1.9440766562   -1.2328249833
 C    1.6089262246   -2.4770505509   -2.5350640064
 N    0.6659822919   -3.1817575262   -3.4321109645
 C    1.1856970711   -1.8390791533   -3.8050151620
 C    0.2426400161   -0.6963776357   -3.7184489794
 C    0.0535672235   -0.0441490013   -2.5708784253
 H    0.8894084954    1.9319363905    0.3247108847
 H   -0.5757323614    2.0530552269   -0.6535304754
 H   -0.6999329253    1.7696010892    1.0828233863
 H    0.3654759174   -0.4684027333    0.8484259229
 H   -1.0926100884   -0.3872077757   -0.1233414466
 H    1.7031535432    0.1043491619   -1.2318959585
 H    1.6941933188   -2.1662944613   -0.3958292016
 H    0.0821407073   -2.4721085274   -1.0411701196
 H    2.6239572500   -2.8632527690   -2.4849235888
 H    1.1691044202   -3.8897017119   -3.9637609666
 H    1.9003488795   -1.8048396649   -4.6254190419
 H   -0.2833567622   -0.3975163473   -4.6215772062
 H   -0.6288011652    0.8019546343   -2.5444676974