14

 O   -0.0931979182    1.4548358423   -0.0601366934
 C   -0.0131767837    0.0764854146   -0.0225835204
 C   -1.3112688004   -0.7743628401   -0.0559621045
 C   -0.3908786696   -1.9352015972    0.4411089874
 C    0.6464098802   -1.9955760106   -0.6651219870
 C    0.8848776024   -0.7070124805   -0.9722121404
 C    0.3156097212   -0.7905986222    1.2863608637
 O    0.7907305567   -0.6340184097    2.3600492238
 H    0.7793101594    1.8217915095    0.1184960537
 H   -2.0513400172   -0.4530698646    0.6832868598
 H   -1.7523382344   -0.9147714106   -1.0454428168
 H   -0.7782464716   -2.8489359795    0.8813240358
 H    1.1571386389   -2.8857123755   -1.0041355032
 H    1.6268972363   -0.2750152258   -1.6296663885