15

 O   -0.0764409048    0.4118341893    1.1853125768
 C   -0.0853285232    1.2064992703    0.2757714782
 N    1.0081828449    1.6105486714   -0.4502896012
 C    2.2992083656    1.0603155243   -0.3427000682
 C    2.9267940878    0.6759609517    0.9957766846
 C    3.6324564852    1.6604276325    0.1226413004
 N    4.3023837654    1.0034056016   -1.0033479199
 C    3.1110014210    0.3879800066   -1.4517278837
 O    2.8849581501   -0.3474073582   -2.3672838795
 H   -0.9997405258    1.7291534379   -0.0676508337
 H    0.8325736611    2.2352819247   -1.2234518588
 H    2.3893755636    1.0687295309    1.8515410995
 H    3.3252716708   -0.3247366422    1.1315829312
 H    3.8454992574    2.6908550015    0.3723918646
 H    5.1649793808    0.4805899777   -0.8990215804