18

 C    0.3741907764    0.6326475457   -0.4277473975
 O   -0.5930586331    0.3511851430    0.5836867048
 C   -1.5497663786   -0.6093294647    0.3351185428
 O   -2.2750005795   -0.3313679371   -0.8818163422
 C   -2.6894221921   -1.5692436100   -1.3989834400
 C   -1.6376447679   -2.5863220916   -1.7975301068
 N   -0.3643529969   -2.1930876622   -1.1569573488
 C   -1.1260936627   -2.0768714722    0.1498870001
 C   -2.3930209719   -2.7176912384   -0.4798733045
 H    0.8223044539    1.5879682303   -0.1427795146
 H    1.1489714750   -0.1375534319   -0.4785570390
 H   -0.0961756769    0.7204553984   -1.4091773383
 H   -2.2397004622   -0.5371659734    1.1903042870
 H   -3.6139913759   -1.5229681405   -1.9614258912
 H   -1.6728334789   -3.1675703502   -2.7122432841
 H    0.2163811259   -3.0260104834   -1.0905465392
 H   -0.6481516458   -2.5286723639    1.0174995502
 H   -3.0877439890   -3.4390837979   -0.0679706887