12

 N    0.0935686091    1.3552812679    0.1824267470
 C   -0.0417874738    0.0048328086    0.0607541472
 C   -1.1102461933   -0.8694277269    0.0165077748
 C   -2.5182152777   -0.5308155331    0.0084027372
 O   -3.4456364523   -1.3070473326   -0.0322186157
 N   -0.5941017806   -2.1725744006   -0.0324345428
 C    0.6744036988   -2.0285115526   -0.0196382696
 O    1.1014299160   -0.7125757419    0.0380471617
 H    0.9637559379    1.7405127222   -0.1536800494
 H   -0.7191626464    1.9039783180   -0.0505756334
 H   -2.7022127443    0.5726658918    0.0425218195
 H    1.4548821467   -2.7712723007   -0.0484050865