12

 N   -0.0583288090    1.3018509967    0.0071452683
 C    0.0466942303   -0.0524053293    0.0007181144
 O    1.0873277847   -0.6772173707   -0.0096634300
 C   -1.2899043455   -0.7175968147    0.0093005733
 N   -2.4615123209   -0.1519042919    0.0209341561
 C   -3.3558950963   -1.2065113848    0.0244446516
 C   -2.6562555153   -2.3695954518    0.0144262326
 O   -1.3314096916   -2.0667272812    0.0047892879
 H    0.7830542082    1.8522118362    0.0026240388
 H   -0.9625778167    1.7436454071    0.0161186528
 H   -4.4232021841   -1.0543646511    0.0337252988
 H   -2.9126343438   -3.4148826145    0.0126832754