18

 C   -0.0375676389    1.5198796705    0.0188287451
 C   -0.0076939059    0.0242610458    0.0031244109
 C   -0.0043455126   -0.7981659268   -1.0925786540
 N    0.0275722129   -2.1057253152   -0.6538746363
 C    0.0447610412   -2.1511022611    0.7120196210
 C    0.0796154576   -3.4280767233    1.4800310296
 C    0.0236170216   -0.8357039713    1.1591541002
 C    0.0316566939   -0.4214343325    2.5102024942
 C    0.0381064208   -0.0505141977    3.6581063945
 H    0.8397795460    1.9342276676    0.5284932462
 H   -0.0583079118    1.9242915162   -0.9972164890
 H   -0.9179452537    1.8988551900    0.5503222970
 H   -0.0216024339   -0.5642901218   -2.1451549586
 H    0.0358486695   -2.9141768917   -1.2510568055
 H    0.9726213440   -4.0231471980    1.2515213909
 H    0.0896533610   -3.2052929587    2.5489008861
 H   -0.7956674453   -4.0571968491    1.2753240200
 H    0.0437964035    0.2745825070    4.6682440976