9

 O   -0.0050096923    1.2609398311    0.0091631969
 C    1.2709493730    1.7446511429   -0.0007378363
 C    2.1104950381    0.6758724332   -0.0146397514
 O    3.3683219888    0.2612558959   -0.0290447913
 N    3.2096338237   -1.2811806688   -0.0358813462
 N    2.0157216736   -1.5735077562   -0.0259675795
 C    1.2339125959   -0.4277191815   -0.0121661088
 N   -0.0414868479   -0.1198533446    0.0017207152
 H    1.3687961069    2.8159807180    0.0041460714