21

 C   -0.0813890273    1.5034733682    0.3276156872
 C   -0.0255310243    0.0640628701   -0.1979955294
 C   -1.3777635993   -0.6190195007   -0.1388487258
 C   -1.5592145792   -2.1213860136   -0.1022168385
 C   -0.3993168055   -3.0924198720   -0.1077067911
 C   -1.8545770875   -1.2776279797    1.1432068096
 O   -0.9044622818   -1.2820982265    2.1797786443
 C   -3.2188094775   -1.1211134195    1.5730953788
 C   -4.3576016816   -1.0214519060    1.9499454484
 H    0.8938661059    1.9926442322    0.2410305923
 H   -0.8068784964    2.1036140845   -0.2328593096
 H   -0.3767259576    1.5174539452    1.3808743692
 H    0.3212182944    0.0615990759   -1.2396276644
 H    0.7084744905   -0.5026963050    0.3789392000
 H   -2.1592602321   -0.0809461366   -0.6697381386
 H   -2.4475870940   -2.4823114308   -0.6129386527
 H    0.3856411039   -2.7877164583    0.5870053082
 H   -0.7347319098   -4.0930391711    0.1861788492
 H    0.0416707192   -3.1736895836   -1.1071094408
 H   -1.1254682867   -2.0061631009    2.7762591403
 H   -5.3615484631   -0.9168912618    2.2793292834