11

 O    0.0260848302    0.0244909548   -0.0240357416
 C    0.0183429412    1.2159797331    0.0780933736
 C   -1.0847727888    2.2979973393    0.0637945889
 N   -0.0330323789    3.3527271916   -0.1755050163
 C    0.8008741413    3.3254682285    1.0165046406
 C    1.0613456777    2.2882899821   -0.0286751538
 H   -1.7348931345    2.1859993925   -0.8078829895
 H   -1.6905633667    2.4577580508    0.9601061090
 H    1.5210039469    4.1361783479    1.0720862560
 H    0.3636781357    3.0347057943    1.9697610553
 H    1.9676843760    2.2721534852   -0.6228961122