18

 C   -0.0910212908    1.5447898072   -0.0169719115
 C    0.0187157190    0.0125248137    0.0028430239
 C    0.8030372590   -0.5433488922   -1.1861342872
 O    2.1552213792   -0.0858248340   -1.2626385507
 C    1.8909406016   -1.3844495650   -0.6678835851
 C    1.7885787912   -1.3448579010    0.8181609139
 C    0.7811302722   -0.5516040932    1.2043667665
 C    0.4070472174   -0.1957384725    2.6078206799
 H    0.9067701423    1.9889154114   -0.0658450515
 H   -0.6585077542    1.8812534758   -0.8904171103
 H   -0.5996552130    1.9226551173    0.8749044308
 H   -0.9965374350   -0.4120258503   -0.0103958597
 H    0.3123708079   -0.7098531609   -2.1421581656
 H    2.3180161295   -2.2257078080   -1.2049491185
 H    2.4687697554   -1.8658233696    1.4817567005
 H    1.0113679876   -0.7464672064    3.3334724861
 H    0.5452238877    0.8755050976    2.7997268269
 H   -0.6505920771   -0.4134418500    2.8049418116