16

 C    0.0462951263    1.0215988179    0.5971571590
 O   -0.2225457880    0.1644469631   -0.4985069085
 C   -1.3947689868   -0.5610419517   -0.3669575307
 C   -1.6710469061   -1.5519395990   -1.5404574619
 C   -1.7227903335   -2.6904458115   -0.5179137204
 O   -0.4582388538   -2.7352992608    0.1345659893
 C   -1.4084488014   -1.7786057947    0.6112755466
 C   -1.8029734889   -1.8154047951    1.9829883799
 N   -2.1366557880   -1.7840927655    3.0905118046
 H    0.9617462828    1.5658586232    0.3583644843
 H   -0.7710763192    1.7408620550    0.7542529367
 H    0.1995521987    0.4564933734    1.5266380584
 H   -2.2617370507    0.0849529513   -0.1604142373
 H   -2.6160062973   -1.3558970079   -2.0492054688
 H   -0.8577805642   -1.6354061837   -2.2624196538
 H   -2.3245878499   -3.5907948040   -0.5087107274