15

 C   -0.0125131917    1.5645288829    0.0304925740
 C    0.0508868021    0.0603233493    0.0141622372
 C   -0.8305274446   -0.8161899406    0.8976212337
 C    0.6676952741   -0.8048902336    1.0780167574
 O    1.4105544520   -1.8249701249    0.4469722600
 C    1.2561152588   -1.7214319065   -0.9188316925
 O    1.6873896837   -2.5230845138   -1.6967949476
 N    0.5403738379   -0.5700972876   -1.1794358534
 H    0.9417989710    1.9969558183   -0.2852234675
 H   -0.7959988158    1.9354616598   -0.6401961580
 H   -0.2438036597    1.9273686039    1.0358434208
 H   -1.4104078050   -0.3184945481    1.6675902455
 H   -1.2897430016   -1.6990125868    0.4660860218
 H    1.1401929482   -0.4300190960    1.9771062374
 H    0.0993202605   -0.4773286565   -2.0799215790