17

 C   -0.4344602602    0.9449338502   -0.1383918862
 O    0.5996488941   -0.0058719339    0.0761989528
 C    0.9952898763   -0.6518209583   -1.0723682139
 C    1.4559637439   -2.0675587705   -1.0005154050
 C    0.5863876255   -2.8546663555   -0.0126049344
 N   -0.6786796485   -2.3781102308   -0.6739175250
 C    0.1282407592   -1.7190536627   -1.7240323913
 C   -0.2236938779   -1.7315636831   -3.1025112610
 N   -0.5186740317   -1.7445155216   -4.2228020299
 H   -0.1218943787    1.7215935294   -0.8506592119
 H   -1.3431812659    0.4567518926   -0.5095720054
 H   -0.6397023350    1.4086908229    0.8281789452
 H    1.5286965874   -0.0367181478   -1.8006756437
 H    2.4045889183   -2.3929926824   -1.4076113213
 H    0.7324576420   -3.9331633050   -0.1106378659
 H    0.6617314465   -2.5609589136    1.0368293871
 H   -1.1884284852   -3.1630237997   -1.0664717503