14

 O    0.0841840602    1.3948723318    0.2728603843
 C    0.0251687855    0.0193182834    0.1046680925
 C   -0.4195545370   -0.7711684170    1.2852201595
 C   -1.3424956090   -0.6738266289    0.0668625766
 C   -2.5277632361    0.1160721767    0.1093649250
 C   -3.5363015313    0.7890834484    0.1061998070
 C   -4.6666990205    1.5439769585    0.1136882811
 C   -5.6710119636    2.2156879853    0.1170412847
 H   -0.3420421376    1.8156609703   -0.4823282267
 H    0.7882142127   -0.4083690686   -0.5455744420
 H    0.0387854962   -1.7331163655    1.4824097819
 H   -0.7125629741   -0.1991708959    2.1569460573
 H   -1.4024546348   -1.5626705392   -0.5553912361
 H   -6.5542298905    2.8044039706    0.1244072450