15

 N    0.0337288737    1.4295216541    0.1652216688
 C   -0.0335702101    0.0365500416    0.0477293929
 C   -1.2037741146   -0.6586221476    0.0259532351
 N   -1.1393801614   -2.0476129414   -0.0147118351
 C    0.0168356498   -2.7694434080   -0.0398294057
 O    0.0744193255   -3.9973024615   -0.0630757050
 C    1.2172698116   -1.8948440349   -0.0316315661
 N    2.3805374493   -2.5801750043   -0.0970318753
 N    1.1845571406   -0.5914475138    0.0158155534
 H    0.9132199383    1.7813360942   -0.1883565437
 H   -0.7500922378    1.9223367024   -0.2389302004
 H   -2.1886086378   -0.2163898706    0.0545556178
 H   -1.9905268831   -2.5910648527   -0.0192437432
 H    2.3152358151   -3.5817309666   -0.0057177594
 H    3.2506031710   -2.1015379010    0.0559021060