13

 O   -0.0100084994    1.3461365022   -0.4189131144
 C   -0.0259983587    0.0930957264    0.2287955971
 C   -1.3937624036   -0.5232856843    0.1916171406
 N   -1.9849174781   -1.0682663219    1.2216845359
 O   -3.2082065225   -1.5039433775    0.7082853264
 C   -3.2180130205   -1.1567161690   -0.5915274699
 N   -2.1270230964   -0.5520631765   -0.9711949072
 C   -4.3582543974   -1.4753847042   -1.3590280833
 C   -5.3342527611   -1.7508712659   -2.0033526988
 H   -0.4210992212    1.2251620216   -1.2832283414
 H    0.6876732749   -0.6124705856   -0.2264224673
 H    0.2754733015    0.2491237422    1.2670321430
 H   -6.1955073175   -1.9922369776   -2.5777765107