14

 C    0.1252085431    1.4739352230    0.0319412721
 C    0.0065986003   -0.0137628679   -0.0098605679
 N   -0.1070237416   -0.6317077003   -1.1428240789
 C   -0.2129225540   -2.0059876270   -1.1198491306
 N   -0.2113084978   -2.7621693201   -0.0689612992
 N   -0.0926676027   -2.1092931832    1.1048369047
 C    0.0247076023   -0.7359425093    1.2804080595
 N    0.1378688642   -0.1105299991    2.3940502678
 H    1.0543023217    1.7618389205    0.5349971391
 H    0.0970269621    1.8787037255   -0.9796295532
 H   -0.6824815414    1.8975216824    0.6379975547
 H   -0.3070955327   -2.5061143787   -2.0759973774
 H   -0.0928750435   -2.7116475639    1.9155087921
 H    0.1343878801   -0.7467608918    3.1937653972