16

 C   -0.0149114623    1.6202773655   -0.1100491067
 C   -0.0380892716    0.0811647804   -0.0980371844
 C    0.6531291625   -0.4815087264    1.1679098147
 C   -1.4762592213   -0.4541141298   -0.1184090064
 O   -2.4484563479    0.2367414813    0.0177744395
 C    0.6620056547   -0.4412255361   -1.3468761417
 O    0.1128432581   -1.0118838147   -2.2551739015
 C    2.1203419672   -0.1841991492   -1.4148782804
 N    3.2575930471    0.0204785233   -1.4614986584
 H    1.0113562064    1.9958821444   -0.0793609576
 H   -0.5117434206    2.0150564747   -0.9995369455
 H   -0.5527003845    1.9939694464    0.7638782203
 H    0.1717931970   -0.0710643347    2.0597245618
 H    0.5878342327   -1.5733611129    1.2125047476
 H    1.7097044272   -0.2010857577    1.1901017852
 H   -1.5525564646   -1.5563846945   -0.2243829665