20

 O   -0.1092873670    1.4064081503    0.4012470410
 C   -0.0554326915    0.0768070479   -0.0299938229
 C   -0.3858334770   -1.0332187773    0.9494757517
 C   -1.3549113363   -0.6503359719   -0.1706366410
 N   -2.6233760259   -0.0267373837    0.0320154890
 C   -2.9213131180    0.9408096121    1.1110790819
 C   -4.3731216964    0.3956832428    1.1188332322
 O   -5.2903685006    1.1273559253    0.3405697110
 C   -3.7792317965   -0.8588876017    0.4262556181
 H    0.6339297872    1.5552350939    0.9951152344
 H    0.7083666072   -0.1216070603   -0.7825023058
 H    0.1503413867   -1.9746459813    0.8938259330
 H   -0.6378981663   -0.7106446627    1.9542378091
 H   -1.3975363436   -1.3498437280   -1.0025749602
 H   -2.4024587382    0.7355057530    2.0592301079
 H   -2.7762172112    1.9910900364    0.8468722911
 H   -4.8428146857    0.2474833889    2.0916847858
 H   -4.8710209390    1.2878750371   -0.5130092617
 H   -4.3524441252   -1.2889954250   -0.4029824175
 H   -3.5223977528   -1.6537669157    1.1455887828