18

 C    0.0121939027    1.4884899403   -0.3456692274
 C   -0.0712314576    0.0391239216    0.0601850263
 O    1.1369336245   -0.7293539189    0.0286352979
 C    0.4954641098   -0.5337481963    1.2952076562
 C    1.2496506008    0.2382286148    2.3395959837
 C    0.4992955638    0.5078674971    3.6667859673
 O    1.4606570119   -0.2491355408    4.4253081082
 C    2.2101800397   -0.5800541490    3.2382000137
 H    0.8760062749    1.9890550368    0.0956923860
 H    0.0984963613    1.5675266784   -1.4343467899
 H   -0.8957084802    2.0218991180   -0.0436045743
 H   -0.9283697105   -0.4913712142   -0.3612759385
 H    0.0131810622   -1.4359950106    1.6825535929
 H    1.7165322744    1.1225017024    1.9064951715
 H    0.4527216610    1.5565481763    3.9842259132
 H   -0.5087130475    0.0752383625    3.7299222973
 H    2.2221835420   -1.6607278829    3.0453705198
 H    3.2430045069   -0.2162397855    3.2880259861