21

 C   -0.3305585137    1.5075258387    0.0838146942
 C    0.0986243492    0.0427788754   -0.0367837934
 C    0.6406783798   -0.5346377496    1.2743052139
 C    1.0730670993   -2.0074790453    1.1531727898
 C    1.5978645000   -2.5778266948    2.4364771526
 N    2.9060314815   -2.7700020656    2.6086019636
 N    3.0188849521   -3.2560643907    3.8610438564
 C    1.8270195848   -3.3823958820    4.4913048619
 C    0.8731466508   -2.9496099910    3.5971699957
 H    0.5099495767    2.1421728449    0.3859501982
 H   -0.7133203906    1.8925381491   -0.8667038834
 H   -1.1201632109    1.6284142510    0.8340214476
 H   -0.7531772956   -0.5627473657   -0.3749486208
 H    0.8648260765   -0.0520664474   -0.8176845433
 H    1.4981280536    0.0601102901    1.6144439022
 H   -0.1227272842   -0.4431542879    2.0585233054
 H    0.2190569699   -2.6039902617    0.8069122879
 H    1.8553380477   -2.0985811898    0.3923140967
 H    3.9314449320   -3.4903427948    4.2117594334
 H    1.7537528298   -3.7641945342    5.4975154600
 H   -0.1928150588   -2.9100699585    3.7543345914