18

 C   -0.1779444135    1.5092250369   -0.0676911837
 C   -0.0098099487    0.0097778706    0.0496253715
 O    0.0904995867   -0.5564743235    1.1126551033
 C    0.0170562812   -0.7786310821   -1.2709271692
 C    1.1599629081   -0.3328920575   -2.1891758364
 C   -0.1973620052   -2.2973435511   -1.1060956474
 O   -1.5011341979   -2.1901549704   -1.7762153972
 C   -1.3507676464   -0.8388821834   -1.9467255582
 N   -2.0930206875    0.0227307613   -2.4757386139
 H    0.7607302208    1.9629369888   -0.4059429776
 H   -0.9454122380    1.7506310171   -0.8095403943
 H   -0.4334845306    1.9218386518    0.9089445571
 H    2.1273054743   -0.4372003989   -1.6872748588
 H    1.1776139336   -0.9408012428   -3.0981890133
 H    1.0324799164    0.7093901858   -2.4903329869
 H    0.4757593067   -2.9418287758   -1.6752526646
 H   -0.3079854352   -2.6397795231   -0.0777256502
 H   -2.9562042047   -0.3863765538   -2.8366042801