18

 C    0.5972088114    1.6409486560   -0.0826451058
 C   -0.1151841695    0.2923096204    0.1237551799
 C    0.0927022039   -0.7070932434   -1.0471998035
 C    1.2064034511   -1.6950871454   -0.5742843542
 C    1.1648863627   -1.5298628640    0.9390617635
 C    0.4483355468   -0.4710519761    1.3032421134
 C    1.0111701468   -3.0659110689   -1.0339128619
 C    0.8452928676   -4.1959347638   -1.4099644531
 H    1.6678200975    1.4956703083   -0.2633684736
 H    0.1767372860    2.1785864044   -0.9390109182
 H    0.4938902843    2.2819585882    0.7992557661
 H   -1.1842922016    0.4963605996    0.2632640877
 H   -0.8240791465   -1.2764822729   -1.2183803097
 H    0.3549138350   -0.2129242651   -1.9862235654
 H    2.1887172483   -1.3594688903   -0.9405047962
 H    1.6979990132   -2.2039610173    1.5988673573
 H    0.3140202939   -0.1343155653    2.3261416952
 H    0.7003697389   -5.1937283643   -1.7423713515