17

 C    0.3735307980    0.7940008654    0.3788107074
 O   -0.4700349907    0.4024910620   -0.7028017630
 C   -1.4790458700   -0.4410604440   -0.3653195999
 C   -1.4845375911   -1.7549137014    0.0648574528
 N   -0.4317590113   -2.6780904904    0.3295632733
 C   -2.8567483639   -2.1364035566    0.1736717528
 O   -3.2619052107   -3.3716842318    0.5642477063
 C   -3.6422435283   -1.0707429259   -0.1849982711
 N   -2.7733318778   -0.0319058262   -0.5032957008
 H    1.1038187184    1.4938236874   -0.0330658374
 H   -0.2026993918    1.2875652253    1.1708790634
 H    0.9018898760   -0.0668397872    0.8054164717
 H    0.0688073702   -2.4748246681    1.1891123431
 H    0.2488850000   -2.7109702924   -0.4216230698
 H   -2.4441950740   -3.8834148654    0.6568595239
 H   -4.7099689489   -0.9577070668   -0.2484423255
 H   -3.0365767141    0.8686789459   -0.8612681871