16

 O   -0.0619670034   -0.0850342219   -0.2558357759
 C   -0.0258503018    1.1036836561   -0.0558867281
 C    1.2282433139    1.9284446181   -0.0263564148
 C    1.3026354134    3.2408142688   -0.8719058439
 C    0.2512103001    4.2177211071   -0.3057833940
 C    0.3811542408    3.9675175105    1.1561256815
 C    1.4848991114    2.8898215437    1.1790631369
 C    2.2064563433    3.8900479715    0.2224751552
 N    1.2212769356    5.0309599093    0.5052916189
 H   -0.9619613531    1.6804918175    0.1258841706
 H    2.0962327207    1.2895640721   -0.2127759625
 H    1.5143305039    3.2337404288   -1.9382456620
 H   -0.6086231521    4.6649834789   -0.7879760919
 H   -0.3698184945    4.2052572497    1.8986794271
 H    1.8759413210    2.5373192429    2.1302507657
 H    3.2759750708    4.0744431069    0.1589990272