16

 O   -0.2550057068    1.2916879599    0.0388200863
 C    0.0451153492   -0.1003794338    0.0380503823
 C    0.7048635262   -0.5184586810   -1.1972214118
 C    1.2854895197   -0.8070754176   -2.2091667987
 C    0.8825305081   -0.4506690247    1.2872087244
 C    0.1619486626   -0.1085832533    2.6167366651
 N   -0.1342244206   -1.4147994212    3.2329960094
 C    0.3964630637   -2.2781480918    2.4762375183
 O    1.0582799219   -1.8859186235    1.3554387087
 H    0.5003867617    1.7538111754   -0.3413526867
 H   -0.9208172673   -0.6122187885    0.1321001912
 H    1.7833648942   -1.0806745939   -3.1068621115
 H    1.8736821003    0.0028554542    1.1958883987
 H    0.7874597400    0.4827521337    3.2927437630
 H   -0.7577333184    0.4579179103    2.4461722063
 H    0.3861282755   -3.3509418841    2.6329779950