17

 C    0.0579004017    1.6375374265    0.3107114397
 C   -0.1040986795    0.2977200304   -0.4029536587
 N   -1.5063904981   -0.0940159312   -0.4465778706
 C   -1.8742521207   -0.9901055589   -1.2592633842
 N   -1.1191013165   -1.7247326425   -2.1842649783
 C   -1.9355371465   -2.6580278312   -2.8073279328
 C   -3.2297809766   -2.5603840664   -2.4326035443
 C   -3.3235829532   -1.4977904917   -1.4268729914
 O   -4.2833729855   -1.0664463925   -0.8317941659
 H    1.1130593429    1.9219659082    0.3699598325
 H   -0.4838062211    2.4235579914   -0.2228486913
 H   -0.3481859270    1.5784179376    1.3238927633
 H    0.3288398704    0.3581419061   -1.4153850284
 H    0.4640144348   -0.4765706063    0.1364090547
 H   -0.1171390078   -1.7951391385   -2.1639676954
 H   -1.4934919648   -3.3423043803   -3.5200079384
 H   -4.0560117224   -3.1451252308   -2.8027296406