20

 C    0.1654964987    1.4683409298    0.2913224979
 C    0.0224958621   -0.0389459975   -0.0058080335
 C   -1.4291386702   -0.5484503979    0.1645598893
 C   -1.9386929888   -0.4624155714    1.6084358338
 N   -3.2671575693   -1.0337020382    1.7563475100
 C   -4.3554582048   -0.3037245829    2.1226241535
 O   -4.3496540137    0.8779759358    2.3948672453
 C    0.5084996117   -0.3477306174   -1.3499792817
 C    0.8898842274   -0.5909465669   -2.4639266764
 H    1.1976940564    1.7927705083    0.1385089559
 H   -0.4760706736    2.0532613763   -0.3745900774
 H   -0.1130272428    1.6939549264    1.3241358390
 H    0.6531348207   -0.5859389227    0.7107386120
 H   -2.0953701247    0.0210850277   -0.4930362451
 H   -1.4714888218   -1.5912202984   -0.1721602972
 H   -1.2389974289   -0.9742875100    2.2834219844
 H   -2.0247466723    0.5732324553    1.9417734261
 H   -3.4044444179   -2.0073177605    1.5346607758
 H   -5.2727206211   -0.9251214139    2.1498657488
 H    1.2368633130   -0.8089584019   -3.4434671304