12

 N    0.0218282507   -1.1377002273   -0.0578907566
 C    0.0010121924    0.0163103873    0.0071437223
 C    0.0127856811    1.4508861133    0.0598295426
 C    0.3825314762    2.2684630541   -1.1745746350
 C    1.2813123970    2.3232451398    0.0147108915
 O    1.0367535786    3.3494056751    0.9555019998
 C   -0.2259633657    3.1328318013    1.4105193032
 N   -0.8636767093    2.1091164799    1.0052344795
 H    0.7577285539    1.7086063292   -2.0231614035
 H   -0.2537763853    3.1152432511   -1.4071914036
 H    2.3044166187    1.9736288390    0.0078566841
 H   -0.5934359882    3.8740011674    2.1084299158