21

 C    0.4887042629    1.4552795725   -0.3542922125
 C    0.0479811858    0.0248761442   -0.0080214152
 O    0.4622219099   -0.9293941058   -0.9870235939
 C   -0.3317366204   -0.9681376981   -2.1342533837
 C    0.0635866905   -0.1846907633   -3.3669397329
 C    0.2313552041   -1.6925158043   -3.3198739216
 C    1.6130119016   -2.3068298637   -3.2659558309
 C    0.5954808171   -0.4002856749    1.2807448208
 C    1.0422695337   -0.7120051158    2.3511130567
 H    1.5766537698    1.4969914718   -0.4497147859
 H    0.0343370037    1.7762669614   -1.2940981826
 H    0.1805382651    2.1438806644    0.4373414001
 H   -1.0522477758    0.0030238158    0.0614744870
 H   -1.3965849854   -1.0812589122   -1.9239344730
 H   -0.7122716698    0.2490364720   -3.9893139884
 H    0.9720239540    0.4037777624   -3.2950195790
 H   -0.4952207418   -2.2642791011   -3.8913979545
 H    2.2763158254   -1.7211663228   -2.6257821161
 H    1.5757245098   -3.3229170318   -2.8590789574
 H    2.0549088483   -2.3601504977   -4.2666335467
 H    1.4345911712   -1.0010417031    3.2946942097