19

 C    0.0406666466    1.4679488147   -0.2114281461
 C   -0.2238556360   -0.0008093799    0.1378940685
 C    0.6588871257   -0.5340754557    1.2656695834
 C    0.9973243013   -1.9997686650    1.2960492885
 N    2.0364493898   -1.0226974952    1.0351002406
 C    2.6233665546   -0.9803997264   -0.2955044115
 C    0.4885822375    0.1574442936    2.5251747139
 C    0.3063427520    0.7352249284    3.5640247611
 H    1.0582001600    1.6139027896   -0.5870746091
 H   -0.6544363990    1.8122927751   -0.9830128115
 H   -0.0846565138    2.1047578847    0.6687770562
 H   -1.2668262794   -0.1198992361    0.4542660901
 H   -0.1024018179   -0.6288500950   -0.7495746942
 H    1.0589801725   -2.5278554951    2.2435987885
 H    0.6250970769   -2.5936582299    0.4602572962
 H    1.9334728430   -1.2256644584   -1.1170885431
 H    3.0420585148    0.0138918356   -0.4774615301
 H    3.4457480905   -1.7026074932   -0.3253596425
 H    0.1638932710    1.2417170582    4.4862704113