19

 C    0.0044293553    1.5463605909    0.0524100050
 N    1.2354196554    0.7093351549    0.0331781888
 C   -0.0772870011    0.0772455827    0.0243332307
 C   -0.5268884824   -0.9897075442    1.0297337421
 C   -2.0406643381   -0.9465504574    0.7324667077
 N   -1.9927199365   -1.3768596661   -0.7071146297
 C   -1.4155428697   -2.7673248501   -0.5166876503
 C   -0.1306429018   -2.0839880087   -0.0664295392
 C   -0.5311265933   -0.9182116991   -1.0204547556
 H   -0.1552725815    2.0886128050    0.9807427081
 H   -0.2629238973    2.0968078180   -0.8461957674
 H    1.6354311420    0.7105963372   -0.9033458363
 H   -0.1589474798   -1.0142894242    2.0534795945
 H   -2.6522790678   -1.6412736029    1.3126507887
 H   -2.4616699760    0.0578581775    0.8245381111
 H   -1.9819179791   -3.4118804237    0.1629805376
 H   -1.3080659621   -3.2604114535   -1.4872159796
 H    0.8615517862   -2.5304530037   -0.0124137437
 H   -0.3147592324   -0.8568521724   -2.0866577123