19

 C   -0.0061058182    1.4573691625    0.0579336781
 C   -0.0019365587   -0.0283391393   -0.0119891641
 C   -0.0165884117   -0.8929744488   -1.0325196225
 C    0.0164735510   -2.2460165321   -0.3015858422
 O   -0.9462911891   -2.0112513672    0.7853305505
 C    0.0362463525   -1.0022759233    1.1917519158
 C    1.1294057479   -1.9987196140    0.7441092709
 C    1.8994973493   -2.9800363746    1.5542082987
 C    2.6142198808   -1.9506221733    0.6812392447
 H    0.8848524831    1.8357279608    0.5757312670
 H   -0.0308748954    1.9051742408   -0.9394047078
 H   -0.8734315156    1.8274874935    0.6193468551
 H   -0.0332917596   -0.7212007878   -2.0989537987
 H   -0.1215729618   -3.1807012245   -0.8440517203
 H   -0.0791332996   -0.6283570656    2.2096537594
 H    1.9385596859   -2.8488498354    2.6310233808
 H    1.9153702473   -4.0172201729    1.2344585497
 H    3.1066254325   -2.3010818474   -0.2204734215
 H    3.1304381494   -1.1345187813    1.1772539963