17

 C    0.0483032503    1.2041756278    0.4473581849
 O   -0.0142256318   -0.1083442646   -0.0854021078
 C   -1.2914743600   -0.6038133702   -0.1664887586
 C   -1.4994109182   -2.0777901982   -0.6378896174
 C   -1.5739472624   -3.2167178229    0.3954914341
 C   -1.0791752117   -3.0906286200    1.8425685821
 N   -1.1830404134   -1.6209468421    2.0440257414
 C   -1.9281701275   -1.2254730555    1.0915929461
 N   -2.6677479870   -2.2527042888    0.2850557513
 H    1.0926057849    1.5174610588    0.4002555227
 H   -0.5655598240    1.9045424469   -0.1386355350
 H   -0.2888531609    1.2171311260    1.4915387780
 H   -1.9562313724    0.0404768241   -0.7620654228
 H   -1.6139520388   -2.3135420441   -1.6944776678
 H   -1.7499088233   -4.2020007517   -0.0320668983
 H   -1.7064323171   -3.6997236593    2.5089743688
 H   -0.0341824867   -3.3690766863    2.0079651182