19

 C    0.0672008030    1.2571075087   -0.3779758964
 O   -0.1104086308    0.0073677236    0.2784855481
 C   -1.3694999522   -0.5678397632    0.1135561248
 C   -2.4917636151    0.0835386694    0.8928583244
 C   -1.6606659584   -1.2357820744   -1.1938244540
 O   -0.7188980969   -1.0962886854   -2.2087050032
 C   -1.3377755503   -2.0971212117    0.0453749930
 C   -0.0423902562   -2.8162163933    0.1158296440
 O    0.0715907562   -3.9230212298    0.5901678457
 H    1.1119337796    1.5358869643   -0.2246791012
 H   -0.1326084322    1.1754185107   -1.4511957811
 H   -0.5692630876    2.0407428241    0.0543279879
 H   -2.6565786272    1.1151223265    0.5655663383
 H   -3.4292662744   -0.4620915673    0.7562666246
 H   -2.2502044029    0.0939649793    1.9599854658
 H   -2.6997807667   -1.2622896231   -1.5235689841
 H   -0.7129817816   -1.9024044224   -2.7359654055
 H   -2.1627667127   -2.6342770318    0.5012279682
 H    0.8238776564   -2.2718588542   -0.3026951092