24

 C    1.4093658564    1.5653482248   -0.6275408122
 C    0.4449780205    0.4475127133   -0.2113163818
 C    0.9280073483   -0.3077964766    1.0130232683
 C    0.4454917990   -1.6762912427    1.3700515092
 C   -0.5869578369   -2.4192324433    0.5354321813
 C   -0.5800003735   -3.9196107401    0.8332947577
 O   -1.8850790612   -1.8583222136    0.7401295827
 N    1.8404342976   -1.4574034895    0.9758793110
 C    2.3566366606   -1.9712672007   -0.2832097386
 H    2.3882195261    1.1642241107   -0.9101855221
 H    1.0174705478    2.1268327618   -1.4812013594
 H    1.5688008668    2.2733875796    0.1930985074
 H   -0.5379204614    0.8724502860    0.0250232606
 H    0.2783646708   -0.2269090688   -1.0555422860
 H    1.1508231745    0.3610242470    1.8468782839
 H    0.3450035740   -1.9096595731    2.4345915551
 H   -0.3978203049   -2.2695127453   -0.5302647124
 H   -0.7652714684   -4.1019711445    1.8992590539
 H   -1.3604850646   -4.4246911716    0.2578891102
 H    0.3872916486   -4.3681392025    0.5847239985
 H   -2.0946976262   -1.9437128623    1.6770889573
 H    1.6917542629   -1.8844437381   -1.1543457278
 H    3.2840942287   -1.4393528214   -0.5202214222
 H    2.6063415746   -3.0300225993   -0.1565588946