23

 C   -0.0408186871    1.6655784164   -0.5743629453
 C    0.0976458308    0.2007579142   -0.1397568473
 C   -1.2408041136   -0.5162134273   -0.1379563883
 C   -1.8917671309   -1.1968643978   -1.3261029650
 C   -0.8685195519   -2.0146997253   -2.1274920345
 C   -0.6088241844   -2.9081999407   -0.8639449304
 C    0.8032530257   -3.2219835649   -0.3800292312
 C   -1.5436855335   -1.9898330872   -0.0632091544
 O   -2.4282401936   -2.4951950098    0.8822970697
 H    0.9267562166    2.1770525378   -0.5663151326
 H   -0.4522940616    1.7365512685   -1.5867078349
 H   -0.7141458845    2.2138839219    0.0939453846
 H    0.8067960499   -0.3029281732   -0.8024456619
 H    0.5380339086    0.1574100413    0.8653746170
 H   -1.9960873314    0.0216795858    0.4375845030
 H   -2.8664146197   -0.8937418835   -1.6886985986
 H   -1.3065265941   -2.5699916595   -2.9593142826
 H   -0.0047621650   -1.4584599470   -2.5057703874
 H   -1.1502805378   -3.8501563478   -1.0043198961
 H    1.4064301455   -2.3217147129   -0.2358755797
 H    0.7726031864   -3.7584076608    0.5754706352
 H    1.3284698773   -3.8629256197   -1.0970399180
 H   -2.0779675616   -2.3043477485    1.7584460087