19

 C   -0.1563169864    1.4743996603   -0.0377686765
 C    0.0726958658   -0.0032568913   -0.0303134843
 C    0.5591865301   -0.9582738924   -1.1276525658
 C    0.0142515783   -1.8028197731    0.0571356423
 C    0.3973798646   -3.2145593174    0.3930789106
 C    1.8895473686   -2.9054451248    0.8243061370
 O    2.0435065650   -1.4738939411    1.0763623845
 C    0.7398223732   -0.9405333130    1.0506664180
 O   -1.1519655758   -0.8896360264    0.1395007325
 H    0.7982675379    1.9957017615   -0.1595091074
 H   -0.8165756869    1.7603057739   -0.8621699018
 H   -0.6111480009    1.7981148729    0.9030125374
 H   -0.0555559335   -0.9807913951   -2.0285097737
 H    1.6311122916   -0.9942187403   -1.3272281398
 H   -0.1837333809   -3.5973462053    1.2367309671
 H    0.3557382520   -3.9344092271   -0.4272380404
 H    2.1587465335   -3.4570255596    1.7310422758
 H    2.5939182618   -3.1762885066    0.0318931742
 H    0.2866687818   -0.8465614451    2.0437745203