15

 C   -0.0596212289    1.3297016295    0.0828397645
 C    0.0939707636   -0.1135025741    0.0546958219
 C    0.1998174254   -1.3161595828    0.0424859692
 C    0.3585278925   -2.7487435913    0.0072704596
 O   -0.4762746741   -3.5317301788    0.4008399691
 C    1.7102454094   -3.2230368472   -0.5398812461
 O    1.7189696341   -4.6055940766   -0.8276453849
 C    1.7103876263   -5.4547413355    0.2292886681
 O    1.6582374831   -6.6367968741    0.0906523392
 H    0.7715901131    1.8318750651   -0.4220014542
 H   -0.9910047152    1.6276674259   -0.4102755867
 H   -0.1007499669    1.6915965048    1.1158578166
 H    1.9397955421   -2.7032410451   -1.4730788929
 H    2.4886311144   -2.9481615488    0.1877790131
 H    1.7895914311   -4.9351683211    1.2015496435