18

 C   -0.1508311517    1.5252416123   -0.0442473845
 C    0.0951642609    0.0126330538   -0.0494628316
 C    0.7531152691   -0.5079911201    1.2243596317
 O    2.0599461972    0.0021756012    1.4169473461
 C   -0.1031561342   -0.4898099560    2.5599721861
 C    0.0547522680   -2.0128978689    2.6171143739
 O   -0.5007960615   -2.5384048711    1.4011993940
 C    0.8390247122   -2.0415358945    1.3765570654
 H    0.7862061925    2.0909085541    0.0223701491
 H   -0.6464668144    1.8425341535   -0.9661214627
 H   -0.7873634483    1.8275835909    0.7946373220
 H   -0.8513527381   -0.5213477501   -0.1788132289
 H    0.7375566688   -0.2538223357   -0.8979501465
 H    1.9995029825    0.9591904344    1.5031364536
 H    0.4413125398    0.0293084829    3.3519352397
 H   -1.1337541645   -0.1298191909    2.5052268465
 H    0.0703494681   -2.6726072389    3.4764910640
 H    1.6292185235   -2.6991084668    1.0327393021