16

 O   -0.0050024904    1.4084428104    0.0072591832
 C    0.0082359014   -0.0059363915    0.0018815489
 C   -1.4182904161   -0.4639893405    0.0122437474
 C   -2.5641632380    0.2727662520    0.0234199180
 C   -3.6765409552   -0.6387389803    0.0298754223
 C   -3.1799780685   -1.9042300803    0.0225895059
 N   -1.7867547116   -1.8159902009    0.0116671545
 C   -0.9358822086   -2.9120846458    0.0017450696
 O   -1.3076576206   -4.0575354843    0.0016024457
 H    0.9061446288    1.7144658578   -0.0002926764
 H    0.5306599117   -0.3955172822   -0.8891930745
 H    0.5456629917   -0.4021237643    0.8810327313
 H   -2.6022510189    1.3497235799    0.0266564461
 H   -4.7221835621   -0.3713363033    0.0389681264
 H   -3.6443930561   -2.8750266614    0.0237298569
 H    0.1284749727   -2.6200889851   -0.0060793053