21

 O    0.0715705277    1.4302503698    0.3256580441
 C    0.0407562592    0.0370011238    0.0793673818
 C   -1.3815349514   -0.4545493482   -0.0338936406
 C   -2.4336959126    0.3802671058   -0.0424334828
 C   -3.8647440035   -0.0985325032    0.0026530637
 C   -4.3777571148   -0.8120337722   -1.2679102208
 C   -3.3098678354   -1.7394676432   -1.8904645246
 C   -2.4568646435   -2.5031642974   -0.9065801925
 C   -1.5529701274   -1.9108257739   -0.1116088702
 H    0.9835023922    1.7246589220    0.2551980307
 H    0.5872765615   -0.2139618715   -0.8460625006
 H    0.5398725021   -0.5237888506    0.8905899192
 H   -2.2426349339    1.4469367510    0.0026477171
 H   -3.9506369537   -0.8162764287    0.8291309468
 H   -4.5303645289    0.7366765476    0.2425820540
 H   -5.2786338317   -1.3793499467   -1.0032347397
 H   -4.6804881524   -0.0821964877   -2.0287705810
 H   -3.7877655851   -2.4293472756   -2.5931926067
 H   -2.6379495792   -1.1016401378   -2.4795734738
 H   -2.5411979473   -3.5869549884   -0.8930095440
 H   -0.8900653221   -2.5261780948    0.4964316899