14

 O    0.5158548345    1.2270840301    0.0732576672
 C    0.1443479913   -0.1035182395   -0.0375234772
 C   -1.3470353379   -0.4861401859    0.0160725760
 O   -1.9752104259    0.0374910266   -1.1626746996
 C   -1.2650027940   -1.1871882611   -1.2763627301
 C    0.2366189576   -0.8287519050   -1.4527712426
 C    0.5197615291    0.0147941244   -2.6610466352
 O    0.3590667930    1.2134988230   -2.6997902549
 H    0.2230966307    1.6666513996   -0.7399021930
 H    0.7112044470   -0.6757812639    0.7042008583
 H   -1.9849640466   -0.6590093381    0.8750419417
 H   -1.7922590585   -2.0550207426   -1.6531388481
 H    0.8772309537   -1.7146619696   -1.4391669332
 H    0.8676519161   -0.5326904080   -3.5641128192