17

 O   -0.1360108475    1.0764695254    1.3455151267
 C   -0.0175809659    0.0446318300    0.4111357610
 C   -0.6229921275   -1.2573471696    0.8386901062
 C   -1.2621054048   -0.4727973915   -0.2851186450
 C   -2.5934019395    0.2223430073   -0.1419077614
 C   -3.7342708988   -0.4496673062    0.5634191707
 N   -3.0899378753    0.7177904632    1.1538024365
 C   -2.8916891692    1.1019378161   -1.2588250378
 N   -3.1014477350    1.7797306926   -2.1715878742
 H   -0.2698976314    1.9057118498    0.8725599410
 H    0.9195460237    0.0273240688   -0.1431548506
 H   -0.1247424534   -2.1872777428    0.5914897268
 H   -1.1022355683   -1.2530964838    1.8128067245
 H   -1.1064185987   -0.8708738374   -1.2836605757
 H   -4.7512846446   -0.2888258494    0.2198427567
 H   -3.5250835427   -1.4383416324    0.9632247230
 H   -2.4239535912    0.4793143799    1.8833892416