16

 N    0.0254255061   -1.1655596667   -0.0636211350
 C    0.0076654046   -0.0108901623   -0.0054227127
 C   -0.0253980359    1.4355936540    0.0542179127
 C   -0.3073206744    2.2176151421   -1.2549069343
 O    0.8170125527    3.0838244865   -1.0159681874
 C    1.3114471852    2.2340848533    0.0416057717
 C    1.4009851901    2.9083981227    1.4189098055
 O    0.3502101037    2.3506773315    2.2002478057
 C   -0.7063509818    2.0066347622    1.3288363091
 H   -0.1777081866    1.6160475241   -2.1611768748
 H   -1.2570466466    2.7606052276   -1.2994223611
 H    2.2130869532    1.6932897607   -0.2597157109
 H    2.3403442017    2.7090661913    1.9400449558
 H    1.2792267673    3.9930147004    1.2857735461
 H   -1.3029035157    2.8898509389    1.0524536534
 H   -1.3482380435    1.2866195640    1.8388536262