15

 O    0.0370373802   -0.0237925378   -0.0433628428
 C   -0.0057186253    1.1820851434    0.0041146871
 C   -1.2197993261    2.0433294337    0.0946920241
 C   -0.8786930688    3.3355548210    0.0194863249
 C    0.6102122168    3.5303037277   -0.0720500780
 C    1.3589387231    3.0271258579    1.1626404039
 C    1.1847392363    2.1226155687   -0.0362246507
 C    1.1520367971    4.5882869135   -0.8692525415
 C    1.5918228293    5.4877189347   -1.5353362813
 H   -2.2142135128    1.6354411405    0.2168581421
 H   -1.5525255187    4.1834977678    0.0514567841
 H    2.3530430874    3.4269605219    1.3292746073
 H    0.7735340997    2.8381318431    2.0556717201
 H    2.0569247179    1.8440791712   -0.6122336853
 H    1.9833356837    6.2767071325   -2.1284029439