21

 C    0.0586488464    1.5535283064   -0.1016767140
 C   -0.0165277696    0.0208809388    0.0326643213
 C   -1.4159008614   -0.5221690911    0.0308900786
 C   -2.1633419681   -0.9076794044    1.1224458321
 N   -3.3846112926   -1.3385762658    0.6862107901
 C   -3.4528774821   -1.2320771565   -0.6891145791
 C   -2.2412674517   -0.7330110785   -1.1233825341
 N   -1.8282600734   -0.5288738637   -2.4486397809
 C   -2.8461735952   -0.6238870979   -3.4774454137
 H    1.0975066572    1.9003486429   -0.1157242417
 H   -0.4211942244    1.9021242197   -1.0232909799
 H   -0.4549659005    2.0413585252    0.7326211736
 H    0.5532979487   -0.4387875286   -0.7857126754
 H    0.4879976502   -0.2778324822    0.9588688466
 H   -1.9090896849   -0.9138386357    2.1710150145
 H   -4.1195157388   -1.6894038654    1.2721310175
 H   -4.3357375314   -1.5291468090   -1.2286471201
 H   -1.2636174194    0.3033888373   -2.5476867467
 H   -3.7107906139    0.0416894257   -3.3108532039
 H   -2.4049068217   -0.3858271027   -4.4486866379
 H   -3.2243516533   -1.6516054545   -3.5252017068