18

 O   -0.0933260908    1.3442888275    0.1124983171
 C    0.0216019321   -0.0565201023    0.0077896269
 C    0.1893013449   -0.6061625248   -1.4415587719
 N   -1.1580937479   -1.2747976205   -1.4136639077
 C   -1.1927549027   -2.1606655783   -0.1918706480
 C   -0.0053365293   -2.8333476923    0.3930324343
 C    0.9796580987   -2.1542433370    0.9857964814
 C    0.9853302742   -0.6471659593    1.0394109709
 C   -1.3693188143   -0.7048890876   -0.0342769250
 H    0.7905337356    1.7238617089    0.0535133032
 H    0.1574784542    0.2026460863   -2.1744234389
 H    1.0296689548   -1.2749390793   -1.6494311105
 H   -2.0998170410   -2.7569993728   -0.2152415331
 H    0.0243654645   -3.9178379116    0.3452532159
 H    1.8191837630   -2.6804636124    1.4314323625
 H    1.9999155462   -0.2749357875    0.8312212067
 H    0.7286599735   -0.2837125621    2.0448056167
 H   -2.2880485057   -0.2143497348    0.2690833195