14

 O   -0.0651790213   -0.0480255424   -0.3246589317
 C   -0.0592222016    1.1520605518   -0.1268518857
 N   -1.1193231372    2.0375476450   -0.0561233084
 C   -0.6770960971    3.3369563979    0.1821582094
 C    0.6668274512    3.2983358927    0.2620570605
 N    1.0564715226    1.9697962524    0.0753844224
 C    2.3897064468    1.4227944814    0.0591689828
 C    3.1168624734    1.6456512238    1.3166550116
 N    3.6988565397    1.8452848223    2.2939111734
 H   -2.0710917754    1.7348866113   -0.1630339592
 H   -1.3566310640    4.1655051154    0.2769406182
 H    1.3808265306    4.0809890592    0.4510933680
 H    2.2715155665    0.3477778263   -0.1172193916
 H    2.9840837258    1.8373999130   -0.7644986597