23

 C   -0.0682574314    1.6081977317    0.2412114632
 C   -0.0347759356    0.0810637597    0.1184403845
 C   -1.4315670784   -0.5431048979   -0.0589966506
 C   -2.0272084942   -0.1696722090   -1.4056808111
 O   -3.1385982271    0.2650734268   -1.5696030921
 C   -1.4376107339   -2.0735742629    0.0952172660
 C   -0.4861491850   -2.8628448649   -0.7886811255
 C   -1.6939907068   -2.6023430660    1.4886410976
 C   -2.7682026223   -2.7046672644    0.4318923611
 H    0.9399940716    2.0150612159    0.3635194513
 H   -0.5095005665    2.0755284298   -0.6459340130
 H   -0.6638022733    1.9214805168    1.1053523399
 H    0.6044158910   -0.2034628878   -0.7270310482
 H    0.4284186478   -0.3550886675    1.0110953509
 H   -2.1121689516   -0.1295918760    0.6942312584
 H   -1.3517266404   -0.3421547969   -2.2777970457
 H    0.5587584369   -2.5909081909   -0.6062150626
 H   -0.5853084818   -3.9343867772   -0.5905788191
 H   -0.6911627494   -2.7096539956   -1.8539714241
 H   -1.1817320374   -3.5110075147    1.7876117052
 H   -1.8347215776   -1.8891818385    2.2940185240
 H   -3.6317543792   -2.0536044111    0.5132313862
 H   -2.9879337053   -3.6829779293    0.0178382140