12

 N    0.0441154326    1.4141307618    0.1705992497
 C    0.0304623705    0.0418838129    0.0503194680
 C   -1.0729294806   -0.7868187261    0.0142215338
 O   -0.6703777422   -2.1058828360   -0.0309621259
 C    0.6733017605   -2.0937830663   -0.0315823238
 C    1.1679186048   -0.8272232410    0.0168003068
 C   -2.4399735534   -0.4790642737    0.0114906241
 N   -3.5564013918   -0.1583774260    0.0049983461
 H    0.8430369617    1.8778192660   -0.2343369141
 H   -0.8251972656    1.8771204128   -0.0537368945
 H    1.1496250206   -3.0604156338   -0.0677477582
 H    2.2069426429   -0.5381496407    0.0360644281