15

 C   -0.0199469654    1.4957656657    0.0053016041
 C   -0.0200343550   -0.0273257348    0.0271882526
 O   -0.0361942983   -0.6388791762    1.0792253654
 C   -0.0010707702   -0.7281515534   -1.2648774654
 C    0.0173865961   -0.1747972547   -2.5356096907
 N    0.0310708153   -1.1969621245   -3.4350335220
 C    0.0211976380   -2.4082582878   -2.7731694815
 C    0.0010481188   -2.1494957494   -1.4303089990
 H    0.8704189350    1.8760261123   -0.5073192164
 H   -0.8947211070    1.8757836903   -0.5336794322
 H   -0.0353324582    1.8671719132    1.0303375308
 H    0.0220687903    0.8530580416   -2.8607650413
 H    0.0459404686   -1.0853294423   -4.4341606642
 H    0.0294894158   -3.3360357233   -3.3220019541
 H   -0.0109559136   -2.8669884068   -0.6261525262