15

 C   -0.1114619944    1.4219791181    0.0341529588
 C   -0.0688636977   -0.0338587620    0.0293356569
 C    0.0103116716   -1.2384265109    0.0399876710
 C    0.0181115556   -2.6710094041    0.0232055941
 C   -0.4432245120   -3.4535313816    1.2560787907
 C   -1.3345752625   -3.3738428619    0.0533227823
 O   -2.4989029914   -2.6168722914    0.0926657884
 H    0.8977469138    1.8435213186    0.0990323201
 H   -0.5771808287    1.8158148135   -0.8760103306
 H   -0.6818823292    1.7998448029    0.8897823063
 H    0.7931261456   -3.1311308289   -0.5822355757
 H    0.0695548681   -4.3838240253    1.4748458734
 H   -0.7379917988   -2.8689444277    2.1195423737
 H   -1.4368983759   -4.2609753625   -0.5663977917
 H   -2.2530808641   -1.6942850768   -0.0617865877