15

 O    0.0890977440    1.3007862622    0.2038935997
 C    0.0713084206   -0.0334767675    0.0516668203
 N    0.0740208994   -0.6937205161   -1.0835674591
 C    0.0507185628   -2.0340738321   -0.7271776505
 C    0.0340071109   -2.1554941625    0.6379165389
 C    0.0093421517   -3.0259075084    1.7926928729
 C    0.0084810282   -2.2800790263    2.9141429225
 C    0.0334150523   -0.7982427071    2.5816304454
 N    0.0476881775   -0.8474785631    1.1268900600
 H    0.1040617993    1.6708812823   -0.6880546838
 H    0.0475818642   -2.8095384010   -1.4764811887
 H   -0.0057893513   -4.1055156484    1.7439881581
 H   -0.0074022460   -2.6408786450    3.9328348400
 H   -0.8478175153   -0.2620327523    2.9564173206
 H    0.9219277018   -0.2876910846    2.9746224738