19

 C    0.2910901254    1.3009871011    0.3016133529
 C   -0.1029082249   -0.1747119327    0.2562139684
 N   -1.5025922797   -0.3601524053   -0.1447071476
 C   -1.8238502971   -1.7408855068   -0.5622974375
 C   -2.2293353160   -2.5066708451    0.7104233736
 C   -2.8244794753   -1.4035574629    1.5899930318
 O   -3.4660418052   -1.5419140298    2.5975058886
 C   -2.4592365479   -0.0625719528    0.9236627084
 H    1.3533712386    1.4032907323    0.5448218286
 H    0.1032245233    1.7731990802   -0.6666719067
 H   -0.2736235661    1.8525468861    1.0599241585
 H    0.5163592388   -0.6813210718   -0.4917168111
 H    0.1315564953   -0.6478892585    1.2293188152
 H   -2.6686440025   -1.7076957166   -1.2623244404
 H   -0.9774956410   -2.1831539084   -1.0910968376
 H   -2.9437838917   -3.3194085519    0.5620598625
 H   -1.3569992847   -2.9245961598    1.2273455497
 H   -2.0700060734    0.6451173421    1.6585440455
 H   -3.3837753858    0.3726217407    0.5166162272