18

 C    0.1402326376    1.6192496470    0.0283181954
 C    0.1217105983    0.1167201934    0.0875404678
 O   -1.2199417292   -0.4299779856    0.2365597467
 C   -0.8284718420   -1.2375300221    1.3709002896
 C    0.6432698651   -0.8289019667    1.2336734249
 C    1.4412973721   -1.6609861052    0.1859561296
 C    0.9422349417   -0.7104911892   -0.8891668307
 N    1.1433060026   -0.5290596334   -2.1251563291
 O    1.9889727122   -1.5181994158   -2.6537138812
 H    1.1669724273    1.9957865988   -0.0015225964
 H   -0.3720096567    1.9592451648   -0.8773987345
 H   -0.3725733055    2.0441998934    0.8959006498
 H   -1.3193587725   -0.8921699171    2.2896095779
 H   -1.0547072421   -2.3011402986    1.2246985324
 H    1.1757806859   -0.4779046069    2.1156778387
 H    2.5281077770   -1.6223692828    0.3086365276
 H    1.1486528271   -2.7098898865    0.0775370047
 H    2.0562893912   -1.2564340272   -3.5784478233