21

 C   -0.0078370877    1.6361006891    0.0659742037
 C    0.0838635496    0.1156843884    0.0074589674
 C    0.7706039372   -0.5999301491   -1.1523907933
 O    0.3054309822   -0.7348868979   -2.4469129216
 C    2.2715047790   -0.7304436406   -0.8135547828
 C    2.4887730311   -0.1281647102    0.5689684850
 C    1.0771237007   -0.6917555653    0.9197514053
 C    0.7043508755   -1.0328832684    2.3390314691
 C    1.2493154169   -1.7195333875   -0.2811420000
 H    0.9585915570    2.1177089192   -0.1099203363
 H   -0.7036340499    2.0059438894   -0.6956961132
 H   -0.3812056900    1.9756607299    1.0386970657
 H   -0.9141998998   -0.3225046122    0.1345734088
 H    0.6040228444    0.0258460647   -2.9570356050
 H    2.9894185405   -0.9037998805   -1.6058947639
 H    3.2672101056   -0.6675680439    1.1189050428
 H    2.6584715637    0.9495237753    0.6727210610
 H    0.6420245479   -0.1272650262    2.9547501538
 H   -0.2678749110   -1.5353841453    2.3878317411
 H    1.4478995491   -1.6939213918    2.7978071531
 H    1.1635770980   -2.7930939770   -0.3634118007