15

 C   -0.2723799380    1.0305303869   -0.3949452228
 C   -0.0721510077   -0.3631996173   -0.0301177783
 C    0.0921036212   -1.5175830339    0.2670267985
 C    0.3020744043   -2.9067488762    0.6354763013
 O   -0.9520961398   -3.6163755228    0.8289069731
 C   -1.5063775627   -4.1286132806   -0.2699983507
 O   -1.0651663652   -4.0820462913   -1.3904263057
 C   -2.8327053037   -4.8413298991    0.0261695219
 O   -3.3328477483   -4.9321863832    1.1106945178
 H    0.3638547564    1.6911885539    0.2036555223
 H   -0.0397313996    1.2041427045   -1.4508534554
 H   -1.3122522431    1.3311929104   -0.2276244537
 H    0.8844974934   -3.4318257397   -0.1268646501
 H    0.8079220481   -2.9913574877    1.6002313890
 H   -3.2724335856   -5.2656680839   -0.8986401271