19

 O    0.4155595988    1.5520829770   -1.4822469484
 C    0.3092790540    1.8721582776   -0.3163565233
 N    1.2220587320    1.5951739736    0.6513835396
 C    2.4756047677    0.9149028228    0.3630334713
 C    3.6056025426    1.8740685608   -0.0317010259
 C    4.9077278604    1.1249699685   -0.3415275733
 N    6.0033233072    2.0094462639   -0.7083991313
 C    6.8355262507    2.5541388974    0.2174512766
 O    6.7864486325    2.3331994212    1.4098440244
 H   -0.5657739104    2.4215907129    0.0844809683
 H    1.0684390749    1.9680522842    1.5744733193
 H    2.7611276778    0.3285699765    1.2431442596
 H    2.2754073658    0.2171648896   -0.4552017933
 H    3.2866048511    2.4498544943   -0.9075719791
 H    3.7947882048    2.5851303083    0.7801167208
 H    5.2353026708    0.5653833913    0.5393483496
 H    4.7529939308    0.4095383351   -1.1565011834
 H    6.0866444351    2.3148393260   -1.6647108964
 H    7.5867501034    3.2252567392   -0.2446408250