21

 C   -0.4467312256    1.2649545512    0.5600881242
 C   -0.6760203572   -0.0588522908   -0.1834238611
 C   -1.7591746956    0.0730444737   -1.2638255661
 C    0.6243694455   -0.5304450495   -0.8036059734
 O    1.6303274682   -1.0561120138    0.0660753290
 C    1.0589941436   -1.9343945394   -0.9116728930
 C    0.2710100889   -3.0949083704   -0.4043460391
 C   -0.2133110929   -4.1345416038   -1.3243885242
 O    0.9181199575   -4.3696572732   -0.4908971139
 H    0.3273291636    1.1517114080    1.3242894255
 H   -0.1265362283    2.0522869311   -0.1326473052
 H   -1.3658797242    1.6041066190    1.0480748846
 H   -0.9993849754   -0.8071060446    0.5487684427
 H   -1.4620778837    0.7957247058   -2.0328789200
 H   -1.9495789561   -0.8837816781   -1.7604454558
 H   -2.7006589970    0.4226595221   -0.8292815358
 H    1.0205955121    0.1545698905   -1.5596952347
 H    1.7353675604   -2.2028004432   -1.7254104768
 H   -0.2654503162   -2.9317664351    0.5282149102
 H   -1.1123137580   -4.6959674362   -1.0742349328
 H   -0.0003110895   -4.0522283532   -2.3899054342