18

 C    0.3320296443    1.7001771970    0.0505991112
 C    0.2408557743    0.1914490386    0.0211691102
 C    1.4607963513   -0.6648867367    0.2222798430
 C    0.3816968697   -0.6365870550    1.2869126833
 N    0.6808057714    0.0363321348    2.5018996897
 C    0.2123133962   -0.4191611625    3.5755598468
 O    0.4374982019    0.1507368143    4.8015474533
 C    1.5371593831    0.9565347882    4.9708518538
 O    1.6881353268    1.5824275253    5.9717649932
 H    1.0546573396    2.0362468210    0.7971290379
 H    0.6418063643    2.0866722883   -0.9261989254
 H   -0.6355280466    2.1502627476    0.2977062877
 H   -0.4952713406   -0.2024597987   -0.6749488771
 H    1.5789811583   -1.5744605753   -0.3558895911
 H    2.3874128465   -0.1598121886    0.4723597284
 H   -0.2542239572   -1.5200711935    1.3666362757
 H   -0.4391868490   -1.2901237736    3.6871982012
 H    2.2178267259    0.9206255088    4.1102806583