18

 C   -0.5657477131    1.2931480156    1.4150492826
 C   -0.0271088274    0.5365291935    0.2003149500
 N    1.2299408905   -0.1294219649    0.5672762588
 C    1.2077941766   -1.4006630027    1.2886964945
 C    1.6612121811   -1.3360706066   -0.1300707672
 C   -1.1169332427   -0.4062598303   -0.3457815487
 N   -1.3593202820   -0.3011536113   -1.6836065466
 O   -1.7080418072   -1.2063990630    0.3589861071
 H    0.2281270962    1.9071725734    1.8468170526
 H   -1.4031154361    1.9389614964    1.1340341336
 H   -0.9216539908    0.5832328597    2.1654738442
 H    0.2408038594    1.2571220693   -0.5838077046
 H    1.9364609464   -1.4818399486    2.0910234614
 H    0.2462310248   -1.8691630363    1.4728361182
 H    1.0037769679   -1.7772798177   -0.8765599893
 H    2.7182939326   -1.3752189105   -0.3797147226
 H   -0.8752342087    0.3560760520   -2.2687939461
 H   -2.0617709974   -0.8956085880   -2.0939037980