18

 C    0.0262224214    1.5533583509   -0.0297134636
 C    0.0419540159    0.0363519584    0.0631457895
 C   -1.1355448592   -0.6191657402   -0.4424668497
 N   -2.0867288791   -1.1590499967   -0.8239946369
 C    1.3138546670   -0.7993874267   -0.1456022711
 N    2.4626248598    0.0095345810    0.2965423786
 C    1.9479531887   -0.0786996548    1.7085685595
 C    0.6814989284   -0.7940618932    1.2191926396
 N    0.0433270358   -1.8157296014    1.9774186074
 H    1.0268209550    1.9440605742    0.1614874645
 H   -0.2722732065    1.8719605209   -1.0327763738
 H   -0.6778078117    1.9873608923    0.6865550851
 H    1.3863709702   -1.5564298405   -0.9180022999
 H    3.3286977022   -0.5087619355    0.1969656700
 H    2.5340672392   -0.7548094070    2.3358808166
 H    1.8421153407    0.8898933713    2.2071001535
 H   -0.6089564720   -1.4116764530    2.6460937679
 H   -0.5060987559   -2.4209602199    1.3741449128