20

 C    0.3217763303    1.5078171602   -0.0627014350
 C    0.1095180725   -0.0070646260   -0.0036817461
 C    0.6303178324   -0.7275590216   -1.2518291774
 C    0.4058919770   -2.2342582540   -1.2129933280
 O    0.8488331530   -2.8823994088   -2.3876137666
 C    2.1214250160   -3.4478645311   -2.1218320519
 C    2.1896589134   -3.5276638578   -0.6127049245
 N    3.0669115018   -4.1291478475    0.0617042509
 O    1.1267034115   -2.8292493486   -0.1235080002
 H    1.3855378227    1.7552017303   -0.1487301384
 H   -0.1903673661    1.9476471028   -0.9255799970
 H   -0.0617122223    1.9968201192    0.8378191195
 H    0.6076900198   -0.4196269920    0.8805849053
 H   -0.9602899386   -0.2233588684    0.1180337841
 H    0.1268136805   -0.3496687977   -2.1499639781
 H    1.7032707086   -0.5370789468   -1.3833983573
 H   -0.6555491257   -2.4723131306   -1.0724015448
 H    2.1868847170   -4.4363253300   -2.5824550660
 H    2.9395359875   -2.8259828073   -2.5114322301
 H    2.8983176889   -4.0202759144    1.0625752315