19

 C   -0.1991297519    1.0370571504   -1.0602850711
 C   -0.0521836406    0.1695771713    0.1803952039
 O    1.1017946673   -0.6937868773    0.1196189633
 C    0.9842941940   -1.7828891482   -0.6709511307
 C    1.2511063540   -2.0299101344   -1.9899629325
 N    1.0149081907   -3.3575892327   -2.2820803731
 C    0.6131675136   -3.9163152365   -1.1618909027
 C    0.2474424685   -5.3514183671   -0.9821847962
 N    0.5699954999   -2.9969779174   -0.1465757413
 H    0.6951417708    1.6489666762   -1.2091139167
 H   -0.3532646728    0.4207131916   -1.9501610130
 H   -1.0616724914    1.7026468631   -0.9509103169
 H    0.1103526092    0.7838505616    1.0704645609
 H   -0.9525777806   -0.4374753271    0.3437177654
 H    1.6085198393   -1.3349787260   -2.7334476480
 H    0.8844212159   -5.8481910508   -0.2407143090
 H   -0.7930037308   -5.4740887439   -0.6585261729
 H    0.3726942292   -5.8601527597   -1.9389369928
 H    0.3471651457   -3.1607405931    0.8212976035