19

 C   -0.0924883224    1.5519623052    0.0132639476
 C    0.0457629403    0.0279976435   -0.0025404686
 O    0.7670761678   -0.4592226483   -1.1308438569
 C    2.1037273532   -0.7284108063   -0.7412239264
 C    3.0018630128   -1.2579270820   -1.8022252331
 C    3.1965407669    0.1590961707   -1.2825163782
 C    2.0609066185   -1.1970733340    0.6971547948
 C    0.8163527911   -0.4815518468    1.2252527117
 O    0.4919154801   -0.3215859826    2.3713216830
 H    0.8893656321    2.0342697802    0.0254196684
 H   -0.6337426435    1.8892687135   -0.8742089279
 H   -0.6417475280    1.8609788121    0.9070680651
 H   -0.9489271001   -0.4336438880   -0.0190871870
 H    3.7291566791   -2.0167047900   -1.5340069379
 H    2.5714654713   -1.3681891234   -2.7913269198
 H    2.8945931819    0.9683945652   -1.9373569241
 H    4.0590823682    0.3681343233   -0.6578479325
 H    1.8860819283   -2.2790123520    0.7643106005
 H    2.9421450626   -0.9565676304    1.2940678913