18

 C    0.0353019039    1.4903716923    0.0649563190
 C   -0.0843781689    0.0056535139   -0.0596141681
 C   -0.9639925551   -0.8649106042    0.7862299617
 C   -1.0706237168   -2.2490162674    0.1639194789
 C    0.4023805628   -2.0096365449   -0.2204995896
 N    0.5287335452   -0.9588716191    0.9402894144
 C    0.3704698853   -0.8543504896   -1.2078317733
 C    0.2658025724   -0.7589731024   -2.6613342710
 O    1.5042389436   -0.4888148826   -1.9715450678
 H    0.9999995762    1.8247475185   -0.3277003369
 H   -0.7593338388    1.9989036428   -0.4925133832
 H   -0.0357383619    1.7946472428    1.1131190668
 H   -1.5794931633   -0.4419186827    1.5735979579
 H   -1.1655947996   -3.0146714359    0.9379967870
 H   -1.7943948785   -2.4341465082   -0.6367338918
 H    1.1341609015   -2.8090997185   -0.3119481959
 H    0.2625145249   -1.6627782481   -3.2695204298
 H   -0.2078052728    0.1085399832   -3.1191541386