19

 O   -0.0810834864    1.3917215631    0.0354726361
 C    0.0177753541    0.0114912764    0.0411217438
 C   -0.1606105162   -0.8061702635   -1.2312340041
 C    0.6582745519   -2.0701491800   -1.4437066275
 C    0.8592405606   -2.6004376090   -0.0158408080
 C    1.8837382611   -1.7091724116    0.7473809312
 C    0.7031942425   -0.8064614989    1.1618876508
 C   -0.3156865497   -1.9412275455    0.8311861073
 C   -1.1223358953   -0.9845395515   -0.0764442552
 H    0.6775136844    1.7496976035   -0.4391359029
 H   -0.5090731687   -0.2262020137   -2.0801247589
 H    0.0856481677   -2.7772783055   -2.0569235830
 H    1.6157897529   -1.8961614732   -1.9482607445
 H    1.0008966161   -3.6808994613    0.0362889535
 H    2.3066890445   -2.2232590192    1.6157416471
 H    2.7009397858   -1.2738781957    0.1618170830
 H    0.6960947929   -0.2932087310    2.1250016554
 H   -0.8059614462   -2.5262407695    1.6054909498
 H   -2.1936686219   -0.8416258239   -0.1283326439