20

 C    0.2371907656    1.3858054928    0.1184617094
 O   -0.2251500005    0.0991481608   -0.2499037335
 C    0.5698593081   -0.5117925005   -1.2194985971
 C    1.9702388770   -1.1252663193   -0.7711812012
 O    2.2589374859   -1.0809299013    0.5955430459
 C    1.4710090609   -2.4707080721   -1.3173335985
 N    0.3075786516   -2.7731827029   -0.4454608479
 C    0.1216284562   -1.9090320493   -1.6405499600
 C   -0.8660648896   -2.2480802880   -2.7135875723
 H    1.2379595522    1.3394251833    0.5639182274
 H    0.2607529348    2.0666044562   -0.7475466798
 H   -0.4670236262    1.7801236800    0.8549826808
 H    0.7002371976    0.1384551118   -2.1002940740
 H    2.8203100830   -0.7013348712   -1.3089893231
 H    1.5209157889   -1.5447701685    1.0180892527
 H    2.0281488686   -3.2632569041   -1.8026243938
 H   -0.0292837403   -3.7034661158   -0.6890820480
 H   -1.8881788553   -2.0221996935   -2.3902912353
 H   -0.6682093821   -1.6717594881   -3.6235196685
 H   -0.8211755063   -3.3118082204   -2.9722356432