20

 C   -0.0590967002    1.5964298247   -0.1945062881
 C   -0.0481145781    0.0698145915   -0.0786630061
 C    0.7135094549   -0.5984346276   -1.2264730874
 C    0.7637833480   -2.1433089311   -1.1388985897
 C   -0.5833468254   -2.7218415831   -1.1701168880
 N   -1.6455656700   -3.1769316791   -1.1849645451
 C    1.6486137368   -2.7147298427   -2.2426347084
 C    1.3582565104   -3.9449353523   -2.9863998298
 O    1.1410271398   -2.6525369865   -3.5679294786
 H    0.9578640624    2.0042153768   -0.1872565874
 H   -0.5386002702    1.9184469737   -1.1251064521
 H   -0.6063891414    2.0506912850    0.6366016955
 H    0.4052156724   -0.2240765267    0.8775542978
 H   -1.0778805196   -0.3057427352   -0.0583481207
 H    0.2703877977   -0.3251411570   -2.1903379021
 H    1.7501579372   -0.2389520363   -1.2426506121
 H    1.2126435784   -2.4263648275   -0.1762193692
 H    2.6908701205   -2.4053613582   -2.1434546434
 H    2.1817141531   -4.5142648721   -3.4140135548
 H    0.4549326131   -4.5084299564   -2.7650474602