17

 O    0.0379981668    1.3818127952   -0.1497703272
 C    0.0116893743   -0.0029989987    0.1271837623
 C   -1.4148202098   -0.5467964455    0.1252906586
 C   -2.0549625221   -0.5703917994   -1.3193059533
 O   -1.5314228556    0.2570653246   -2.3252784414
 C   -1.5661017843   -2.0142288564   -1.3452935668
 O   -0.9145914727   -2.5759978298   -2.1895772788
 C   -1.5162702244   -2.1299277915    0.1721586790
 O   -0.4964792541   -2.9043804682    0.7176658254
 H   -0.3513961887    1.4837786226   -1.0279149223
 H    0.6347046468   -0.5690021077   -0.5856352707
 H    0.4576690814   -0.1451799008    1.1153755795
 H   -2.0238187235   -0.0347217032    0.8709208146
 H   -3.1432095013   -0.4631004994   -1.2700528705
 H   -0.9949744954   -0.3079738821   -2.8993837293
 H   -2.4748279632   -2.4216632749    0.6142791371
 H    0.0908415758   -3.1602006350   -0.0054410561