21

 C   -0.1764694715    1.5075381498   -0.0048421123
 C    0.0184391758   -0.0054865873   -0.0223383959
 C    1.0239450802   -0.5059442777   -1.0818749432
 C    1.2028508484   -1.9945663759   -0.7372659253
 C    1.9144460395   -1.3325792333    0.4629335667
 C    3.0298697505   -1.9626884023    1.2455537328
 O    2.3193141123   -0.2350585659   -0.4440245528
 C    0.7767669716   -0.6033170473    1.2267337659
 O    1.2906542321    0.3569418299    2.1226117632
 H    0.7830612055    2.0314149238   -0.0518605700
 H   -0.7697416978    1.8257893413   -0.8684077148
 H   -0.6910699342    1.8328312920    0.9029832146
 H   -0.9511925216   -0.4984316768   -0.1516605625
 H    0.9512996797   -0.1256851462   -2.1012235614
 H    0.3151341058   -2.6074546647   -0.5582708251
 H    1.9108533588   -2.4989512667   -1.3966913147
 H    3.8414120786   -2.2766072305    0.5839347622
 H    3.4229369777   -1.2592881661    1.9847196417
 H    2.6576318205   -2.8417877808    1.7823303766
 H    0.1550450489   -1.2758800699    1.8235276062
 H    1.9307637391    0.8736744346    1.6158114880