18

 C   -0.0296115504    1.5229554752   -0.0030785122
 C    0.0048149855    0.0159004928    0.0412583112
 C   -1.2922489968   -0.7400124001   -0.2638801550
 N   -1.1505887913   -1.9976293311    0.4644567006
 C   -0.1886179542   -1.9493863867    1.4690962057
 O   -0.1087237118   -2.7229137070    2.3944838392
 C    0.7053018913   -0.7904386816    1.1469438665
 C    1.2483003508   -0.7557485992   -0.2778514634
 O    1.2918409557   -1.8552554785   -1.1277903553
 H    0.9516212073    1.9455558323    0.2329202053
 H   -0.3113231594    1.8805095935   -1.0004696409
 H   -0.7501065096    1.9297264866    0.7157941336
 H   -2.1607399446   -0.1655277886    0.0858170631
 H   -1.4121576586   -0.9149188188   -1.3401035239
 H   -1.9384312099   -2.6137173050    0.6002277296
 H    1.2709571252   -0.3531545848    1.9594413367
 H    2.1541205038   -0.1694674149   -0.3978313163
 H    0.5588568271   -2.4439526040   -0.9029042546