21

 C    0.1025061517    1.5209667267    0.0077124671
 C   -0.0470595834    0.0055676495    0.1773275867
 C   -1.4837763295   -0.5256972429    0.0509658974
 C   -2.4512747399    0.1006565155    1.0497508459
 C   -1.9691189930   -0.5653184889   -1.4460578473
 C   -1.4426505929   -2.0006484171   -1.4787745826
 O   -0.8795566010   -2.6745264449   -2.2982547718
 C   -1.4850247351   -2.1153370325    0.0394513972
 O   -0.4882412294   -2.8570685179    0.6732634613
 H    1.1583333698    1.8065063708    0.0371749202
 H   -0.3047486345    1.8641257363   -0.9496380064
 H   -0.4080850994    2.0728586626    0.8023514410
 H    0.5851352858   -0.4987912156   -0.5655390029
 H    0.3455984420   -0.3015463069    1.1531813103
 H   -2.5752609014    1.1739206587    0.8757980159
 H   -3.4417805574   -0.3610712991    0.9762987778
 H   -2.0941717274   -0.0334356386    2.0771137315
 H   -3.0586664570   -0.5167603926   -1.5361132207
 H   -1.5181849642    0.1268689029   -2.1596592910
 H   -2.4731837124   -2.4601134319    0.3767614082
 H    0.1057998186   -3.1799920840   -0.0160804278