15

 C   -0.0712006497    1.4509845125   -0.0003398191
 C   -0.0077661220   -0.0002884100   -0.0310038033
 C    0.0292370271   -1.2075877540   -0.0632888687
 C    0.1153989674   -2.6058675542   -0.0921355164
 C    1.1983623716   -3.4493151868   -0.0245354988
 N    2.5490877824   -3.1216364818    0.0203781705
 C    0.6119678551   -4.7414952020   -0.1026770394
 N   -0.6948805248   -4.6855780353   -0.2048255384
 O   -1.0248211220   -3.3516018982   -0.2080369975
 H    0.6279943982    1.8959937036   -0.7171288069
 H   -1.0774397418    1.7977975218   -0.2592381459
 H    0.1707634443    1.8446071107    0.9934655333
 H    2.7108402108   -2.1614548048    0.2955392072
 H    3.1052014007   -3.7499512020    0.5842254296
 H    1.1036558829   -5.7043754296   -0.0869046160