18

 C    0.4232421326    1.2735631134    0.3900272263
 C   -0.4100783649    0.2317084889   -0.3786660672
 C    0.3375444221   -0.4291538130   -1.4431563230
 C    0.9791697340   -0.9602741598   -2.3141035800
 C    1.7335978015   -1.6107573684   -3.3731776420
 C    3.1760615746   -1.0651402351   -3.6634010881
 C    3.6738975144   -2.4602830513   -3.2148305495
 O    4.7388546341   -2.9974205673   -3.0820616590
 N    2.3818763448   -2.8866113970   -3.0153169228
 H    1.2957948308    0.8068835590    0.8547525098
 H    0.7783108322    2.0595800691   -0.2818060526
 H   -0.1798742490    1.7377958725    1.1757138463
 H   -0.7863687575   -0.5262015271    0.3203949848
 H   -1.2989227867    0.7130594115   -0.8061534819
 H    1.1201664204   -1.6986453226   -4.2772120410
 H    3.3800856852   -0.8169289995   -4.7058835910
 H    3.4895843695   -0.2493281267   -3.0121009677
 H    2.0083286719   -3.7194262265   -2.5837593613