18

 O   -0.0352599400    0.1343049999   -0.8685389789
 C    0.0192677600    1.2575249209   -0.4219804152
 N   -1.0460396557    1.9956122035    0.0257028519
 C   -0.7166028478    3.2948300855    0.5787746219
 C    0.7056620579    3.5355799632    0.0203785186
 C    1.2764909218    2.1243529238   -0.2187670775
 C    2.1095700946    1.6099391355    0.9850672254
 C    2.7279888576    0.3077276751    0.7771718076
 C    3.2665083900   -0.7525481362    0.6085165943
 H   -1.9569754930    1.5713613806    0.0986605888
 H   -1.4234628597    4.0631029647    0.2493211731
 H   -0.7268685129    3.2864657687    1.6783059607
 H    0.6352064511    4.0707671639   -0.9304689637
 H    1.3154967761    4.1397337846    0.6967735755
 H    1.8962203474    2.0691611388   -1.1157951590
 H    2.8929694402    2.3499651636    1.1937879972
 H    1.4761814413    1.5790753218    1.8820521349
 H    3.7184225612   -1.7001383379    0.4509737742