19

 C   -0.6446198360    1.2166459107    0.0548297272
 C    0.1826214319   -0.0469028440   -0.1196205911
 C    1.5890374522    0.0340763630   -0.7647226788
 C    2.1006806251   -1.0243298700    0.2425455483
 C    0.8574809188   -0.7520748796    1.1482994255
 C    1.1462127628    0.2780141361    2.2353498513
 O    2.1482498489    0.9424801538    2.2923389787
 C    0.1407498293   -1.8746951764    1.7170548395
 C   -0.4622313459   -2.7945913809    2.2050685512
 H   -0.0760531595    2.0083976680    0.5531832316
 H   -0.9523006261    1.5992402573   -0.9244694757
 H   -1.5532148703    1.0273259978    0.6365808069
 H   -0.4142620745   -0.8178079735   -0.6154452038
 H    1.6555838155   -0.2064517325   -1.8275917330
 H    2.0553143276    1.0072756844   -0.5911357982
 H    2.0771200049   -2.0398062146   -0.1556441538
 H    3.0618936996   -0.8318490721    0.7194748379
 H    0.3317648010    0.3903638405    2.9825504445
 H   -0.9886048855   -3.6151464281    2.6263743918