15

 O    0.1001171643    1.4120846032   -0.1069444726
 C    0.0254239580    0.0268359091    0.0154849687
 C    0.3033427752   -0.7709233971   -1.2976129480
 N   -0.8404149493   -1.6934458134   -1.0472597330
 C   -0.8748904718   -2.0699213572    0.4524131948
 C    0.3371843532   -1.8854942981    1.2867458857
 C    0.8306575700   -0.6553580846    1.0947279336
 C   -1.3430485531   -0.7475443445   -0.0107490759
 H   -0.0155715281    1.7995721995    0.7673848545
 H    0.0424314531   -0.1636599119   -2.1675986218
 H    1.2873454665   -1.2321787247   -1.4269360798
 H   -1.5612010625   -2.8919170203    0.6135759271
 H    0.7739374352   -2.6731496448    1.8871676048
 H    1.7706645603   -0.2585449286    1.4602838235
 H   -2.3533774411   -0.3494246467    0.0067817984