21

 C   -0.1429358297    1.5521490118   -0.1093639992
 C   -0.0329964884    0.0290090432   -0.0383639934
 C   -1.4111692318   -0.5828949256    0.2551290115
 O   -1.4128444959   -0.8697020023    1.6806642927
 C   -0.1083826383   -0.7135978627    2.2792298182
 C    0.7907751715   -0.6844384051    1.0771268883
 C    2.0939646275   -0.1305235236    0.4343152558
 C    1.1952645869   -0.6608502574   -0.7529149243
 C    0.9559412492   -1.9123668004    0.1202231137
 H    0.8151764188    2.0632027920   -0.2177516072
 H   -0.7536923356    1.8299317324   -0.9763458320
 H   -0.6446566973    1.9563859341    0.7773439428
 H   -2.2209378719    0.1279097147    0.0612008776
 H   -1.6396803704   -1.5028905874   -0.2926362672
 H   -0.0632573433    0.2175513157    2.8628712678
 H    0.0537284852   -1.5592403666    2.9557912929
 H    2.2845675194    0.9392058561    0.5022263302
 H    3.0069785780   -0.7008147692    0.6220031399
 H    1.4517804124   -0.6330009851   -1.8141651385
 H    1.8312215480   -2.5380528129    0.3110467907
 H    0.0811116658   -2.5249646618   -0.0889733702