17

 C   -0.0446405252   -1.1868388735    0.0703132997
 C   -0.0424233520    0.0149114026    0.0229230439
 C   -0.0692204393    1.4446357944   -0.0204909378
 N   -1.0284948905    2.2200720602    0.8220367911
 C   -0.6712391814    3.3581876330   -0.0972693760
 C    0.7474075584    3.6472972043    0.4208973464
 C    1.2986645940    2.2875410409   -0.0619772892
 N    1.1468487668    2.3353205440   -1.5446259910
 C   -0.2918446294    2.3319055515   -1.2779936926
 H   -0.0383610316   -2.2479789966    0.1095540571
 H   -1.9599810235    1.8800859378    0.5785899473
 H   -1.3898357032    4.1682749803   -0.2030860650
 H    1.2602619695    4.4812774227   -0.0676506776
 H    0.7465958070    3.7873952603    1.5027727448
 H    2.2312928614    1.8961416279    0.3398124685
 H    1.5101635437    3.1908372204   -1.9653755433
 H   -1.0020499746    2.1258209697   -2.0790213164