25

 C    0.0948913580    1.5969706966   -0.0046885741
 C    0.1369384141    0.0664230456   -0.0189150198
 C    0.6396427322   -0.5356541637    1.2985562511
 C    0.7012942886   -2.0571676546    1.2907731801
 C    1.7769657558   -2.7561408369    0.3989348258
 C    2.0795097145   -3.6913836463    1.5767101825
 C    1.9926457594   -5.1900584112    1.5416627805
 C    3.3090842556   -4.5044395967    1.8399418950
 C    1.3047978642   -2.7780526491    2.5353611553
 H    1.0904517556    2.0183154458    0.1745724258
 H   -0.2692344539    1.9974917386   -0.9560909722
 H   -0.5658444770    1.9671479392    0.7872988302
 H   -0.8654728844   -0.3264475438   -0.2355851279
 H    0.7794082610   -0.2746608736   -0.8411898172
 H    1.6398057307   -0.1370092227    1.5226783910
 H   -0.0098396953   -0.2032727781    2.1211385103
 H   -0.2906670793   -2.4654579794    1.0661096413
 H    1.4352820048   -3.2186486808   -0.5314150414
 H    2.6142086552   -2.0865459060    0.1675056379
 H    1.4839848957   -5.6947253364    2.3575576556
 H    1.8774629334   -5.6758393871    0.5773780168
 H    4.0816442108   -4.5282471849    1.0773338270
 H    3.6877552719   -4.5467402206    2.8566902764
 H    1.9628892067   -2.1164850237    3.1110032124
 H    0.6023869115   -3.2554802101    3.2248428579