19

 C   -0.3485997785    1.3955255210    0.1642587123
 C    0.1865186031   -0.0272661997    0.0020653321
 N    0.8274867769   -0.5221335297    1.2103883238
 C    0.3517312306   -1.4293893313    2.0965632556
 C    1.2944626367   -1.5508453755    3.1043367317
 C    1.2347431234   -2.4457768789    4.3048292683
 O    0.7968939666   -3.7655019886    3.9958360285
 C    2.3140687017   -0.6556235614    2.7152960882
 N    2.0288243311   -0.0316618480    1.5742578058
 H    0.4640866775    2.0732714357    0.4354532160
 H   -0.7933970592    1.7394850224   -0.7743813121
 H   -1.1125328254    1.4398025813    0.9461185683
 H   -0.6188029069   -0.7246429781   -0.2451432543
 H    0.9248519122   -0.0676803679   -0.8039791821
 H   -0.5951701909   -1.9243038818    1.9481279580
 H    2.2169265613   -2.4519516779    4.8030534049
 H    0.5113156182   -2.0767420799    5.0411733226
 H    1.3542906854   -4.0855580574    3.2784997435
 H    3.2460219261   -0.4467813240    3.2219694587