24

 C   -0.1701105070    1.4544035078   -0.4133849864
 N   -0.2830670937    0.0094040188   -0.4428677261
 C   -1.1329138476   -0.6804573419    0.3731221932
 O   -1.8586974121   -0.1323967774    1.1871849480
 C   -1.1006586350   -2.2050987032    0.2221599856
 C   -0.5170366829   -2.7885621970    1.5213941587
 C   -2.5257038170   -2.7194972483   -0.1022844577
 C   -3.0450795834   -2.1149563117   -1.4155126032
 C   -2.6000193513   -4.2510517605   -0.1611527513
 H    0.8553400787    1.7699866066   -0.1910408174
 H   -0.4742669070    1.9013607821   -1.3668977744
 H   -0.8336966368    1.8125235941    0.3746187820
 H    0.2725296830   -0.5076149321   -1.1029914322
 H   -0.4398697892   -2.4776307006   -0.6140315558
 H   -1.1683283357   -2.5472456317    2.3660161951
 H   -0.4040321514   -3.8732406200    1.4596445862
 H    0.4702825558   -2.3631075013    1.7287710878
 H   -3.1714053242   -2.3660421690    0.7108604513
 H   -4.0651947189   -2.4542047133   -1.6216189872
 H   -3.0607925425   -1.0219460787   -1.3814146439
 H   -2.4201665944   -2.4198873005   -2.2646097270
 H   -2.3610953996   -4.7189994293    0.7972688382
 H   -3.6095701060   -4.5716741485   -0.4385010366
 H   -1.9101317819   -4.6535159345   -0.9136861969