20

 C   -0.0703356750    1.2474835976   -0.5895642900
 C   -0.0460297055   -0.1412686938   -0.1533972384
 C   -0.0284758772   -1.2869464036    0.2150807004
 C   -0.0020319555   -2.6826893857    0.6412746187
 N   -1.2626839094   -3.3609033955    0.3227483485
 C   -1.6053649815   -3.7820064040   -1.0151506396
 C   -0.3990378958   -4.3101789426   -1.8159955930
 C   -0.1402987694   -5.3572397569   -0.6871916602
 C   -1.3450147452   -4.7868762440    0.0878458151
 H    0.6658133908    1.4337352087   -1.3794840729
 H   -1.0554182418    1.5197441744   -0.9844669700
 H    0.1522824816    1.9292512812    0.2387818897
 H    0.8832024678   -3.1718198244    0.2063226031
 H    0.1219070065   -2.7396747279    1.7300688007
 H   -2.5414975033   -3.4310249789   -1.4357311706
 H   -0.6966323139   -4.7816037614   -2.7547867547
 H    0.3919976984   -3.5848082005   -2.0278256307
 H   -0.3256639926   -6.3784258782   -1.0272259842
 H    0.8298987785   -5.3361477509   -0.1810033376
 H   -2.0390681875   -5.3632221239    0.6907831455