18

 O    0.4885704570    1.0466066479   -0.5773176390
 C    0.1641193442   -0.2101335833   -0.0414524412
 C    0.3337705011   -0.4956748412    1.4852312651
 C   -0.1771291685    0.5973757355    2.4373394957
 O   -1.5215900979    0.0638614896    2.4363108389
 C   -1.1399372717   -1.0061073365    1.5439831828
 C   -1.3167540887   -0.6253681945    0.0742489534
 C   -2.4768759110    0.0300964576   -0.5655566630
 N   -2.1139820486   -1.3603646848   -0.9010596622
 H   -0.0884081073    1.7024005422   -0.1706455717
 H    0.7410888969   -0.9361686274   -0.6248866449
 H    1.2063818792   -1.0677413776    1.7939250219
 H    0.2620698325    0.5665139518    3.4411508135
 H   -0.1311797889    1.6330983833    2.0725594661
 H   -1.4780855922   -1.9893204248    1.8759169621
 H   -3.4023391662    0.1460876344   -0.0096174290
 H   -2.2724407869    0.8102733402   -1.2953934182
 H   -1.6264252429   -1.3856397724   -1.7951877704