20

 C    0.0004764476    1.4384639372   -0.3577911109
 N   -0.0015260182    0.0093227590   -0.0775273669
 C   -1.1705297927   -0.5072287239    0.7158225316
 C   -0.8865823546   -2.0143067919    0.6061972645
 C    0.4199779471   -1.8901633159    1.4179344032
 O   -0.1024725298   -1.5002512322    2.7196857192
 C   -0.3781862240   -0.2312122485    2.1088731891
 C   -0.7443265557    0.8564676220    3.0743569245
 C    0.7925910198   -0.3826415685    1.1037954834
 H    0.9629337634    1.7131667573   -0.8027721685
 H   -0.7797428483    1.6584043267   -1.0936545024
 H   -0.1619414955    2.0940923175    0.5142062988
 H   -2.1584538138   -0.1112875123    0.4828976936
 H   -1.5929485314   -2.6621736166    1.1283041432
 H   -0.7635182132   -2.3162757314   -0.4345436750
 H    1.1395662698   -2.7056523178    1.4540332021
 H    0.0580633574    1.0140428153    3.8014765893
 H   -0.9456176675    1.7998887826    2.5623721283
 H   -1.6479411641    0.5691932840    3.6239783699
 H    1.8153143236   -0.0267378523    1.2278759231