17

 O    0.0809874998    1.4082145107    0.0841645526
 C    0.0124823613   -0.0008044616   -0.0486124129
 C   -1.4182655277   -0.4616784431    0.0536699449
 C   -2.0726934513   -1.1097120595    1.2196806553
 N   -1.9192675101   -1.9178359992    0.0028987055
 C   -3.0410688620   -1.4701345722   -0.9116331612
 C   -2.4515112577   -0.0752380964   -0.9360020862
 N   -2.4944193958    0.9612814726   -1.6645650409
 O   -3.5351448854    0.8866926608   -2.6048603166
 H   -0.4728441907    1.7816284541   -0.6141707992
 H    0.4331984336   -0.3391232104   -1.0081794768
 H    0.6200217918   -0.4314760483    0.7527265125
 H   -1.4138633148   -1.4219144601    2.0249239556
 H   -3.0686701021   -0.8060799111    1.5361275041
 H   -2.9843266806   -1.9695203465   -1.8818119344
 H   -4.0415496354   -1.6032631956   -0.4892695099
 H   -3.4461162530    1.7195800058   -3.0808481624