18

 C   -0.3427237831    1.5483821270    0.1806642414
 C   -0.0737193745    0.0803675883    0.0527996204
 C    0.1961129282   -0.6307181186   -1.0815233126
 O    0.3797403924   -1.9540120205   -0.7777211789
 C    0.2277022877   -2.0812777767    0.5687033440
 C   -0.0461659563   -0.8782048114    1.1270315911
 C    0.3068426485   -0.2631690557   -2.4986613809
 C    1.2213634859   -1.0022710848   -3.4143155645
 N   -0.2339412909   -1.1525976368   -3.5521390370
 H    0.4415188214    2.0522912005    0.7576905463
 H   -0.3984520452    2.0370898480   -0.7953105729
 H   -1.2907924628    1.7341879122    0.6977033742
 H    0.3413799449   -3.0788302306    0.9596627643
 H   -0.2152999943   -0.6794733776    2.1745118887
 H    0.1308882481    0.7911416376   -2.6890593262
 H    1.7085365462   -0.4725666857   -4.2284347942
 H    1.7916862419   -1.8231143181   -2.9899203334
 H   -0.5196718578   -2.0275492671   -3.1171841597