18

 N    0.0602889656   -1.1091484896    0.0768878537
 C    0.0236710754    0.0464972956    0.0247585917
 C   -0.0275506407    1.4844039639   -0.0327042645
 C    0.5261731132    2.1214662113   -1.3062873660
 C    1.3235533584    2.2074161871   -0.0408645116
 O    1.4475957361    3.4450750718    0.5808783952
 C    0.5242217763    3.6991204619    1.6360575706
 C   -0.9119354188    3.5657590507    1.1413803009
 C   -1.1945718541    2.1109889601    0.7350102768
 H    0.8588670522    1.4571132512   -2.0948201529
 H    0.0477071904    3.0357704884   -1.6388800441
 H    2.2140437299    1.5903847069    0.0503584723
 H    0.7050093173    3.0140992929    2.4795825419
 H    0.7432119854    4.7160658101    1.9701968470
 H   -1.6135470644    3.8680833410    1.9255927613
 H   -1.0566759203    4.2500356323    0.2977330188
 H   -2.1157654132    2.0336942430    0.1483243535
 H   -1.3485969688    1.5173554112    1.6428965653