18

 O   -0.0994606434    1.4002480150   -0.2116403843
 C    0.0247832878   -0.0034828530   -0.0159427516
 C   -1.3777942594   -0.5755756038    0.0274704510
 C   -2.2328980892   -0.5642714206   -1.2713887389
 C   -2.7406585013   -1.9848155880   -0.8985941780
 O   -2.8359171448   -2.9713820661   -1.8912194647
 C   -1.5466151001   -2.1133937558    0.1028687797
 O   -0.4420250713   -2.7617264059   -0.5188422163
 H    0.7825682584    1.7638726063   -0.3309985643
 H    0.5919547321   -0.4755231943   -0.8295936275
 H    0.5502547574   -0.2309388028    0.9259168043
 H   -1.9250661401   -0.1074057504    0.8517770851
 H   -2.9738582237    0.2273738521   -1.3921591506
 H   -1.6018178923   -0.5935841502   -2.1654135192
 H   -3.7052867751   -1.9588545656   -0.3844406094
 H   -1.9581024636   -3.0313294920   -2.2882681311
 H   -1.7464596231   -2.5500701646    1.0892649307
 H   -0.6249143483   -3.7072767504   -0.5048934752