15

 N   -0.1650578963    1.1794290497   -0.3197789712
 C   -0.0522498916   -0.0370877063   -0.0399096988
 O    1.0270813880   -0.7641764446    0.4138601230
 C    0.2195393075   -1.9782315851    0.5203205889
 C   -1.0090185309   -1.2182074385   -0.0313244037
 C   -2.2529419029   -1.1022598647    0.8547162272
 C   -3.2788152676   -0.1347099865    0.2855215921
 O   -4.4425616852   -0.4086946211    0.1399015966
 H    0.7115625664    1.6849644371   -0.1822279245
 H    0.6246633931   -2.7757260322   -0.1059614823
 H    0.1469770694   -2.3068804402    1.5604001172
 H   -1.2836273712   -1.5333602538   -1.0419309084
 H   -2.7346271203   -2.0752619646    0.9889335567
 H   -1.9555060567   -0.7267096748    1.8440188848
 H   -2.8724562216    0.8606485256    0.0109886523