18

 C   -0.0768042541    1.5954940168   -0.0078073162
 C   -0.0164508133    0.0617624221   -0.0413753859
 C    0.7585945893   -0.4698501590   -1.2457374588
 O    2.1213437423   -0.0956334884   -1.0699686889
 N    0.6106246893   -0.4891155991    1.1553485942
 C   -0.0515374753   -0.6180751350    2.3348764358
 N   -1.3019835362   -0.3649392322    2.4715403704
 C    0.7847299705   -1.0967101656    3.4287918656
 N    1.4132056127   -1.4694854449    4.3250022112
 H    0.9304264107    2.0199657778   -0.0057314036
 H   -0.6098593410    1.9737765397   -0.8861779394
 H   -0.6101141008    1.9277421765    0.8851985025
 H   -1.0355248440   -0.3345950846   -0.0800880783
 H    0.6546280325   -1.5629832853   -1.2957693521
 H    0.3395464988   -0.0392323249   -2.1665263735
 H    2.6481267253   -0.5128309900   -1.7570250180
 H    1.6173153292   -0.5417114749    1.1440679046
 H   -1.6144993758   -0.5671899290    3.4171417303