14

 C    0.0404067831    1.4407424116    0.2138639276
 C    0.0790812020   -0.0617591520    0.0356415867
 C    0.6405023797   -0.6583809246   -1.2194302949
 N    1.3870779310   -0.7687408916    0.0274024088
 C   -0.9830164481   -0.8826713415    0.7147696432
 O   -1.0984110141   -2.0762700611    0.5990287275
 C   -1.9403136322   -0.1353280041    1.5617616677
 N   -2.6893305771    0.4431302883    2.2264553607
 H    0.8325404587    1.9087507957   -0.3773766714
 H   -0.9144746406    1.8615183379   -0.1157572513
 H    0.1835627040    1.7241893609    1.2615427602
 H    0.2223365870   -1.5944631580   -1.5756860355
 H    0.9712356533    0.0386727073   -1.9849820002
 H    2.1268394132   -0.0697317689    0.0608157611