14

 C   -0.1400896185    1.4600720246    0.0610106230
 C    0.0092170234   -0.0189409320   -0.0340978062
 C    0.0601720977   -0.8154113773   -1.1263291688
 O    0.2160658564   -2.1220974628   -0.6997079100
 C    0.2360127621   -2.0084200234    0.6431763350
 O    0.4301184417   -3.1291684553    1.3613641013
 C   -0.1760804658   -4.2989497119    0.9485246744
 O    0.0486013047   -5.3266602556    1.4957064224
 N    0.1205740573   -0.8175147705    1.1117798760
 H    0.7168226652    1.9029177574    0.5787749787
 H   -0.2167925670    1.9112446361   -0.9312280110
 H   -1.0356551601    1.7235163372    0.6329327362
 H    0.0085874394   -0.6658248930   -2.1902492470
 H   -0.8563704665   -4.1434708735    0.0986044661