19

 C    0.4317216014    1.5108052634    0.0384548783
 C    0.0807800829    0.0466329875    0.0652968593
 C    0.2559545657   -0.7406126889    1.3364407069
 C    1.7437313982   -0.9509143493    1.6888037387
 N    1.9353938089   -1.5852305752    2.9829554268
 C    1.9908305430   -0.8655698706    4.1345370078
 O    1.9372172278    0.3454847327    4.1962685455
 N   -0.3638411798   -0.6018625032   -0.9435897180
 O   -0.4743561360    0.2211550424   -2.0772687434
 H    1.2353555724    1.7038160432   -0.6799712748
 H   -0.4291722687    2.0966235958   -0.2991121885
 H    0.7416231742    1.8645783270    1.0236652984
 H   -0.2137982629   -0.2018391485    2.1677932780
 H   -0.2412217015   -1.7086000730    1.2290007991
 H    2.2261570215   -1.5635273843    0.9214301383
 H    2.2593470612    0.0116827930    1.7286058972
 H    1.9123965557   -2.5902301545    3.0465884918
 H    2.1055691063   -1.5141447681    5.0257211209
 H   -0.8350695903   -0.3854752093   -2.7321804824