15

 C    0.3604332985    0.9546277415   -0.5936769552
 O   -0.1555570209    0.2965034219    0.5652879271
 C    0.6240817067   -0.6536857712    1.0879363903
 N    0.2338309368   -1.2878255258    2.1100555823
 C    1.0622180171   -2.3317061759    2.6766147432
 C    0.1914836079   -3.6004905070    2.8349194209
 O    0.5917414029   -4.7202966385    2.7033539722
 C    2.3261394261   -2.6261920424    1.9828008347
 N    3.3066664766   -2.7859329068    1.3930334524
 H    0.5012494118    0.2488376254   -1.4194290079
 H   -0.3855950990    1.6971368016   -0.8761635623
 H    1.3084049999    1.4577440031   -0.3741502381
 H    1.5795844139   -0.8142368465    0.5724826789
 H    1.3129984109   -2.0395346405    3.7102766125
 H   -0.8546883393   -3.3469225091    3.0993697093