17

 C    0.0530757402    1.5337737567    0.0170067591
 C   -0.0180069043    0.0278134709   -0.0312206667
 C   -1.1680952794   -0.6852304245    0.0243199639
 C   -2.5415353140   -0.1009521855    0.1413688095
 C   -1.0929383570   -2.1449057309   -0.0325587698
 N   -2.1287325430   -2.8810012921    0.0141530941
 O    0.1600881605   -2.7280059632   -0.1411577555
 N    1.3389563589   -1.9961418630   -0.1980746424
 C    1.2163841628   -0.7180774790   -0.1442799294
 H    1.0882822095    1.8784328115   -0.0428289963
 H   -0.4969641476    1.9890886298   -0.8128793031
 H   -0.3747333984    1.9270448798    0.9448351242
 H   -3.1604473636   -0.4248478719   -0.7015892056
 H   -3.0384639608   -0.4864521135    1.0374621968
 H   -2.5249698425    0.9887829164    0.1787901708
 H   -1.8717233810   -3.8675772127   -0.0387618706
 H    2.1655379098   -0.1905053088   -0.1922808990