16

 C    0.0799904738    1.4617795558    0.0660100190
 C   -0.0268377918   -0.0333540536    0.0190165756
 N   -0.0735252774   -0.5566538771   -1.1620660094
 O   -0.1678107206   -1.9356382286   -1.2594609136
 C   -0.2708345658   -2.6907759670   -0.1442853841
 C   -0.2025204375   -2.2152136199    1.1162648789
 N   -0.2280926417   -3.0246472755    2.2590510448
 C   -0.0364455731   -0.7794421354    1.2879249923
 N    0.0963394751   -0.1327822283    2.3940956533
 H    0.9882829134    1.7531891973    0.6011679542
 H    0.0908095488    1.8702069451   -0.9449363554
 H   -0.7581168860    1.8797266628    0.6315959080
 H   -0.3973225656   -3.7366533076   -0.4023157946
 H   -0.4454102686   -3.9936901971    2.0640871365
 H   -0.8596596051   -2.6715326598    2.9699543897
 H    0.1397670319   -0.7774095014    3.1852916049