19

 C    0.0502767300    1.4232953445    0.5836895811
 C    1.0790794500    2.0987930033   -0.3702321044
 C    1.9866318999    0.9604085981   -0.8965362987
 C    2.4134638147    0.9707721891   -2.3877730129
 C    1.9593826382   -0.3803313036   -2.9077327399
 C    1.2535307045   -1.0768144640   -2.0122120937
 C    1.1188135398   -0.2978751807   -0.7665449727
 O    1.0426392259   -0.8610697103    0.5463835622
 C   -0.0391528210   -0.0207781770    0.0994527938
 H    0.3920957410    1.4351910832    1.6240536997
 H   -0.9225184214    1.9225369935    0.5512287281
 H    0.5393998950    2.5440394901   -1.2147747430
 H    1.6358970983    2.9065548761    0.1133361221
 H    2.8642046128    0.8440509109   -0.2527159051
 H    1.9229527784    1.7823535750   -2.9431167498
 H    3.4906900404    1.1200257054   -2.5235487029
 H    2.1698064385   -0.7065380264   -3.9207033122
 H    0.8092393250   -2.0535068893   -2.1580048098
 H   -0.9982275700   -0.5239413677    0.0019645779