21

 O    0.2313175125    1.5157918018    0.0784788037
 C    0.1025465471    0.1263491367    0.1044495035
 C   -1.3560828678   -0.3494123292   -0.0399127518
 C   -1.1566667760   -1.3357096841    1.1517792220
 C    0.2932192100   -0.8220699466    1.3649095480
 C    1.3751254065   -1.6226421529    0.5899123274
 C    1.1583747468   -0.7151108270   -0.6342142819
 C    1.1860816470   -1.0727733567   -2.0898670046
 C    2.2296937307   -0.1406913090   -1.5200433101
 H    1.1673011816    1.7286747110    0.1660935687
 H   -2.0510030477    0.4604979804    0.1937532179
 H   -1.6286426353   -0.7804710957   -1.0069625482
 H   -1.8254580900   -1.1431510070    1.9933566412
 H   -1.2264503598   -2.3970107015    0.8979187435
 H    0.5532621702   -0.4544192128    2.3579422824
 H    2.3784937351   -1.5407272772    1.0195262707
 H    1.1492947330   -2.6838108872    0.4438348625
 H    1.4916008117   -2.0778816328   -2.3632771561
 H    0.4248425295   -0.6450501238   -2.7353688671
 H    2.1602662352    0.9095576508   -1.7887517160
 H    3.2440975897   -0.5090492373   -1.4013599657