19

 C   -0.2251210240    1.4578455447    0.2924188921
 C    0.0137256890   -0.0400563696    0.0670655039
 C    0.3192695246   -0.3491165923   -1.4092606215
 C    0.8649836981   -1.7649904300   -1.6014962761
 O    0.1498330595   -2.7182767879   -0.7986897371
 C    0.4679458886   -2.8421776623    0.5086131627
 O    0.0268333295   -3.7316064402    1.1709693614
 O    1.3807711116   -1.9511719246    0.9815505819
 C    1.1195235724   -0.5313786504    1.0013386071
 H    0.6792930737    2.0393573443    0.0796133180
 H   -1.0178563077    1.8250836965   -0.3660813250
 H   -0.5243709532    1.6650236698    1.3245098447
 H   -0.9075757088   -0.5707559990    0.3393849386
 H   -0.5944809946   -0.2117902444   -1.9971168207
 H    1.0584953846    0.3617492172   -1.8001919328
 H    0.7329856321   -2.1085883190   -2.6295715315
 H    1.9284684316   -1.8155833815   -1.3535989364
 H    2.0740689097   -0.0522277812    0.7549463333
 H    0.8696366031   -0.2718925499    2.0366732372