13

 C   -0.0161573956    1.4579693044   -0.0905955390
 C   -0.0976830805   -0.0406303009    0.0626442426
 O   -0.2420942408   -0.6412064018    1.0968387724
 O    0.0146776090   -0.6484025677   -1.1408454957
 C   -0.0519208253   -2.0882517187   -1.0950734548
 C    0.0811917037   -2.6057123511   -2.4458529228
 C    0.1882495374   -3.0669138729   -3.5490293229
 H    0.9361893030    1.7356091376   -0.5507776976
 H   -0.8118677178    1.8101064867   -0.7529001279
 H   -0.1092538851    1.9271456276    0.8878981256
 H    0.7436486783   -2.4664966117   -0.4440280084
 H   -1.0030656527   -2.3920852586   -0.6446651095
 H    0.2831903665   -3.4726677928   -4.5259584820