20

 C    0.0915302938    1.5353780058    0.1082217121
 C   -0.0581732734    0.0168687388   -0.0438452504
 C   -1.4870429813   -0.4732216906   -0.0340237986
 C   -2.6483307984    0.0786106361   -0.8936227118
 N   -3.6037387544   -0.5039207575    0.1200586532
 C   -3.2842148697   -1.9656825740    0.1241749460
 C   -2.4623678692   -1.9353077648    1.3781602750
 C   -1.7594729397   -2.0021364880    0.0300800543
 C   -2.4883793170   -0.4045881579    1.1817556045
 H    1.1469357692    1.8228974283    0.1322980448
 H   -0.3791969835    2.0705925906   -0.7224892411
 H   -0.3705749384    1.8899270625    1.0358319348
 H    0.4211189668   -0.3068396384   -0.9784582328
 H    0.4901285874   -0.4881831624    0.7627793189
 H   -2.7270577056    1.1697997262   -0.8713253701
 H   -2.7746347133   -0.2858437981   -1.9182765265
 H   -3.9516453628   -2.7198512386   -0.2719162305
 H   -2.4426006465   -2.5827403335    2.2436100222
 H   -1.1957095494   -2.8131199607   -0.4119270590
 H   -2.5500578644    0.3839238663    1.9298880452