20

 C    0.0992506344    1.5708410144    0.0047659677
 C    0.0313503806    0.0384622369    0.0081408118
 C    0.5436520793   -0.5446839259   -1.3280101262
 C    0.7647445209   -2.0350555862   -1.2846133229
 C    1.0743454352   -2.6787857156   -0.1572804777
 C    1.2285058594   -1.9825092519    1.1427763354
 C    2.2169671250   -0.8255101464    1.2493379979
 C    0.7387460072   -0.5520748188    1.2184623429
 H    1.1381490331    1.9136066574   -0.0588044328
 H   -0.4464682962    1.9907404264   -0.8472418660
 H   -0.3335815795    1.9906471243    0.9190905254
 H   -1.0243823493   -0.2552908501    0.0979452582
 H   -0.1681804356   -0.2903133504   -2.1223309160
 H    1.4791872136   -0.0377781190   -1.6100634915
 H    0.6870397254   -2.5823087868   -2.2200271879
 H    1.2361432082   -3.7534215885   -0.1687254413
 H    1.1175256773   -2.5994100177    2.0287459711
 H    2.7427427386   -0.6909265493    2.1886750131
 H    2.8135755910   -0.6094503619    0.3697296496
 H    0.3000835016   -0.2533973509    2.1673976691