18

 O    0.4008997155    0.7566117981    0.7996311096
 C    0.1460947778   -0.3403161278   -0.0224836329
 C   -1.3105978751   -0.8752497209   -0.2598355272
 C   -0.9568712239   -1.1175857160   -1.7611539424
 C    0.2073841932   -0.1488106602   -1.5365702757
 O    0.7545123586    0.6870771993   -2.2015896750
 N   -1.6654718614   -2.0479180513    0.5047471241
 C   -2.2886807970   -1.8013992162    1.8051406411
 C   -3.0950145527   -2.3143210204    0.6648377553
 H    0.5770792029    1.5095061416    0.2215082616
 H    0.7554467833   -1.2019934894    0.2863211566
 H   -2.0286407252   -0.0449181791   -0.1577183624
 H   -0.6186156168   -2.1464371538   -1.9168557160
 H   -1.6829030389   -0.8442197162   -2.5277048440
 H   -1.9796749662   -2.4673205290    2.6050315317
 H   -2.4444221194   -0.7675526735    2.1062000316
 H   -3.7965577765   -1.6244781681    0.1989564001
 H   -3.3854192882   -3.3596692770    0.6196340939