18

 O    0.1798378959    1.3868698213   -0.1676770711
 C    0.0637248635   -0.0153094993   -0.0370753290
 C    0.3082909895   -0.7462878800   -1.3755121904
 C   -0.9072300191   -1.6637324706   -1.0673432448
 C   -1.3473161417   -0.7027931914    0.0784419929
 C   -1.4574887767   -1.3009410865    1.4900141876
 C   -0.0325206310   -1.2216615528    1.9983832178
 C    0.7807306211   -0.5592826945    1.1737477676
 H    0.0655091360    1.7747208447    0.7071704563
 H    0.1159125088   -0.0649316749   -2.2084185210
 H    1.2829503740   -1.2191254940   -1.5199604576
 H   -1.6220831078   -1.8071151183   -1.8799380183
 H   -0.6121727122   -2.6467027329   -0.6897163921
 H   -2.1778600868   -0.0541951601   -0.2045992202
 H   -2.1440852927   -0.7479189666    2.1457567696
 H   -1.8262593506   -2.3345252849    1.4678652543
 H    0.2713999488   -1.6710839273    2.9386469061
 H    1.8388350209   -0.3791010220    1.3354603022