22

 O   -0.1213385941   -0.0455385380    0.3452495092
 C   -0.0354141495    1.1637699988    0.2728902773
 N    1.1140341379    1.8643645168    0.0602542499
 C    2.3643465844    1.1128637883   -0.0714479175
 C    3.4227836873    1.7718457224   -0.9618986036
 C    2.9155708163    2.2907353203   -2.3187997565
 C    2.3328106630    3.7115987261   -2.2540752871
 C    1.0328471228    3.8623862961   -1.4547573454
 C    1.0772279763    3.3185699916   -0.0161444526
 H   -0.9133709947    1.8330912190    0.3762670545
 H    2.7930160585    0.9287956192    0.9240597677
 H    2.0834220401    0.1350653919   -0.4713540386
 H    3.9145671797    2.5939850906   -0.4264425601
 H    4.2010791441    1.0165051551   -1.1188554769
 H    3.7528452467    2.3007007849   -3.0257047239
 H    2.1743026151    1.5940823588   -2.7318623424
 H    3.0952322537    4.3771111717   -1.8251836161
 H    2.1551952137    4.0743698754   -3.2733551761
 H    0.7649297870    4.9256061191   -1.4107775583
 H    0.2123041470    3.3548455419   -1.9776288738
 H    0.1804066093    3.6513895156    0.5169348837
 H    1.9327640354    3.7337924845    0.5303737667