19

 C    0.0201989609    1.5531958473   -0.0548925533
 C    0.0211395192    0.0376264401    0.0045971766
 C   -1.1939464913   -0.6180303890   -0.6314403253
 C    1.2838546311   -0.7365810699   -0.1357706777
 O    2.4282106595   -0.0618301374    0.3493768861
 C    1.8803125850   -0.0370878640    1.7007714113
 C    0.5787516242   -0.6892622843    1.2484727199
 C   -0.0925309205   -1.7319806564    2.0275666543
 O    0.2516570284   -2.0485900598    3.1458932694
 H    0.9873014968    1.9690035855    0.2314416594
 H   -0.1902722782    1.8832527275   -1.0780741012
 H   -0.7523483165    1.9731345272    0.5976407301
 H   -1.3078977935   -0.2610609167   -1.6602179158
 H   -1.1105152683   -1.7084271342   -0.6678735329
 H   -2.1119651879   -0.3707239367   -0.0881158667
 H    1.4331848394   -1.5680865949   -0.8180438176
 H    2.4553816610   -0.6905772661    2.3613837592
 H    1.8358258518    0.9749320032    2.1144774450
 H   -0.9540117011   -2.2306725313    1.5361854793