17

 C    0.0669521506    1.4784906440   -0.1666920048
 C    1.3112848895    0.6723246174    0.0056743767
 C    2.1024599046    0.7756220185    1.2792168040
 O    1.8055304818    1.8385049884    2.1912402288
 C    1.4469195515    0.5063096081    2.5745072473
 C   -0.0373693350    0.1865541054    2.5848134707
 C   -0.4934306716   -0.5126891815    1.2823719310
 N   -0.0170138345    0.0355844900    0.0149190106
 H   -0.1919706957    2.1426774763    0.6531239105
 H   -0.2108285475    1.8373500831   -1.1541547989
 H    1.9065101111    0.4280124128   -0.8710956983
 H    3.1665365251    0.5685788046    1.1747508501
 H    2.0480231608    0.1079498710    3.3907361314
 H   -0.2755451599   -0.4698871858    3.4277762379
 H   -0.5922657167    1.1164202157    2.7464798727
 H   -0.1559282907   -1.5562647364    1.3079513472
 H   -1.5876405134   -0.5352904917    1.2433769131