16

 N   -0.0411123969    1.3280968438    0.2130896521
 C    0.0546332739    0.0220247139   -0.1684200884
 O    1.0928191157   -0.4688091615   -0.5649184355
 C   -1.2516005072   -0.7707512580   -0.0767770335
 C   -0.9929858036   -2.2727684220    0.0474608999
 C   -2.2977746333   -3.0860284401   -0.0456026807
 C   -2.0759204951   -4.5239861737    0.0934394499
 N   -1.8896754722   -5.6585749696    0.2078933732
 H    0.7694416742    1.9162351453    0.1084909527
 H   -0.9065023667    1.7440187595    0.5080950665
 H   -1.8618067150   -0.4046856392    0.7580837798
 H   -1.8237478942   -0.5617051468   -0.9916682344
 H   -0.2990323061   -2.5793468493   -0.7382574606
 H   -0.4961547176   -2.4885264957    0.9984165487
 H   -3.0046937873   -2.7721087441    0.7320828275
 H   -2.7919619185   -2.9042935424   -1.0076934572