21

 O    0.2464397775    1.4282197701   -0.1271903800
 C    0.1605359704    0.0241629053   -0.0540477955
 C    0.2916781989   -0.6209282393    1.4158554565
 C   -1.2658445428   -0.5636011874    1.4746203742
 C   -2.6046544652   -1.3819220541    1.4006249916
 C   -2.8446490088   -0.3955214037    0.1552793592
 C   -3.0031448027    0.9554164522    0.8595980910
 C   -1.8276046272    0.8308671720    1.8731877247
 C   -1.2914826736   -0.5773411044   -0.0351728813
 H    1.1639889408    1.6781224186    0.0235119193
 H    0.8155540048   -0.4363372380   -0.8071204839
 H    0.7058882527   -1.6307899791    1.3533440004
 H    0.8519870549   -0.0438516060    2.1588310441
 H   -2.4781978442   -2.4215387883    1.0930188192
 H   -3.3176099547   -1.3091752581    2.2294689496
 H   -3.5576737292   -0.6512075945   -0.6310434222
 H   -2.8761392988    1.7980722336    0.1753582739
 H   -3.9810717975    1.0516726882    1.3410007042
 H   -2.1647626319    0.8207072098    2.9150523636
 H   -1.0982576059    1.6296449376    1.7553823324
 H   -1.1386382176   -1.6062705446   -0.3815103312