21

 C    0.6674320066    1.2715613343    0.8155103359
 O    0.7922575970   -0.0859854333    0.4695132952
 C   -0.1991150902   -0.8977820938    1.0629671417
 C    0.0670851285   -2.3415606054    0.6448691088
 C    1.3535938202   -2.9362193634    1.2521801073
 C    0.8405491796   -3.7390381467    2.4505738302
 O    0.7352921308   -2.8455903893    3.5537416641
 C   -0.5244966314   -4.1996856147    1.9307561123
 O   -1.0212914247   -3.1434702082    1.1251391857
 H    0.7489117620    1.4254344355    1.9031407818
 H    1.4773168466    1.8134144747    0.3202915673
 H   -0.2954964245    1.6913131969    0.4829916249
 H   -0.1700641587   -0.8244956288    2.1602115088
 H   -1.2055796759   -0.6014321540    0.7256096389
 H    0.0906847177   -2.3866090618   -0.4513639504
 H    1.8476587456   -3.6044140802    0.5416492464
 H    2.0638496460   -2.1641756218    1.5509414675
 H    1.4902447593   -4.5898506589    2.6990290654
 H    0.2510465429   -3.2896974900    4.2571133184
 H   -0.4120190886   -5.1264054953    1.3438489153
 H   -1.2447742287   -4.3937609758    2.7347053244