19

 C    0.4262734368    1.0819003458   -0.4717998395
 N   -0.2877547981   -0.0099293523    0.1973166840
 C    0.4219132628   -0.6348811941    1.2624967284
 C    0.7721986249   -1.9636947806    1.1915889462
 O    0.5383493522   -2.8562462397    0.2035139170
 N    1.4282218915   -2.3314761259    2.3274050048
 C    2.0018561163   -3.6354234749    2.5806628772
 C    1.5182836189   -1.2155215319    3.1506464908
 C    0.9069364525   -0.1593902117    2.5251078725
 H    1.3468024978    0.6902132370   -0.9145749909
 H   -0.1974307341    1.4843117611   -1.2769363409
 H    0.7042811144    1.9108459412    0.1978645311
 H   -1.1945094022    0.3234122025    0.5087036040
 H    0.0246449317   -2.3554102894   -0.4491391830
 H    3.0377474819   -3.7023619058    2.2272936856
 H    1.9835092604   -3.8379574864    3.6541982644
 H    1.4118881341   -4.3970371656    2.0674900915
 H    2.0084979370   -1.2917981926    4.1074551669
 H    0.8031519510    0.8372763433    2.9271662499