15

 O    0.8318751037   -0.0575825464   -0.4243968008
 C    0.3551859404    1.0229540964   -0.2052127834
 C    1.1920108256    2.2583605737    0.1439788321
 O    2.4688658330    1.8747770582    0.6324232453
 C    3.4727267665    1.5410706013   -0.2245694573
 O    4.4947170552    1.0975205748    0.2126615168
 C    3.2395861489    1.8099792172   -1.7070898816
 C    2.2351760608    2.8968272803   -1.9671707093
 C    1.2553535129    3.1192311466   -1.0966272510
 H   -0.7356516654    1.2206356733   -0.2922722695
 H    0.7083276629    2.7921573246    0.9691861557
 H    4.2143531794    2.0256763683   -2.1495328285
 H    2.8993916071    0.8641381277   -2.1516663777
 H    2.3357593945    3.4894337857   -2.8709788358
 H    0.4932365545    3.8760106783   -1.2406444351