17

 O    0.0893488889    0.0266675840   -0.3145498405
 C    0.0378872629    1.2035993318   -0.0885285635
 C   -1.0950611201    2.1737216035    0.3101575017
 C   -0.0126970586    3.2844440279    0.5175854109
 C    1.0539020225    2.3097816436   -0.0136232195
 C    2.5276259270    2.2847996229    0.3559490822
 C    3.1828442042    1.0906440782   -0.3424348875
 O    2.6972741697    1.5497260546   -1.6407868965
 C    2.1209043711    2.6866467652   -1.0278574558
 H   -1.7969851249    2.3684464052   -0.5057522784
 H   -1.6633544398    1.8733181210    1.1940156146
 H   -0.1583679378    4.1905343058   -0.0752299758
 H    0.1234569633    3.5677430525    1.5643094766
 H    2.9193337094    2.8572133879    1.1864535525
 H    4.2765213591    1.1178112193   -0.3179194362
 H    2.8086308591    0.0945906052   -0.0952855001
 H    2.1061429139    3.6268937615   -1.5687123348