17

 N   -0.0863012074    1.5329617946   -0.0356553406
 C   -0.0541208371    0.0958443796   -0.0036410381
 C    0.3834709464   -0.6671426925    1.2898663214
 O    0.1595707067    0.1421409843    2.4173732719
 C   -0.8027527290   -1.6555434140    1.0799294121
 O   -1.5113964638   -1.9920873945    2.2438206415
 C   -1.4445453118   -0.6429120889    0.0588803459
 C   -2.5194070188    0.1127189569    0.6718221138
 N   -3.3862432742    0.6345299628    1.2345236121
 H   -0.3189193935    1.8789161899    0.8920879856
 H    0.8297000303    1.9027949713   -0.2676157814
 H    0.4912542482   -0.2777228846   -0.8740796489
 H    1.3929808482   -1.0978646072    1.2986621179
 H   -0.3149283176   -0.4112303923    3.0546499692
 H   -0.5002588636   -2.5759094214    0.5730431848
 H   -2.2996289107   -1.4356579732    2.3088797669
 H   -1.7969869120   -1.0695048709   -0.8824365540