18

 C    0.2630110679    0.7892920540    0.8859934586
 C    0.0382312690   -0.0009537483   -0.3857831032
 O    0.8455429810   -0.0331740907   -1.2848870281
 C   -1.2539193417   -0.8158054612   -0.4769765947
 C   -1.0447641116   -2.2494293965    0.0384939396
 O   -0.7580238750   -2.2875841251    1.4428860214
 C   -2.2373466678   -3.1635280885   -0.2510971821
 O   -2.0183625018   -4.4572675939    0.2622231718
 H    1.2233610118    1.3042163719    0.8454959745
 H   -0.5434818382    1.5169541735    1.0334160751
 H    0.2394402761    0.1004298100    1.7376321249
 H   -2.0678916463   -0.3414676016    0.0862317153
 H   -1.5418810751   -0.8602424493   -1.5316658327
 H   -0.1541613262   -2.6764278758   -0.4346612559
 H   -1.5087442520   -1.8934573858    1.9049506776
 H   -3.1511104919   -2.7055085806    0.1742981060
 H   -2.3922758598   -3.2564784388   -1.3312519666
 H   -1.5927028284   -4.3301046032    1.1199941986