17

 O    0.0583100348    1.3894648481    0.0346062582
 C    0.0178910578   -0.0090131143   -0.0118820377
 C   -1.4319535865   -0.5552336702    0.0352465799
 C   -1.5138758909   -2.0095227444   -0.3454895591
 C   -0.5555311864   -2.6713821731   -0.9914511550
 C    0.7605101631   -2.0490463858   -1.4130385561
 O    1.1030510629   -2.4140942278   -2.7273761501
 C    0.6721227817   -0.5412210471   -1.2680267771
 O    1.0570583889    0.2031883299   -2.1477025840
 H    0.4222971184    1.6727584127   -0.8181104438
 H    0.5626750589   -0.4269385558    0.8495758713
 H   -1.8409836415   -0.3860960793    1.0370690109
 H   -2.0428341828    0.0522453738   -0.6460793642
 H   -2.4301039571   -2.5300879522   -0.0782644686
 H   -0.6739568783   -3.7161282190   -1.2623519269
 H    1.5531918326   -2.3892157073   -0.7192218048
 H    1.3269082544   -1.5874472981   -3.1809011729