18

 O   -0.0379391208    1.4451877767   -0.1275094177
 C    0.0161965549    0.0477619030   -0.0280451952
 C    0.5853804301   -0.5839531525   -1.3089431897
 C   -0.2510272192   -0.2047203128   -2.5240548778
 O    0.3065440865   -0.8497513409   -3.6665120106
 C    0.1878721545   -0.2213968720   -4.8521389918
 N    0.5500023883   -0.8009580983   -5.9126531042
 C    0.8412797419   -0.3628871373    1.1753641639
 O    1.3461674771    0.4562659686    1.9036907113
 H    0.4663669457    1.7815510793    0.6308150917
 H   -0.9984774606   -0.3630741032    0.1380182032
 H    1.6149164129   -0.2416244241   -1.4595582755
 H    0.6063251259   -1.6754304179   -1.2100489315
 H   -1.2909179566   -0.5352107974   -2.3932912802
 H   -0.2523045405    0.8835414469   -2.6515955611
 H   -0.2247581801    0.7940910148   -4.7687878809
 H    0.4174169083   -0.1805096356   -6.7085008304
 H    0.9557991015   -1.4520114673    1.3484262266