18

 C    0.0360112078    1.3599775589    0.4265041006
 C    1.5010105509    1.5627796228   -0.0533019109
 C    2.5653550620    1.1583685224    0.9941575059
 C    2.4438602718   -0.3342084955    0.5392278499
 N    1.9271550415   -1.2541173667    1.5328341978
 C    0.7036633487   -1.5728493523    1.4996282456
 O   -0.2832168322   -1.1529539509    0.6709757258
 C    0.0242235966   -0.0654010640   -0.2013517056
 C    1.4966140385    0.0942830468   -0.6192577837
 H   -0.1070179499    1.3819625308    1.5103199325
 H   -0.6923795358    2.0320278252   -0.0325043932
 H    1.6962426205    2.4410654130   -0.6673146339
 H    3.5544241829    1.5729848590    0.7846788878
 H    2.3175080615    1.3522455096    2.0412916274
 H    3.3944639467   -0.7379723300    0.1824023645
 H    0.3003309903   -2.2934448396    2.2093064140
 H   -0.6746322006   -0.1647027813   -1.0329136701
 H    1.7793946789   -0.1913550382   -1.6317553842