18

 C   -0.0663872583    1.5224430297    0.0007156268
 C    0.0005531392    0.0140675250   -0.0085088852
 C    0.0129575440   -0.7019053367   -1.2023629469
 C    0.0764878560   -2.0971656533   -1.1883180297
 C    0.1301123564   -2.7869197602    0.0115779003
 O    0.1832643415   -4.1569881267    0.1016392026
 C    0.1228071110   -2.0882696681    1.2341814235
 N    0.2356655323   -2.8032438982    2.4280742979
 C    0.0547136128   -0.6966113358    1.1960529096
 H    0.8249323067    1.9630615319    0.4629359211
 H   -0.1440866534    1.9212800287   -1.0143422267
 H   -0.9316689005    1.8848082526    0.5679604313
 H   -0.0285191980   -0.1776313239   -2.1512816020
 H    0.0801241990   -2.6531584541   -2.1230069557
 H    0.1492223787   -4.5298069019   -0.7844083067
 H   -0.0490476808   -3.7688578105    2.3467923274
 H   -0.1822737214   -2.3499131065    3.2274127545
 H    0.0478904950   -0.1534967021    2.1382404578