21

 C   -0.0212989592    1.5859434833   -0.0263580878
 C    0.0415620857    0.0568655065   -0.0348311948
 C    0.6743782306   -0.5213566133    1.2458497850
 C    0.7571653447   -2.0194962688    1.2586335387
 C   -0.0618780542   -2.8798691526    1.9205965473
 O    0.2944339960   -4.1723221824    1.6953966194
 C    1.3729979180   -4.1338765630    0.8680013411
 C    1.7110088210   -2.8540887398    0.5596113293
 C    2.8470522201   -2.4062025285   -0.3071827889
 H    0.9798629472    2.0241996625    0.0548641467
 H   -0.4797297111    1.9713961867   -0.9423347558
 H   -0.6108149460    1.9536885101    0.8211428320
 H   -0.9664661471   -0.3598114817   -0.1484905466
 H    0.6100838654   -0.2845406076   -0.9084469309
 H    1.6787698822   -0.0937081232    1.3689594746
 H    0.0932951086   -0.1822708356    2.1122883934
 H   -0.9065022009   -2.7330011517    2.5745619877
 H    1.7894025381   -5.0898970096    0.5939135567
 H    2.4969130799   -1.8968223073   -1.2125108069
 H    3.5032543031   -1.7039596254    0.2202861539
 H    3.4584946078   -3.2561365084   -0.6232138643