15

 O    0.2818191694    1.0313180645   -0.6982292936
 C   -0.0268953875    0.0453978124    0.2663709071
 C   -1.4003566550   -0.5137893197    0.0648919069
 C   -2.2474952218   -0.5311644040   -0.9946486510
 C   -3.4320451875   -1.2237418525   -0.5561525140
 C   -4.6493821680   -1.5108515507   -1.3174926129
 O   -5.6112130432   -2.1020281610   -0.8789747943
 C   -3.1978802221   -1.5707328751    0.7461989939
 O   -1.9796910920   -1.1453705747    1.1361590364
 H   -0.3574785280    1.7455253679   -0.6010318051
 H    0.7327604229   -0.7363550816    0.1450627564
 H    0.0639081356    0.4166707037    1.2991103290
 H   -2.0535787718   -0.1167198183   -1.9713012204
 H   -4.6349653183   -1.1371504440   -2.3652660022
 H   -3.7881919925   -2.0942761868    1.4793798237