11

 N   -0.0830816352    1.3200420809    0.0084821947
 C    0.0552076156   -0.0307874498    0.0024689838
 O    1.1210312691   -0.6189593789   -0.0085662044
 C   -1.2277360153   -0.7737967925    0.0109376781
 C   -1.4284713472   -2.1210485887    0.0081500954
 O   -2.7272003345   -2.3646846735    0.0183760926
 N   -3.3804111280   -1.0749450908    0.0283360264
 N   -2.4814000890   -0.2020300561    0.0233462796
 H    0.7464219307    1.8890554971    0.0028719045
 H   -0.9910807508    1.7534392227    0.0171183745
 H   -0.7475521756   -2.9558032805   -0.0003977550