16

 C   -0.6881442751    1.5087021324    0.2699129051
 C   -0.1430232039    0.1224948851    0.1095270811
 C    0.3502754954   -0.4712253976   -1.0402612224
 C    0.4896768122    0.0808355390   -2.4329765741
 C    0.8752359308   -0.9409750896   -3.4056019387
 N    1.1923432243   -1.7729848046   -4.1417680742
 N    0.7379866796   -1.7247790799   -0.6934229409
 N    0.5297795151   -2.0025010686    0.6041820092
 C   -0.0003765172   -0.8842760243    1.0915995220
 H    0.0986850999    2.2720662503    0.2324407816
 H   -1.4164604466    1.7572829907   -0.5109232419
 H   -1.1954825210    1.6140956133    1.2325012585
 H   -0.4550059794    0.5343025586   -2.7575868368
 H    1.2391018057    0.8827607915   -2.4640954339
 H    1.1196764461   -2.4331209470   -1.3007730376
 H   -0.2711211760   -0.8294598995    2.1366618430