19

 C    0.0621634171    1.4365104320   -0.1484069270
 C   -0.0084560490   -0.0475594738    0.0172637817
 O    0.5382158874   -0.9015173017   -1.0488411150
 C    0.0382786995   -1.8523483399   -0.0435151000
 C    0.1852447907   -3.3162781794   -0.3084844350
 C    0.6072283852   -0.9732423859    1.1338206757
 C   -0.3880281449   -1.0372486179    2.2694609816
 C   -1.5833418526   -1.0478718126    1.6650209400
 C   -1.2594756159   -0.9897943838    0.1898760659
 H    1.1026625472    1.7618792956   -0.2441577039
 H   -0.4812503966    1.7477102805   -1.0459186071
 H   -0.3822881926    1.9307594453    0.7209082821
 H    1.2409368321   -3.5799552465   -0.4253598444
 H   -0.2303601174   -3.8901736076    0.5254489723
 H   -0.3439782424   -3.5943902516   -1.2251346451
 H    1.6827967068   -0.9512117717    1.3070727512
 H   -0.1576513278   -1.0668336897    3.3254406951
 H   -2.5698868683   -1.0882647937    2.1056333493
 H   -2.0367267486   -0.9842165977   -0.5737984574