16

 C   -0.0040850956    1.4085382931    0.0108724485
 C    1.4337959526    1.9654522882    0.0045147020
 C    2.1748589140    1.2421258791   -1.0713211610
 N    3.3314778180    1.5638259920   -1.6512136173
 N    3.5024577012    0.5796605419   -2.5291670094
 N    2.5603333604   -0.3592386372   -2.5745617604
 C    1.7016028132    0.0502701204   -1.6433982383
 C    0.4113190806   -0.5828002974   -1.2226600970
 O   -0.0200004949   -0.0130609001    0.0061161107
 H   -0.5360719745    1.7125765692    0.9156223576
 H   -0.5580568753    1.7982925350   -0.8585866484
 H    1.4248728175    3.0475828994   -0.1630793136
 H    1.9014922462    1.7906999028    0.9807157624
 H    4.3106868222    0.5429497075   -3.1283865505
 H   -0.3589150000   -0.4496748709   -2.0009745080
 H    0.5219296843   -1.6564582428   -1.0462436972