13

 N    0.1214682804    1.4142814325    0.1174741791
 C   -0.0239854027    0.0227396252    0.0246025010
 C   -1.0895982621   -0.8263539808    0.0532061669
 N   -0.6698304964   -2.1511625386    0.0090967025
 C    0.6266110797   -2.1114174112   -0.0572542656
 N    1.1046998079   -0.8072411304   -0.0383891577
 C    2.4439838593   -0.4162442496    0.0110677888
 O    3.3636586883   -1.1876947910   -0.0586403951
 H    0.3408819233    1.8534134993   -0.7717621726
 H   -0.7198235074    1.8418619704    0.4836907337
 H   -2.1370593142   -0.5703538155    0.1038090116
 H    1.3058473027   -2.9462533555   -0.1212471628
 H    2.5475167512    0.6740344853    0.1305247000