18

 C    0.1061560437    1.4222335919    0.0753371593
 C   -0.0006818041   -0.0609783695    0.0133525963
 C   -0.0041186373   -0.9223042297   -1.0143520343
 C   -0.0327911469   -2.2934965659   -0.3180164855
 N   -1.0065153343   -2.0935026106    0.8163518645
 C   -0.0394950429   -1.0158875131    1.2298690007
 C    1.0357995627   -2.0466849362    0.7851278729
 C    1.9353729210   -2.9202340113    1.5173312701
 O    2.4052682176   -1.8590421263    0.6402814082
 H    1.0255855662    1.7270738795    0.5913916575
 H    0.1196404780    1.8649880964   -0.9244826643
 H   -0.7274521598    1.8653140981    0.6349646383
 H    0.0767130172   -0.7327147240   -2.0754074275
 H   -0.1020680031   -3.2082528378   -0.9054117127
 H   -1.8727071330   -1.6782723091    0.4680473376
 H   -0.1142519091   -0.6079451144    2.2382499817
 H    2.1185028562   -2.7552606304    2.5774429781
 H    2.1287760080   -3.9298545377    1.1599508690