16

 O   -0.1061908678    1.3751103794   -0.0496524990
 C    0.0545991964    0.0095889091   -0.0566475621
 C    0.8762891235   -0.7966742617   -1.0616576913
 C   -0.0589589815   -1.9985566185   -0.7248736304
 O    0.5298936276   -2.8070915538    0.3059307894
 C    0.5554687597   -2.0600978338    1.4614359675
 N    1.1161799432   -2.4021420004    2.5402135387
 C   -0.2232570142   -0.8178509265    1.2176803160
 C   -1.0444878669   -1.0168596987   -0.0357737889
 H    0.6357689936    1.7715101472    0.4213342308
 H    0.7030933106   -0.4274870761   -2.0760377200
 H    1.9462177051   -0.9497330849   -0.8894002166
 H   -0.3912152869   -2.6489064194   -1.5294160580
 H    1.5573390575   -3.3176672292    2.4378548130
 H   -0.6202999282   -0.2647027415    2.0571815788
 H   -2.1199691416   -0.9447418012   -0.1163839080