21

 C   -0.3307796473    1.5313014807   -0.0564189464
 C   -0.0404585275    0.0327946816   -0.0279969781
 C    1.2344102154   -0.4156727705   -0.8491576652
 C    1.8331541641    0.4269623825   -1.9657979075
 C    1.9545649203   -0.4995800737    0.4976609449
 O    3.1033285885   -0.3865330690    0.8422413999
 C    0.6453234235   -0.4999947044    1.2853640541
 C    0.6895532965    0.2720711368    2.6049363685
 O    1.6353589704   -0.3147919749    3.4789353066
 H    0.5481925116    2.1310142036    0.2021733104
 H   -0.6594809533    1.8436567098   -1.0526526049
 H   -1.1251865444    1.7896517811    0.6509945607
 H   -0.9433161730   -0.5193730650   -0.2981386743
 H    1.0723305377   -1.4432243658   -1.2006597705
 H    2.0049717009    1.4585063317   -1.6468736845
 H    2.7981031041    0.0123439884   -2.2720504762
 H    1.1793306862    0.4459168170   -2.8433315783
 H    0.3387750217   -1.5323586811    1.4895821728
 H    0.9212277706    1.3314866057    2.4180099338
 H   -0.2793541579    0.2363044245    3.1144037518
 H    2.4783939618   -0.3188754991    3.0055671723