13

 C    0.0021364340    1.4781792485    0.1807235668
 N    1.3137072964    1.9764896272   -0.2460554299
 C    2.3464496134    1.2039590310   -0.6802086025
 N    2.3858146655   -0.0822686703   -0.8024004092
 C    1.2040539010   -0.6899352878   -0.4309855687
 N    0.9522709880   -1.9755375728   -0.4489639650
 O   -0.3397669126   -2.0935283544    0.0030203009
 N   -0.8937726939   -0.8683370961    0.3039733311
 C    0.0411637471   -0.0097132016    0.0418476539
 H   -0.1990585088    1.7741282781    1.2187800452
 H   -0.7918718060    1.9134225531   -0.4403640281
 H    1.4604977506    2.9714217645   -0.2149855003
 H    3.2330818053    1.7756530306   -0.9491061142