18

 N    0.0367794823    1.2200046574   -0.3707899717
 C   -0.0265457839   -0.0230079488    0.2017426909
 O    0.9257290830   -0.5061604353    0.7907124272
 C   -1.3203026629   -0.7603019363    0.0395344106
 C   -1.6939914533   -1.6593724804    1.2050914190
 C   -1.2550008933   -2.2915318683   -0.0844920225
 C   -2.3511316133   -2.6466258192   -1.0278934013
 C   -3.0357573147   -1.5727870292   -1.4268057940
 C   -2.4552877331   -0.2856056343   -0.8749554000
 H    0.8570662903    1.7661975235   -0.1609297625
 H   -0.7926613006    1.7123600800   -0.6528863673
 H   -0.9821809343   -1.6625878601    2.0223672838
 H   -2.7423717820   -1.7280545985    1.4764521000
 H   -0.2918454031   -2.7867919485   -0.1120509937
 H   -2.5670703253   -3.6705186571   -1.3105955216
 H   -3.9119869184   -1.5837417931   -2.0646993230
 H   -3.2064745547    0.3112057797   -0.3407738446
 H   -2.0786876126    0.3423109486   -1.6947971194