18

 C    0.0370649531    1.4442098750   -0.1785245110
 C    0.0441953241   -0.0155483246    0.2683790849
 N   -1.3036546945   -0.5757681377    0.0942912827
 C   -1.6439015551   -1.2012035852   -1.1430980253
 C   -1.5105931186   -2.0490097606    0.1113476371
 C   -0.3693187179   -3.0186806391    0.1666198744
 O    0.6670874057   -2.8926689810   -0.4438515069
 C   -2.7614299035   -2.4455977544    0.8273023575
 O   -2.9704408029   -3.5489947682    1.2660759590
 H    1.0195397211    1.8936753655   -0.0075032045
 H   -0.1891156644    1.5275958607   -1.2464946527
 H   -0.7114143776    2.0188349988    0.3739098148
 H    0.8037732769   -0.5858171351   -0.2780563971
 H    0.2834021383   -0.0820888480    1.3351930384
 H   -2.6394651962   -1.0071400405   -1.5361103537
 H   -0.8599678790   -1.3746270214   -1.8795355128
 H   -0.5524549506   -3.8816206257    0.8337321158
 H   -3.4938335289   -1.6152590685    0.9245076095