15

 C   -0.0605756945    1.4393990885    0.0542757935
 N   -0.0177318506   -0.0081203650    0.0027162774
 C   -0.0440125050   -0.7800409789   -1.1130003396
 C    0.0171225817   -2.1169021229   -0.7621903420
 C    0.0842187758   -2.1593353526    0.6441982764
 O    0.1557238476   -3.2916969369    1.3741472526
 C    0.0624739994   -0.8444386120    1.1132667335
 C    0.1094490787   -0.3942625700    2.4402215382
 N    0.1501629103   -0.0649787317    3.5544364295
 H    0.8436881514    1.8404311444    0.5222151241
 H   -0.1311384562    1.8227341092   -0.9646226708
 H   -0.9295066507    1.7833851075    0.6233976723
 H   -0.1047779785   -0.3230168385   -2.0884823564
 H    0.0137298520   -2.9628029659   -1.4295324176
 H    0.1920288786   -3.0658919752    2.3115998491