18

 C   -0.2981161415    1.4272906211    0.1409017749
 C   -0.0242036453   -0.0415733848   -0.0689287370
 C    0.7752090629   -0.5980685180   -1.2013093862
 C    1.6477168385    0.3075863667   -2.0803312853
 C    2.9203112112    0.4960944335   -1.2260704106
 O    3.5434384066    1.7429044127   -1.3575292176
 C    2.3893980646    0.2947431896    0.2007314034
 O    2.8154019963    0.8826133367    1.1640815795
 N    1.3217959045   -0.6207447755    0.1771370693
 H    0.4558154181    2.0737370241   -0.3144287524
 H   -1.2725114995    1.6825124924   -0.2878130012
 H   -0.3262816861    1.6580276192    1.2101969926
 H   -0.8062776264   -0.6894844577    0.3228431971
 H    0.4938678492   -1.5690743129   -1.5983667705
 H    1.8569075197   -0.1615856345   -3.0425506855
 H    1.1905595727    1.2813658771   -2.2774882686
 H    3.6242626665   -0.3262023041   -1.4424973541
 H    3.7845429479    2.0063429945   -0.4558828579