16

 C   -0.1833042715    1.5161681608    0.0807449739
 N    0.0479779312    0.0853597310   -0.0717491275
 C    0.6648992472   -0.4815462751   -1.2514775976
 C    1.4758631341    0.4196749973   -2.1830348122
 N    2.5283039760    0.9312021456   -1.3239317783
 C    2.5856113612    0.3849571120   -0.0648146873
 O    3.4431562187    0.5939111384    0.7648646345
 C    1.3740979042   -0.5162491338    0.0695835588
 H    0.5962063820    2.1661911947   -0.3387506258
 H   -1.1365078485    1.7606706716   -0.3983006083
 H   -0.2745562950    1.7373012585    1.1477398931
 H    0.1696830530   -1.3445905994   -1.6857659475
 H    1.8791043387   -0.1694997569   -3.0167494450
 H    0.8689048477    1.2293946762   -2.6091101512
 H    3.2120878906    1.6099759255   -1.6192342739
 H    1.4569216705   -1.3770881163    0.7240127141