19

 C   -0.0074603539    1.4972939171    0.1644144339
 C    1.2681347215    0.7422890262   -0.0510013809
 O    1.7149774351    0.1520131963    1.1708618896
 C    0.5181642285   -0.6870107051    1.2116102254
 C    0.8633740244   -2.1696170286    1.0084685043
 C    0.0985546913   -2.8380435415   -0.1055036553
 C   -0.6425240433   -2.2154493535   -1.0203121428
 C   -0.8545768058   -0.7257376513   -1.0775389836
 C   -0.0482800223   -0.0028581752   -0.0361570804
 H   -0.2070969669    1.9404351303    1.1370697062
 H   -0.3622069008    2.0724239121   -0.6869079048
 H    2.0038240930    0.9418699422   -0.8226969123
 H   -0.0346462934   -0.5280579792    2.1451880308
 H    1.9405426515   -2.2340604102    0.8082344514
 H    0.7032149064   -2.7236163454    1.9415513562
 H    0.1853458583   -3.9215689325   -0.1472358179
 H   -1.1517924374   -2.8008472927   -1.7819685473
 H   -0.6078383432   -0.3489012824   -2.0801562259
 H   -1.9267222932   -0.5108760965   -0.9487687967