18

 C   -0.2221327105    1.5892308632   -0.0225199884
 C    0.0444511107    0.0903320072    0.0045152073
 C    1.1639533450   -0.5045946737   -0.9192454931
 C    1.7845262345   -1.2429061523    0.3039533451
 C    2.9061460187   -0.4946986756    1.0675206455
 O    2.6633055370    0.9099751833    0.9409780528
 C    1.9193847082    0.1851466958    1.9298390547
 C    0.7422865823   -0.5545004212    1.2446549344
 H    0.6989023291    2.1556830811    0.1306619772
 H   -0.6517226558    1.8891290642   -0.9851319495
 H   -0.9358382840    1.8754016883    0.7588335970
 H   -0.8947540193   -0.4450703252   -0.1738522693
 H    0.7949631696   -1.1679491095   -1.7047826160
 H    1.8224255577    0.2439656127   -1.3640097303
 H    1.8817954180   -2.3274948323    0.2684763937
 H    3.9323403881   -0.7952974129    1.2497161057
 H    1.9905960667    0.5508373466    2.9485633183
 H    0.1332704039   -1.1378578298    1.9369570049