16

 C    0.1438376256    1.3892003680    0.0597481477
 N    0.1221673265   -0.0595404111    0.0691593883
 N    0.1628896059   -0.7499818911   -1.1090237633
 C    0.0908592371   -1.9989295409   -0.6855270472
 O    0.1042219071   -3.0276949610   -1.5442994721
 N    0.0148207089   -2.1680812499    0.6582290573
 C    0.0294178722   -0.9153861542    1.1058954360
 C   -0.0431458725   -0.5186567612    2.5503573493
 O    1.0120882140    0.3468418394    2.9537100534
 H    0.8928731099    1.7238527897   -0.6603546911
 H   -0.8310018612    1.7896814472   -0.2357780895
 H    0.4104427130    1.7389123817    1.0567604564
 H    0.0430086210   -3.8295052368   -1.0116067330
 H   -0.9651686159    0.0361500187    2.7545779097
 H   -0.0729484081   -1.4430655434    3.1392352101
 H    1.8433345164   -0.1208586152    2.8173526279