23

 C    0.1330647879    1.5273703852   -0.0606225232
 C    0.0338906740    0.0062142024    0.0227122033
 C   -1.4260875497   -0.4380055884   -0.1323826052
 C    0.9660228918   -0.8239911330   -0.9245481170
 C    1.4437498803   -1.7082112147    0.2618101061
 C    2.8028454875   -1.2764864763    0.8569025975
 C    2.0881920917   -0.1887556588    1.7145839492
 C    0.6962749710   -0.7090169912    1.2385615104
 O   -0.2173381694   -1.0531153548    2.2409059592
 H    1.1692320220    1.8780785794   -0.0384312754
 H   -0.3124245908    1.8904555852   -0.9940198476
 H   -0.4031753145    2.0040805275    0.7679252827
 H   -1.8092786894   -0.1164839550   -1.1074861296
 H   -1.5266394228   -1.5250873145   -0.0679170971
 H   -2.0569057865   -0.0039679761    0.6483219630
 H    0.4353199636   -1.3552700738   -1.7184511925
 H    1.7711495530   -0.2413144000   -1.3836163605
 H    1.2180664652   -2.7734253490    0.1984290872
 H    3.2732218242   -2.0511785675    1.4687430088
 H    3.5437203181   -0.9169627135    0.1372160116
 H    2.2262495481   -0.3125949530    2.7938346236
 H    2.3230862220    0.8503175783    1.4734543608
 H    0.2600013327   -1.4822564284    2.9581883047