20

 O   -0.0576178608    1.3145969631   -0.4507927744
 C   -0.0394695721    0.0547156222    0.2112732248
 C   -1.4176037174   -0.5423433865    0.1370419351
 C   -1.8564150307   -1.2752656876   -1.1137874661
 C   -1.6044257577   -2.0299873152    0.1568381218
 C   -0.5675461270   -3.1691909015    0.3623684370
 C   -1.6515143800   -3.9242437572    1.1471488219
 N   -2.0309645245   -3.0536059433    2.2878441343
 C   -2.6289722543   -2.8204420069    0.9439009753
 H    0.7958639706    1.7351854801   -0.3097313756
 H    0.6853493384   -0.6295525498   -0.2595917737
 H    0.2576283093    0.1679002834    1.2658318880
 H   -2.1786609266    0.0439329293    0.6454841926
 H   -2.8811355908   -1.1517163507   -1.4499864594
 H   -1.1334938785   -1.3760336429   -1.9181583188
 H   -0.2947902718   -3.6597624579   -0.5755631839
 H    0.3337107167   -2.9303617631    0.9333966818
 H   -1.8097838962   -4.9945946601    1.1881833522
 H   -2.7250898841   -3.5696567269    2.8299533198
 H   -3.7025222824   -2.8479515984    0.7979201574