16

 C   -0.1161808233    1.5756018891    0.0596794733
 C   -0.0003241324    0.0746486767   -0.0218529295
 O   -1.1100087465   -0.6405367835    0.4295456539
 C    0.6699044946   -0.5978321583   -1.1903627184
 C    1.2348558392    0.1461788801   -2.2739310159
 C    1.7112442115    0.7642162222   -3.1881032463
 C    1.3469056159   -0.6177714708    0.2033573358
 C    2.5418736888    0.1316270123    0.4485874893
 N    3.4991204336    0.7447957302    0.6654617806
 H    0.7645867008    2.0691896051   -0.3536195188
 H   -0.9975245838    1.9057932435   -0.4974115994
 H   -0.2243185899    1.8933506398    1.1030576938
 H   -1.2884171946   -0.3767788050    1.3399642876
 H    0.2298176860   -1.5549660032   -1.4537665372
 H    2.1379792474    1.3101809739   -3.9929910063
 H    1.2905401727   -1.5730452921    0.7132602174