18

 O   -0.4091079199    0.3868920357   -0.6063044720
 C    0.0668816744    1.0756660776    0.2602668928
 C    1.3360185344    1.8680574995    0.0694643157
 C    2.6239314967    1.1779139923   -0.4633297653
 N    3.0026024494    2.4896877627   -1.1081429174
 C    1.5213689805    2.7809296741   -1.1676717426
 C    3.5635811938    3.3613069267   -0.0544533104
 C    2.9217263529    3.1090214838    1.3389393696
 O    1.5821775357    2.6108071078    1.2508883062
 H   -0.3945763199    1.1745424104    1.2668432793
 H    3.3345878842    0.7678792327    0.2574290197
 H    2.3936236875    0.4339400136   -1.2280404180
 H    1.0876997695    2.3642445429   -2.0794764193
 H    1.2405344101    3.8296654341   -1.0435557184
 H    4.6434582113    3.1894987618    0.0152077597
 H    3.4188258223    4.3971943497   -0.3768428622
 H    3.5293726685    2.3892749765    1.9034394618
 H    2.8768706885    4.0282141582    1.9296450408