15

 O    0.0990930950    0.4709772539    1.2885984632
 C    0.0266933460    1.3311382370    0.4376594448
 C   -1.2995129222    1.7294780881   -0.0710962296
 C   -1.6596161270    2.4961090450   -1.1057994649
 C   -0.8605595046    3.2207780776   -2.1365627490
 C    0.6311401619    3.2489361350   -2.1228836364
 C    1.5272043747    2.7525302909   -1.2634413008
 C    1.3650383828    1.9807197906   -0.0166880729
 O    2.3289640650    1.7989814110    0.6953226515
 H   -2.0889213132    1.2718308532    0.5196585515
 H   -2.7311811539    2.6094454225   -1.2645137243
 H   -1.1799101409    2.8459989153   -3.1239602855
 H   -1.2092843597    4.2673870308   -2.1566821754
 H    1.0376217465    3.8042305068   -2.9671083669
 H    2.5787321196    2.9465283024   -1.4590374353