20

 C   -0.1480721984    1.5652923420   -0.0181956870
 C   -0.0298565334    0.0456388407   -0.0169627442
 C    1.0973794506   -0.5965533706   -0.8874849305
 C    2.0917247190   -0.2617740711    0.2759166283
 C    0.8107252457   -0.5947824534    1.1349387164
 O    0.6623450115   -0.2688108649    2.4798937105
 C    0.7083421722   -2.1051859115    0.8421594557
 N   -0.3985188566   -2.5103946101   -0.0571986332
 C    0.9143644686   -2.1101335904   -0.6212572046
 H    0.8065258883    2.0931396073    0.0661511389
 H   -0.6265054033    1.9077775905   -0.9418095405
 H   -0.7851305407    1.8941724408    0.8118273338
 H   -1.0170533621   -0.3943117181   -0.1525485275
 H    1.2792701967   -0.2710605738   -1.9110055082
 H    2.9619708592   -0.9131052758    0.3994092789
 H    2.4013334806    0.7838402676    0.3174103153
 H    0.7553357786    0.6850529410    2.5713375508
 H    1.1472334622   -2.8144039060    1.5342225353
 H   -0.4464922901   -3.5276052904   -0.0591932309
 H    1.5253648315   -2.8404225739   -1.1394974574