17

 C   -0.2352283175    1.5879134609    0.0534136194
 C    0.0333443006    0.0821658832   -0.0097915991
 C    0.7036677130   -0.4081220330   -1.2754898679
 C    1.7623638937   -1.1763396119   -0.9819906537
 C    2.6102815597   -1.8426795461   -1.9056482397
 N    3.3161050636   -2.4026383433   -2.6337269297
 C    1.9620733307   -1.2260003074    0.5045094933
 C    2.2719967851    0.0939251076    1.1223307537
 N    0.8907599873   -0.4073659314    1.1019007930
 H    0.6811086040    2.1700342849   -0.0766236980
 H   -0.9374344876    1.8814356838   -0.7323988731
 H   -0.6751998773    1.8456646697    1.0202502814
 H   -0.9353680145   -0.4291098612    0.0951042159
 H    0.3654597819   -0.1591605095   -2.2740740535
 H    2.2322097555   -2.1635202585    0.9804880702
 H    2.7073246500    0.1423584093    2.1160808628
 H    2.5668237218    0.8936910927    0.4481314349