14

 C   -0.1655179091   -1.2975021427   -0.1272050820
 C   -0.0970471182   -0.0998361439   -0.0634254262
 C   -0.0094840678    1.3537759720    0.0522843781
 C   -0.1936112995    1.9163591056    1.5049103044
 C    1.2724355072    2.3605360894    1.3756117439
 O    1.3730545798    1.8198123721    0.0389773131
 C   -0.8173145278    2.0108528636   -0.9722546464
 C   -1.4869554720    2.5754415038   -1.7944342457
 H   -0.2247646872   -2.3556865567   -0.1986840054
 H   -0.9308702227    2.7147818772    1.5752033771
 H   -0.3969404912    1.1483327742    2.2497295630
 H    1.4440321372    3.4424011838    1.3868364544
 H    1.9776491567    1.8769288953    2.0603140934
 H   -2.0732824353    3.0655612764   -2.5322530920