21

 C   -0.0233879302    1.4174544019    0.0852084321
 C    0.0360681190   -0.1050715913   -0.0676046596
 C    0.7673901331   -0.5157479121   -1.3341089414
 O    0.7700441642   -1.9600110291   -1.3948254141
 C    1.3742684594   -2.5060615823   -2.4520590301
 O    1.9087129794   -1.8793177409   -3.3391344128
 C    1.3285196862   -4.0307305745   -2.4365020016
 C   -0.1145269474   -4.5502688664   -2.4779898596
 O    2.0712384105   -4.5234377581   -3.5237607904
 H    0.9800649187    1.8535405557    0.1366246075
 H   -0.5450027173    1.8833613051   -0.7577402799
 H   -0.5539628885    1.6961680082    0.9996126556
 H    0.5409993365   -0.5536749121    0.7954049505
 H   -0.9764980393   -0.5236432495   -0.0916309755
 H    0.2790323957   -0.1256179075   -2.2331710505
 H    1.8035204260   -0.1616021366   -1.3421547330
 H    1.7921326988   -4.3556054158   -1.4918621397
 H   -0.6192321111   -4.1991932346   -3.3831956177
 H   -0.0991495595   -5.6426250229   -2.4980097735
 H   -0.6770727743   -4.2172646201   -1.6022139493
 H    2.3644367001   -3.7425365972   -4.0170292671