20

 C    0.0613756608    1.4388326194   -0.2469836853
 C   -0.0082602892   -0.0275157917    0.1780962956
 O    0.6287785381   -0.2504623726    1.4354357761
 C   -1.4295690339   -0.5579503020    0.1852942897
 C   -2.4493935428   -0.0585057866    1.2012861244
 O   -3.5339923785   -0.9808872593    1.1395107499
 C   -3.0002879476   -2.2631169700    0.8108212627
 C   -1.7978766058   -1.9744364262   -0.0661062990
 N   -1.9842063443   -0.9606990439   -1.1159966060
 H    1.1014909233    1.7735260030   -0.2893591298
 H   -0.3920986067    1.5723333480   -1.2331141321
 H   -0.4764681201    2.0832467073    0.4607697856
 H    0.5531558093   -0.6290876419   -0.5447536176
 H    0.4183696873    0.4899779830    2.0132033147
 H   -1.9934731251   -0.0417563325    2.2041273890
 H   -2.8576194080    0.9347615584    0.9847343288
 H   -2.6840138564   -2.8143035133    1.7109202347
 H   -3.7972063603   -2.8303626412    0.3180819977
 H   -1.0705164640   -2.7548750319   -0.2640386033
 H   -2.9690197264   -0.7025028057   -1.1713703360