16

 O    0.0308261562    0.0054444286    0.1649471338
 C   -0.0166847563    1.1953634580   -0.0164122534
 C   -1.2902007551    2.0029655996   -0.3346465448
 N   -0.8652924100    3.3382139801   -0.7893413327
 C    0.5603739850    3.4582728548   -0.5452277414
 C    1.0193353716    3.3865729213    0.8859711105
 C    0.1303844815    3.4505401884    2.0080056694
 C   -0.5952522828    3.5268545139    2.9640076102
 C    1.1362690051    2.1481705259   -0.0390574887
 H   -1.8806565847    1.4803162805   -1.0916755211
 H   -1.8959943562    2.0642811477    0.5765510014
 H   -1.0290349784    3.4298988934   -1.7840514852
 H    1.0999043099    4.1077258739   -1.2240963360
 H    1.9891034059    3.8442441943    1.0618011386
 H   -1.2402703282    3.5954061663    3.8047667603
 H    2.1253295366    1.7628277132   -0.2490378309