20

 C    0.0698460810    1.5728647131    0.0695025863
 C    0.0222558780    0.0433261427    0.0509051892
 O    0.7883472344   -0.5168717863    1.1110922979
 C   -1.4129665039   -0.4989238140    0.0650147826
 C   -1.6212771693   -2.0501951000    0.0176092210
 C   -2.6166327164   -1.9548887319    1.2169348659
 C   -2.1460774179   -0.5287894531    1.3980174195
 N   -2.1316245755    0.3134500185    2.3461489924
 O   -2.8426403143   -0.1669153271    3.4638291482
 H    1.1087765910    1.9136746863    0.0772649974
 H   -0.4278650581    1.9941592008   -0.8105540924
 H   -0.4340009461    1.9599550594    0.9611293074
 H    0.5070591407   -0.3222671675   -0.8634169849
 H    0.3951058671   -0.1997908095    1.9337865276
 H   -2.0077162452    0.0077085819   -0.7046840523
 H   -2.0148563042   -2.4592100609   -0.9139578850
 H   -0.7025284214   -2.5718999696    0.2911985370
 H   -3.6689603526   -2.0179826877    0.9215821461
 H   -2.4571935394   -2.6199522658    2.0687857189
 H   -2.7571255379    0.5616632909    4.0880542472