19

 C   -0.4424961824    1.3612216156   -0.0693361203
 C    0.0319391288   -0.0787212405    0.0364492565
 N    1.2674043453   -0.4077122378   -0.7046412451
 C    1.4357103853   -0.6477245104   -2.1122463481
 C    1.9309974917   -0.9722559767    0.3812819685
 N    3.0079254800   -1.6038156044    0.5865979324
 C    0.8080888417   -0.5307421413    1.2945412579
 C    0.8408471065   -0.0126594672    2.6607863332
 O    0.2673539544   -1.2909330336    2.3464797945
 H    0.3634369160    2.0556824244    0.1854282415
 H   -0.7872200225    1.5903567053   -1.0832879014
 H   -1.2838554687    1.5349535262    0.6095223897
 H   -0.7871815071   -0.7782942201   -0.1858910342
 H    1.1582052207    0.2381446575   -2.6928810495
 H    2.4892083822   -0.8622641618   -2.3147603602
 H    0.8365098176   -1.4988739711   -2.4698832744
 H    3.5264905019   -1.7738288541   -0.2767704460
 H    1.7764905991   -0.0476717880    3.2151170010
 H    0.1308733896    0.7546708884    2.9658419540