17

 O   -0.2505854066    0.0754793876   -0.0139428257
 C   -0.0685904181    1.2640491270   -0.0890521224
 C    1.2971185705    1.9206255535   -0.0878590019
 C    1.4837266764    2.8278783611   -1.2993407943
 O    0.5188641710    3.9015945791   -1.3407246278
 C    1.5403980529    4.9132990156   -1.2860344521
 C    2.6730421234    3.8475206343   -1.2849559897
 C    3.5835623333    3.8406854174   -0.1611660505
 C    4.3313101740    3.8440672740    0.7806455151
 H   -0.9187197203    1.9753902387   -0.1630269449
 H    1.3871158217    2.5275285752    0.8223787238
 H    2.0670316500    1.1440412841   -0.0650039636
 H    1.4446261924    2.2371720778   -2.2233668033
 H    1.5195555680    5.5693305855   -2.1631005731
 H    1.4789192371    5.5174660620   -0.3747905970
 H    3.2329909699    3.8287928753   -2.2232601480
 H    4.9984547444    3.8452630518    1.6071489054