22

 C   -0.0437206798    1.5476945541   -0.2410779114
 C    0.0357532921    0.0437303871    0.0205805716
 O    0.8094201791   -0.2370943305    1.1867863363
 C   -1.3507448445   -0.6185199093    0.0664886521
 C   -1.3366328750   -2.1576255006    0.2035051380
 C   -2.7089751735   -2.4738121396    0.8339389897
 C   -3.0440379336   -1.2121737345    1.6195041062
 C   -1.9783617086   -0.6536205802    2.4851962570
 N   -2.2218285032   -0.0835547445    1.1408541334
 H    0.9600027262    1.9811286273   -0.2567941123
 H   -0.5275562681    1.7552795486   -1.2007787170
 H   -0.6347772463    2.0401791851    0.5382000408
 H    0.5914020144   -0.4328919986   -0.7972497345
 H    0.4750288367    0.3268557807    1.8919937360
 H   -1.8600528694   -0.3524864235   -0.8700785532
 H   -1.1943538780   -2.6524739414   -0.7605080224
 H   -0.5134442771   -2.4694359829    0.8514619508
 H   -3.4667040452   -2.6285729346    0.0574246902
 H   -2.6961267768   -3.3720237614    1.4589779431
 H   -4.0863997245   -0.9938195387    1.8341974434
 H   -2.2414759122    0.0153046603    3.2998923826
 H   -1.0890156226   -1.2508610627    2.6586129495