22

 C    0.0287373930    1.5982126524   -0.0876815578
 C   -0.0151992321    0.0980228681    0.0776075966
 N    1.2585585215   -0.6337841902   -0.0931186766
 C    0.6045611224   -0.6117588574    1.2257440041
 C    1.3235342155    0.0923725110    2.3762188657
 C    1.4221570824   -1.0257314200    3.4205129606
 O    0.2450872145   -1.8007588716    3.2325864133
 C    0.0314830280   -1.9140948137    1.8304430333
 C   -1.4422079025   -2.2006602660    1.5922911986
 H    0.9488344363    2.0121267856    0.3315866009
 H   -0.0092171257    1.8706396097   -1.1478167402
 H   -0.8241602419    2.0711515702    0.4118438848
 H   -0.9021188848   -0.3695081679   -0.3472113871
 H    1.0892211536   -1.5291019088   -0.5491354187
 H    2.2933468509    0.4856462087    2.0662285415
 H    0.7176069255    0.9181015630    2.7637147619
 H    2.3221922126   -1.6395018236    3.2513800517
 H    1.4315859078   -0.6767166409    4.4558412133
 H    0.6335083279   -2.7572554970    1.4414329779
 H   -2.0580731790   -1.3601352012    1.9239982677
 H   -1.6413434274   -2.3869948562    0.5323025195
 H   -1.7400576884   -3.0916612442    2.1520584790