25

 C    0.3093196500    0.9675244692   -0.3560745638
 C    0.0170158208   -0.4988196638   -0.0176480343
 C   -1.4744511870   -0.8094919512    0.1784488089
 C   -1.8160995509   -2.2964821914    0.1661543624
 C   -1.6031598158   -3.1244026238    1.4115825509
 C   -2.9630636335   -2.5403811813    1.1153614627
 C   -3.3375531179   -1.2103377629    1.7547009772
 C   -2.1656298846   -0.2242478773    1.4611114934
 C   -1.2639948672    0.0052201773    2.6855938053
 H    1.3808158834    1.1343642965   -0.5057592769
 H   -0.2042711178    1.2654624737   -1.2773726353
 H   -0.0232346172    1.6461549755    0.4359688638
 H    0.3907224943   -1.1280994181   -0.8355469630
 H    0.5836014825   -0.8012701294    0.8707356604
 H   -2.0029025334   -0.3768245392   -0.6845124855
 H   -1.7618632220   -2.8076974324   -0.7901526459
 H   -1.4907060437   -4.1941489846    1.2677006729
 H   -1.0152308736   -2.7360901923    2.2341139224
 H   -3.7647586444   -3.2257789685    0.8613271288
 H   -4.2611748541   -0.8456948867    1.2898202467
 H   -3.5376037819   -1.2905076589    2.8297594946
 H   -2.5851283300    0.7553815889    1.2086095092
 H   -0.7858283400   -0.9078148419    3.0500155220
 H   -0.4711046831    0.7297943557    2.4784766276
 H   -1.8624792329    0.4062648969    3.5107356054