18

 O   -0.1135283832   -0.0914938092    0.2325940413
 C    0.0492759571    0.9803323882   -0.2888233593
 C    1.1473125785    1.9580443055    0.1024933799
 N    1.3556303921    2.9184557659   -0.9631020901
 C    2.4399669503    3.8858068713   -0.9193519456
 C    3.6364814827    3.6537830582    0.0079041941
 C    4.2516293056    2.3717652026   -0.5112234814
 C    3.6193810027    1.9212935040   -1.5990062497
 C    2.4528557380    2.7848714789   -1.9467468057
 H   -0.6136753645    1.3519949183   -1.1017427168
 H    0.7870651880    2.5029660650    0.9874152863
 H    2.0310270840    1.3843957117    0.4146159507
 H    2.1543301159    4.9066378229   -1.1565813526
 H    4.3388685418    4.4942228920   -0.0537407486
 H    3.3446404204    3.5760852060    1.0638287274
 H    5.0865963132    1.8846064827   -0.0197638619
 H    3.8757329720    1.0262642810   -2.1532945052
 H    2.1508998554    2.9166289451   -2.9811486527