20

 C   -0.2242515171    1.5488761807    0.0633092537
 C   -0.2904097149    0.0289331383   -0.0813564637
 O    0.9980821176   -0.5614618128    0.1030468879
 C   -1.3338994811   -0.5999196024    0.8540903804
 C   -1.4477200140   -2.0980861203    0.6745884012
 C   -2.6774611421   -2.8407452157    1.1610284992
 C   -2.4199649128   -2.6706879782   -0.3164216558
 O   -3.1870378365   -1.7561367265   -1.0496187750
 H    0.5443418636    1.9606067721   -0.5964797129
 H   -1.1838563966    2.0127004283   -0.1865774918
 H    0.0232331087    1.8310741189    1.0950147963
 H   -0.5580963475   -0.2238505130   -1.1136661601
 H    1.3018457745   -0.3183508844    0.9850620199
 H   -1.0615238789   -0.3684943283    1.8950443870
 H   -2.3055124788   -0.1321737726    0.6676828791
 H   -0.5004328764   -2.6217139505    0.7524396508
 H   -2.5652806972   -3.8231319261    1.6075510795
 H   -3.4759549978   -2.2379566859    1.5831063802
 H   -2.1053019325   -3.5486501966   -0.8802380647
 H   -4.0721632303   -2.1216174052   -1.1467386113