21

 C    0.1996668993    1.6311086841    0.3212722298
 C   -0.0495590697    0.1393504143    0.0598237033
 C    0.6553858127   -0.4472741813   -1.1789985470
 C    2.2370665288   -0.4694521745   -1.1877854572
 C    2.1885538781   -1.9850477308   -1.4044154107
 C    1.4653093999   -2.6527377642   -0.2716712933
 C    0.6594946379   -1.9753210056   -1.3434870060
 C    0.1786518562    0.2381550185   -2.4404429474
 O   -0.3823814799   -0.3072030164   -3.3576255540
 H    1.2705958476    1.8544720215    0.3743229101
 H   -0.2348125443    2.2696853231   -0.4532699565
 H   -0.2465028564    1.9285294105    1.2750409748
 H    0.2812712665   -0.4317101864    0.9341604546
 H   -1.1275823877   -0.0464030295   -0.0313058537
 H    2.6645199905    0.0843344826   -2.0288403364
 H    2.7241966531   -0.1283173956   -0.2677150098
 H    2.8320191818   -2.5325905163   -2.0813399523
 H    1.4435597322   -3.7373281918   -0.3083650732
 H    1.5277663474   -2.2505965513    0.7368665943
 H   -0.0456902164   -2.5071544375   -1.9677114513
 H    0.4017736325    1.3285360466   -2.4838542581