19

 C    0.2382249850    1.0423628502    0.1387782209
 O   -0.0606215302   -0.1276365828   -0.6078540837
 C   -1.3130536453   -0.6567217790   -0.2883030465
 C   -1.7137799557   -2.0081141219   -0.8031176174
 O   -0.7619296857   -2.8522656009   -1.3832404466
 C    0.2988459851   -3.0725987954   -0.4601674868
 C   -0.1785952723   -2.6257426491    0.9513027595
 O    0.8322142100   -1.9504391389    1.6790137475
 C   -1.4509022239   -1.8255916212    0.6761045370
 H    1.2126764185    1.3997289017   -0.2020942338
 H   -0.5101059786    1.8278884175   -0.0373009580
 H    0.2791296840    0.8350032461    1.2176585554
 H   -2.1088908604    0.0889861017   -0.2483607360
 H   -2.6977779758   -2.1473438041   -1.2373869901
 H    0.5696879561   -4.1321159491   -0.5026985872
 H    1.1763439836   -2.4771455662   -0.7408912394
 H   -0.4359344893   -3.4925636167    1.5667523901
 H    1.1538095950   -1.2468676830    1.1044463696
 H   -2.2320160902   -1.8229688788    1.4273319653