21

 O   -0.0385751713    1.3381891984    0.1788268046
 C    0.0219269159   -0.0481137428   -0.0333951088
 C   -0.5543361201   -0.6004972921   -1.3117862629
 C   -1.2930613965   -0.7684629538    0.0127531479
 C   -1.3266615574   -2.0849199541    0.7940017407
 C    0.0226877645   -2.3860840616    1.4711992259
 C    0.6061983419   -1.0999860739    2.1341928206
 C    1.1499790400   -0.7473548707    0.7161636682
 C    1.1877954782   -2.2768269374    0.4495872804
 H    0.7047372939    1.7382621049   -0.2867128361
 H   -0.9764659715    0.1281323682   -1.9955536043
 H   -0.1090210354   -1.4637487239   -1.7932632976
 H   -2.1679995615   -0.1354362087    0.1148192264
 H   -2.0996162178   -2.0117123471    1.5683592946
 H   -1.6157059641   -2.9233175539    0.1466679317
 H   -0.0396928090   -3.2925891844    2.0782263117
 H   -0.0858224761   -0.3895023844    2.5934838185
 H    1.4086225375   -1.3418981387    2.8361279063
 H    2.0857298171   -0.1868999301    0.6285542170
 H    2.1083683013   -2.7104415694    0.8504235651
 H    1.0403745605   -2.6534797546   -0.5653485199