17

 C   -0.1609778476    1.3172071290   -0.0164393599
 N    0.0917617742   -0.1192864343    0.1095384305
 C    1.5230006038   -0.4666873510   -0.1484811866
 C    0.9391004531   -0.4782967386    1.2463105750
 C    0.9833459278   -1.9972166158    1.2853832476
 C    1.3783243873   -2.8682819506    2.4208421820
 N    0.0368992730   -2.9589442446    1.8277719286
 C    1.5955047490   -1.9875835519   -0.1235835897
 O    2.0878176342   -2.8198926764   -0.8251064480
 H    0.6684393756    1.9524413577    0.3355063872
 H   -0.3553131768    1.5521244365   -1.0665140936
 H   -1.0562199094    1.5635842177    0.5623842524
 H    2.1864880552    0.2498400960   -0.6152424228
 H    1.1472841610    0.2188988509    2.0490814595
 H    2.0200793449   -3.7236826640    2.2307833540
 H    1.5024916485   -2.4006429667    3.3949181746
 H   -0.6517217937   -2.4806872538    2.4046305892