19

 O    0.0577474833    1.3844971379    0.0986978492
 C    0.0375580225   -0.0318716057    0.0155246480
 C   -1.4231499245   -0.4786638209    0.0267801122
 C   -1.5905090938   -2.0159331929   -0.0986927371
 C   -2.7435068472   -2.4149230489    0.8669837068
 C   -2.4151058512   -3.6672159894    1.6579191480
 O   -3.1237995262   -4.6338673752    1.7591290407
 C   -2.8578463787   -1.1954376305    1.7656637237
 C   -2.1502475521   -0.1636212625    1.3116397668
 H    0.9738779924    1.6745691998    0.1309361570
 H    0.5237534373   -0.3864638632   -0.9077922864
 H    0.5649614268   -0.4921916838    0.8669450007
 H   -1.9164988342    0.0402032152   -0.8074221421
 H   -1.7825044791   -2.3443771489   -1.1220555529
 H   -0.6622442665   -2.5062052112    0.2253016953
 H   -3.6856281251   -2.6081841200    0.3400285280
 H   -1.4243506672   -3.6195938882    2.1716166895
 H   -3.4870130345   -1.1920668836    2.6488608817
 H   -2.1068693919    0.8199745121    1.7639473010