14

 O   -0.1515624090    1.3418469625   -0.1649495680
 C   -0.0069575791   -0.0487367586   -0.1117786263
 C    0.8313382944   -0.5531133839   -1.2292847268
 N    1.4861462941   -0.9523974376   -2.0930908280
 C    0.6017904917   -0.5219030835    1.2136361533
 O    1.4117025242    0.4454918426    1.8679410744
 C    0.1855533047    0.0260136644    2.5208158927
 C   -0.8645722040    0.9864364543    2.7077566495
 C   -1.7585713763    1.7524062181    2.9473561570
 H    0.5910744040    1.7148504323    0.3328301430
 H   -1.0040988432   -0.4922109070   -0.2249705761
 H    1.0090183997   -1.5324363293    1.1934981961
 H    0.3729397900   -0.6098548610    3.3854549928
 H   -2.5477258212    2.4399218467    3.1314301164