18

 C    0.4225072202    1.5166475638    0.5120499572
 C    1.5901500540    1.9399815773   -0.3379160010
 C    2.0418764683    0.9293094374   -1.0714823596
 C    1.2437109317   -0.3194973585   -0.8080789371
 C    1.9479485162   -1.4202433793   -0.0161606375
 O    2.3220730077   -1.0015379583    1.2998245193
 C    1.1100705337   -1.7494521815    1.1404393725
 C   -0.1245939106   -0.8648219535    1.0985889147
 N    0.1452706252    0.1423262874    0.0717147330
 H    0.6776950944    1.5688827734    1.5831031549
 H   -0.4512368304    2.1701226840    0.3642043191
 H    1.9856213006    2.9482989644   -0.3226920563
 H    2.8729694048    0.9545086182   -1.7651648354
 H    0.8601967742   -0.7682761907   -1.7399201760
 H    2.6088876857   -2.1335829273   -0.5027284376
 H    1.0876645030   -2.7320721976    1.6059524129
 H   -1.0017478939   -1.4794443115    0.8457799318
 H   -0.3281305946   -0.3899228777    2.0645491950