19

 C   -0.1222188209    1.3322486692   -0.0391167687
 O    0.1816812298   -0.0435237728    0.0587986732
 C    0.7076602421   -0.5933039252   -1.1145289913
 C    0.9441195064   -2.1072176764   -0.9692463807
 C   -0.5132495227   -2.5806119067   -0.8038771949
 O   -1.2476540585   -1.7139570679   -1.7000667364
 C   -0.2820119293   -0.8615839734   -2.2734919498
 O    0.5247832494   -1.5582711343   -3.2066807691
 C    1.3640892250   -2.4309887257   -2.4113194190
 H    0.7593090199    1.9196407650   -0.3387662790
 H   -0.9315982641    1.5276349527   -0.7562127221
 H   -0.4449657936    1.6604016960    0.9514024473
 H    1.5929626993   -0.0408885092   -1.4605633649
 H    1.6344318331   -2.4285834898   -0.1907253674
 H   -0.6521492263   -3.6237281658   -1.1095306354
 H   -0.8838887905   -2.4458958209    0.2164958294
 H   -0.7824547743   -0.0398860585   -2.7822639396
 H    2.4185072114   -2.2029943906   -2.6098015294
 H    1.1719436535   -3.4746863857   -2.6856433923