22

 C    0.2038417355    1.5765334477   -0.1256104488
 C    0.0153558623    0.0610463652    0.0161650862
 C    0.4840539241   -0.6969747520   -1.2354570233
 N    0.6940618636   -0.4263387287    1.2113788606
 C    0.3370601927   -1.4902849269    2.1577504770
 C    1.7354121586   -1.2910301315    2.8170316664
 C    2.6968809710   -2.4712719491    2.8388797517
 C    1.9688838439   -0.2501950672    1.6943368818
 O    2.8920144664    0.4375096035    1.3312879412
 H    1.2645749379    1.8206503538   -0.2171536835
 H   -0.3217268204    1.9394005228   -1.0139952647
 H   -0.1918958925    2.1003440746    0.7491079382
 H   -1.0507359570   -0.1469809241    0.1730217862
 H    1.5465610567   -0.5080836231   -1.4159986985
 H    0.3409879632   -1.7758751700   -1.1198130997
 H   -0.0787791139   -0.3726271020   -2.1165470127
 H   -0.5322536664   -1.2572051047    2.7824187566
 H    0.1966489230   -2.4736717167    1.6926063274
 H    1.6716470578   -0.8183411172    3.8015483092
 H    2.7410031381   -2.9635487528    1.8614699829
 H    3.7068304974   -2.1308906605    3.0855657646
 H    2.3967266882   -3.2170245511    3.5818626813