18

 C    0.0376418084    1.5101740058   -0.0829778886
 N    0.0367320207    0.0651732421    0.0977157313
 C   -0.8988671981   -0.5447631718    1.0198049200
 C    0.0477132376   -1.6183137163    1.4097335812
 C    1.1222085838   -0.5939102728    0.8817100809
 C    1.1337029890    0.0518536900    2.2993456330
 C   -0.2632217848   -0.5549417949    2.4703639909
 C   -1.0464801525   -0.6732971655    3.6453642525
 C   -1.7177464062   -0.7628350972    4.6420464138
 H    0.9130131190    1.7952534355   -0.6756994188
 H   -0.8556128790    1.7925937072   -0.6498285363
 H    0.0424871392    2.0937817034    0.8501951340
 H   -1.9727217998   -0.5630850073    0.8813707353
 H   -0.0230786439   -2.6954642438    1.4284830096
 H    2.0462711851   -0.8165469751    0.3513673960
 H    1.8521256816   -0.4584461071    2.9452151462
 H    1.2647778365    1.1345191166    2.3859254581
 H   -2.3051965065   -0.8440867689    5.5223273310