18

 C   -0.0593027784    1.4763405725   -0.1651794370
 C    0.0068994403   -0.0403578399    0.0501057471
 C    0.8459415657   -0.4221157328    1.2773825235
 C   -1.4019912470   -0.6183503201    0.1878014548
 O   -2.2542948392   -0.3909744238   -0.9673835280
 C   -2.4792754707   -1.7929927046   -1.2118647255
 C   -1.5691319905   -2.1301690259   -0.0250394138
 O   -1.1460715402   -3.1226728402    0.4850082972
 H    0.9420668264    1.8863291894   -0.3307778019
 H   -0.6805427452    1.7202407562   -1.0307449680
 H   -0.4854476418    1.9769284804    0.7123034380
 H    0.4606609028   -0.4955049469   -0.8408938347
 H    0.8678246187   -1.5054882659    1.4258266216
 H    1.8753837035   -0.0695531043    1.1622440459
 H    0.4386213289    0.0351380054    2.1867904581
 H   -1.8787887961   -0.2500064674    1.1091601762
 H   -3.5292017594   -2.0888188325   -1.0888427435
 H   -2.1219490379   -2.1234298599   -2.1953009697