16

 C   -0.1954113403    1.5334749263   -0.0124944763
 C   -0.0458526801    0.0182285123   -0.0301936517
 N   -1.3208634775   -0.6045142023   -0.2948744050
 C    1.2423573169   -0.4627903524   -0.7700687035
 O    1.9097988692   -0.7334857497    0.4825653311
 C    0.6890566390   -0.5764953134    1.2229257799
 C    0.8368890678    0.2559705768    2.4148706674
 N    0.9328668037    0.9263241443    3.3514537391
 H    0.7423358375    2.0185027204    0.2682572382
 H   -0.4776507385    1.8923530585   -1.0088903631
 H   -0.9692005182    1.8353883960    0.6980194574
 H   -1.8027653948   -0.1427806618   -1.0588269995
 H   -1.2183349740   -1.5831337628   -0.5442049992
 H    1.0979391495   -1.3792856762   -1.3588310864
 H    1.7854367137    0.2755278092   -1.3693157217
 H    0.2624153561   -1.5444061653    1.5206685134