12

 C    0.0570388855    1.4905619364    0.0443677550
 C   -0.0922720416    0.0128915616   -0.0346766499
 C   -1.1243861174   -0.8345870578    0.2209715958
 C   -0.5698201183   -2.1121161680   -0.0646352915
 O   -1.2216067868   -3.2803052462    0.0428098017
 N    0.6793249359   -2.0492351823   -0.4566521347
 O    0.9876160269   -0.6821679408   -0.4376915120
 H    0.8520252546    1.7654954606    0.7451325627
 H    0.3201654436    1.9086609699   -0.9326634142
 H   -0.8761011673    1.9470281348    0.3791610684
 H   -2.1199000569   -0.6024356798    0.5576161200
 H   -0.6068174481   -3.9813302884   -0.2126843113