20

 C    0.1833655042    1.2929474717   -0.4837096877
 C   -0.0070270565    0.0219713535    0.3503259486
 O    0.2966091330    0.2622026387    1.7258482066
 C   -1.3792066052   -0.5829885562    0.1985626136
 C   -2.0819483367   -1.2064584797    1.2058110253
 N   -3.2775648512   -1.6383241072    0.6841793825
 C   -3.3635529905   -1.3077280039   -0.6474365369
 C   -4.5611263086   -1.6467244147   -1.4726164775
 C   -2.1969405974   -0.6514190627   -0.9717477124
 H    1.1813072106    1.7038406257   -0.3085083985
 H    0.0753656068    1.0875921741   -1.5533855394
 H   -0.5610676491    2.0495996718   -0.2109203259
 H    0.7548866467   -0.7064323921    0.0410101228
 H   -0.4061079034    0.8275847698    2.0675317038
 H   -1.8154436096   -1.3867285358    2.2338557712
 H   -3.9914465488   -2.1194775522    1.2031239450
 H   -5.4755507425   -1.1733202419   -1.0928144420
 H   -4.4144643980   -1.3017081722   -2.4985885978
 H   -4.7461906786   -2.7277294222   -1.5111986029
 H   -1.9594877051   -0.2608816046   -1.9499831484