14

 O   -0.0925377265    1.3691548102    0.0107372816
 C    0.0129602814    0.0108669984    0.0030258307
 C    1.1631954333   -0.6860329209   -0.0076824528
 O    1.2231252373   -2.0418526721   -0.0151032726
 C    0.0647711154   -2.8220574363   -0.0120150681
 N    0.1461629774   -4.0916055545   -0.0190849381
 C   -1.1822730986   -2.0947405198   -0.0005329695
 C   -1.2268848772   -0.7413974682    0.0067688531
 O   -2.3517844291    0.0000653067    0.0175607324
 H    0.7897230079    1.7558920371    0.0071827373
 H    2.1483176170   -0.2344035616   -0.0114076084
 H    1.1218131570   -4.3877245453   -0.0266374248
 H   -2.0835473282   -2.6961590777    0.0019095712
 H   -3.1157316971   -0.5887488959    0.0192205779