18

 O    0.0927119221    1.3693310237    0.0459675222
 C    0.0286166678   -0.0157257357    0.0420897644
 C    0.7048898010   -0.7233172011    1.2578855723
 C    0.1913147800   -2.1875906833    1.1348336978
 C   -0.7115117912   -2.1017678632   -0.1105173856
 C   -1.3551386773   -0.7165691929    0.0136579632
 O    0.1750505226   -1.9299294252   -1.2677318470
 C    0.6260119683   -0.6494223386   -1.1980961064
 N    1.3875526926   -0.0397387334   -1.9976970240
 H    0.6524942287    1.6106704988   -0.7085431953
 H    1.7927044038   -0.6379129513    1.2151393563
 H    0.3639450144   -0.2364474065    2.1749799484
 H    0.9904657506   -2.9161558962    0.9830910932
 H   -0.3871947042   -2.4989694866    2.0090031677
 H   -1.3465747509   -2.9609491174   -0.3157882265
 H   -1.9277661185   -0.5816351076    0.9340356100
 H   -1.9605672970   -0.4398778980   -0.8521902646
 H    1.6824225672   -0.6202383154   -2.7822306761