19

 N   -0.0590421033    1.5802087839   -0.2293364493
 C   -0.0604397349    0.1419095081    0.0530912154
 C    0.3929723397   -0.1555705749    1.5045757698
 C   -0.2615057730   -1.5069192368    1.8088077382
 C   -1.6832576136   -1.3444863514    1.2377514513
 O   -2.5323870695   -0.6328679404    2.1353833845
 C   -1.5078166319   -0.4443437980   -0.0065152739
 C    0.8154168973   -0.5958608049   -0.8894133499
 N    1.5091795990   -1.1358654795   -1.6419066694
 H    0.8911925052    1.9402688547   -0.1860823507
 H   -0.3793180604    1.7467992509   -1.1799810834
 H    1.4792321981   -0.1476834634    1.6206898457
 H   -0.0380708449    0.6255968223    2.1368145537
 H    0.2635859968   -2.3132272372    1.2830449898
 H   -0.2690473148   -1.7574695727    2.8738582138
 H   -2.1339932858   -2.3114763409    0.9783341247
 H   -2.6474606391   -1.1719437280    2.9247606950
 H   -2.2191110976    0.3817000138    0.0553543242
 H   -1.6847337474   -0.9876881556   -0.9362642596