17

 O    0.2758394141    1.1084247432   -0.7006979484
 C    0.0710509607    0.0066063994    0.1713558544
 C   -1.3021008114   -0.4991431125    0.1612358155
 C   -2.4516857313   -0.8576804828    0.1573651201
 C   -3.8256680981   -1.3589251303    0.1261513592
 C   -3.8520462945   -2.8950356795   -0.1518219005
 O   -5.1652429046   -3.3857583392   -0.2465019669
 C   -4.5590653055   -1.0739603443    1.3642128775
 C   -5.1895908546   -0.9104850182    2.3746191207
 H   -0.3848447465    1.7747221694   -0.4842364080
 H    0.7608562612   -0.7738415226   -0.1683896756
 H    0.3569216435    0.2530541588    1.2064382848
 H   -4.3620694096   -0.8839363609   -0.7071829243
 H   -3.3694209164   -3.0798058405   -1.1147099527
 H   -3.2681413408   -3.4000147238    0.6305045844
 H   -5.6001979576   -3.2081852679    0.5964796354
 H   -5.7332263684   -0.7306053583    3.2693911743