16

 O    0.0042070564    0.0476319326    0.0204156530
 C   -0.0131845183    1.2438892851    0.0068051430
 C   -1.1653187830    2.2612666077    0.0208491704
 C   -0.7990891214    3.0383282266    1.3121552095
 C    0.7755954851    3.0678492218    1.2917004057
 C    1.1054443288    2.2986531077    0.0019632370
 O    0.7268577271    3.1031014444   -1.1226345878
 C   -0.7249758957    3.1111181264   -1.1798192943
 H   -2.1725799910    1.8544960549   -0.0335157028
 H   -1.2326713581    4.0418314554    1.3067346193
 H   -1.1749112745    2.5187895798    2.1972799388
 H    1.1755667495    4.0826130736    1.2372874784
 H    1.2016151058    2.5765685313    2.1717102891
 H    2.1272444497    1.9492569434   -0.1292108608
 H   -1.0497143956    2.6809575863   -2.1351937394
 H   -1.0820220249    4.1466373632   -1.1220347492