19

 C    0.0921082824    1.6020482808    0.0614825393
 C    0.0229972947    0.0755250664   -0.0137476751
 C    0.6755504085   -0.5421442989   -1.2776695935
 C    0.7160854698   -2.0708134787   -1.1881212084
 O   -0.5988545630   -2.5854943749   -1.3695431381
 C   -1.0338596080   -2.3268127692   -2.6565312787
 O   -1.0454052576   -0.9324359454   -2.9999209847
 C   -0.0871747061   -0.0926378479   -2.5215987947
 O    0.0580517252    0.9821766425   -3.0365322124
 H    1.1310228801    1.9490279054    0.0663726114
 H   -0.4054733554    2.0714874499   -0.7898057254
 H   -0.3844058828    1.9582419107    0.9798971521
 H    0.5363343485   -0.3565516778    0.8546420149
 H   -1.0164688265   -0.2652251128    0.0458379814
 H    1.6915879888   -0.1464908065   -1.3786652065
 H    1.3897791467   -2.4967583451   -1.9487271193
 H    1.0544520297   -2.4040305779   -0.2038926823
 H   -0.4011205521   -2.8383856802   -3.4000433158
 H   -2.0676413429   -2.6657330105   -2.7394560242