15

 O    0.0168734198    0.0140453180    0.0273345772
 C    0.0395691476    1.2104002291    0.0094206117
 C   -1.2231202168    2.1525548144    0.0642938528
 O   -0.8204482057    3.5209673484   -0.1548553694
 C    0.4409122722    3.4181469866   -0.7889142922
 C    1.8236141290    3.8904088987   -0.2291038453
 C    1.5229979283    3.1804213220    1.0924555162
 C    1.1163420722    2.2473215173   -0.1034192906
 O    2.3829428052    2.5980508775   -0.7750868755
 H   -1.9122290431    1.8173512402   -0.7223192518
 H   -1.7336871880    2.0759874189    1.0287255738
 H    0.3824697940    3.3836667589   -1.8812963572
 H    2.4104533445    4.7830868265   -0.4452258217
 H    2.3936614422    2.8313208307    1.6463032385
 H    0.7261396186    3.5805436228    1.7176219435