17

 C    0.1794060174    1.4758266531    0.0575813659
 C   -0.0568445707   -0.0318678775   -0.0531371380
 C    0.7116299145   -0.6662982488   -1.2567366289
 N    1.8820894278   -1.1851646203   -0.5774045901
 N    3.0584445457   -1.7204140020   -0.9848767567
 N    3.6686871486   -2.0953703717    0.1041133200
 C    2.8957955790   -1.8337231168    1.2068407271
 C    1.7329828238   -1.2477741579    0.7590667010
 N    0.4740844532   -0.7789846806    1.1261204798
 H    1.2496444397    1.7004341263    0.1124853713
 H   -0.2385399571    1.9971560191   -0.8095881384
 H   -0.3050237281    1.8801831520    0.9525846300
 H   -1.1282761781   -0.2302825466   -0.1453958028
 H    0.1451481614   -1.4770286427   -1.7265506701
 H    0.9769353507    0.0695008489   -2.0189231684
 H    3.2267956963   -2.0737500650    2.2024169937
 H    0.4375030257   -0.2598260996    1.9934073246