15

 O   -0.0512382887    1.4499171884    0.1522852554
 C   -0.0261382227    0.0828050717   -0.0073543240
 C   -0.4210792686   -0.6448959178   -1.2566098187
 C   -1.1666337938   -0.8963464962    0.0384105623
 N   -0.5029242401   -1.7361628412    1.1220194349
 C    0.8348015526   -2.2663380736    0.7387066441
 C    1.2110169004   -2.9099254005   -0.4952799098
 N    1.5648926362   -3.5032157084   -1.4236363107
 C    0.6767064045   -0.8158314129    1.0381173315
 H    0.6190890810    1.8379302481   -0.4217882228
 H   -1.0145975143   -0.0146280288   -1.9142118841
 H    0.1923670174   -1.3677367226   -1.7752837561
 H   -2.2347529944   -0.7610757133    0.1368555267
 H    1.2327559938   -2.8293794275    1.5826434173
 H    1.1102240768   -0.3877243753    1.9376064941