16

 N   -0.5911227227   -0.8958771230   -0.9285346514
 C   -0.3417551766    0.1293761376   -0.4573669092
 C   -0.0366103148    1.4309194236    0.1207403077
 C   -0.3103517062    1.5505950096    1.6396651479
 C    0.6645789837    2.6720233971    2.1086123148
 N    1.5554810183    2.9982372541    0.9725538588
 C    1.4564353574    1.8983898245    0.0184663016
 C    2.3903551637    0.8174477063    0.3814132211
 N    3.1169031366   -0.0290064940    0.6803131560
 H   -0.6239398095    2.1826646499   -0.4187699426
 H   -1.3576598232    1.7844574462    1.8376649479
 H   -0.0822480687    0.6028673791    2.1320568966
 H    0.1394560944    3.5743089334    2.4304167363
 H    1.2615852286    2.3215278857    2.9553461342
 H    1.2535228805    3.8513926327    0.5176147062
 H    1.7069055186    2.2374199672   -0.9899855958