19

 C   -0.0297258558    1.6115190338    0.0042890185
 C    0.0079125464    0.0814066820   -0.0170609642
 C   -1.3936302778   -0.5335178590    0.0535765934
 C   -1.3681381530   -2.0658517606    0.0352400168
 O   -0.6890611064   -2.5068048597    1.2088981656
 C   -0.2869249408   -3.8036820042    1.2357272079
 N    0.3336981143   -4.2336851903    2.2418413114
 C   -2.7334112080   -2.6258525448   -0.0199668931
 N   -3.8003046641   -3.0654491649   -0.0754344055
 H    0.9797431792    2.0293415348   -0.0480093992
 H   -0.6003617630    2.0088260199   -0.8423088897
 H   -0.4965679799    1.9828985275    0.9228293120
 H    0.5077918220   -0.2623858959   -0.9325638110
 H    0.6037377884   -0.2908837983    0.8220646120
 H   -1.9085943913   -0.2139210773    0.9661414212
 H   -2.0037380941   -0.1979447552   -0.7927845875
 H   -0.8301227872   -2.4134506836   -0.8585557410
 H   -0.5572225081   -4.3673866662    0.3335985564
 H    0.5712999592   -5.2153918878    2.1162716458