14

 O    0.2018508648    1.4853627635    0.0746385664
 C    0.0185834211    0.1228955494   -0.0247147570
 C   -1.4573288816   -0.3915980577   -0.1876783670
 N   -0.9839129689   -1.1915041945   -1.3266746105
 C    0.2503119461   -0.5524035260   -1.4087652188
 N    1.2151203265   -0.4780730276   -2.2155289267
 C    0.7740468325   -0.6088485607    1.0645176475
 O    1.4747137278   -0.0142598616    1.8456998792
 H    0.8574071845    1.6129254471    0.7806236105
 H   -1.8907608897   -0.9763930035    0.6296435895
 H   -2.1133710672    0.4449340835   -0.4466710276
 H   -1.5440339192   -1.5115444690   -2.1040104901
 H    1.0413124344   -0.9974143038   -3.0779615457
 H    0.6483850091   -1.7083974491    1.0941896804