25

 C   -0.2531915633    1.5968350293    0.1170775611
 C   -0.1024052564    0.0689369736    0.0764998977
 C    0.7284531922   -0.3529652558   -1.1463197598
 C    0.6621048209   -1.8425404619   -1.5073193884
 C    1.3920641249   -2.8401854459   -0.5863183678
 C    2.9236757184   -2.6430042580   -0.5982293879
 C    0.8832125382   -2.9064771916    0.8375394523
 C    0.5182543201   -1.9187577063    1.6566256997
 C    0.4797499824   -0.4285872154    1.4129407678
 H    0.7233165005    2.0854063161    0.2211102369
 H   -0.7154153131    1.9741967750   -0.8009744349
 H   -0.8740490988    1.9159815397    0.9609071460
 H   -1.1051377787   -0.3688151235   -0.0331126784
 H    0.3684502374    0.2139554120   -2.0143603317
 H    1.7710594564   -0.0377317978   -1.0008189484
 H   -0.3930242143   -2.1385428308   -1.5699346620
 H    1.0745922947   -1.9705282620   -2.5166618794
 H    1.2077665808   -3.8295878678   -1.0261932044
 H    3.2092662157   -1.6822895297   -0.1597719401
 H    3.4211591006   -3.4264961127   -0.0182409953
 H    3.3139720047   -2.6800438886   -1.6215778759
 H    0.8721344412   -3.9115928971    1.2577863526
 H    0.2356800665   -2.2110401898    2.6668654073
 H    1.4965785731   -0.0174144789    1.5204270428
 H   -0.0978875643    0.0297613379    2.2243587800