17

 O    0.0502018625   -0.0443763163    0.0809370190
 C    0.0266670966    1.1648468357   -0.0121773739
 C   -1.2452598322    2.0434927261    0.0989715294
 N   -0.7570483947    3.4184878222    0.3321636680
 C    0.5452666968    3.5155906850   -0.3393575014
 C    1.6468493076    4.3915089865    0.3079083807
 N    2.8379281566    3.5039642388    0.2366666591
 C    2.4048579900    2.2003503877    0.1613940411
 C    1.1029895937    2.1219728699   -0.1849175871
 H   -1.8148985350    1.9291494047   -0.8399532458
 H   -1.8819941762    1.6911731425    0.9160005523
 H   -1.4164730288    4.1035549624   -0.0195307366
 H    0.4472605766    3.7869818297   -1.4069229687
 H    1.8331961469    5.3263668004   -0.2249529154
 H    1.3883083608    4.6127295655    1.3522042808
 H    3.6290864208    3.7122784713    0.8273177934
 H    3.0862820680    1.3900907978    0.3890301752