18

 N    0.3645088094    0.7966262018    0.7832931730
 C    0.0323365287    0.0422425950   -0.3035599308
 O    0.7742480624   -0.0802226719   -1.2610374240
 C   -1.3275991297   -0.6516685026   -0.2178368763
 C   -2.0100676932   -0.7489780929   -1.6071794154
 O   -2.7231191057   -1.9826196285   -1.6414491477
 C   -2.1045381671   -2.8675782098   -0.7505028622
 C   -0.6133081515   -3.0698533184   -0.8156939521
 C   -1.2172112778   -2.1179752979    0.2041988781
 H    1.2874675425    1.1979289621    0.8197570375
 H   -0.2129191480    0.8377213808    1.6042400739
 H   -1.9737345588   -0.1307311468    0.4977482066
 H   -2.7263287856    0.0562096409   -1.7904756110
 H   -1.2360742394   -0.7170900186   -2.3815405135
 H   -2.7649754469   -3.6736108766   -0.4533060975
 H   -0.2291239613   -4.0104977029   -0.4359356132
 H   -0.0456935589   -2.6487806849   -1.6371493201
 H   -1.1675038991   -2.3516718687    1.2611052147