18

 C    0.0166490502    1.4827318905   -0.1335661474
 C   -0.0109326983   -0.0339757336    0.0156100376
 N    0.7433271190   -0.4382816408    1.2034250934
 C    0.8681112336   -1.7972746919    1.4610970156
 C    1.4910713129   -2.4454552409    2.4927827204
 C    2.2159169207   -1.9774582018    3.7002487415
 O    1.3670802014   -3.7638924281    2.2676911068
 N    0.6736545106   -3.9210656437    1.0524766230
 N    0.3883954935   -2.7675465710    0.6131840870
 H    1.0443303235    1.8496388443   -0.2089876657
 H   -0.5287959033    1.7867529074   -1.0311227231
 H   -0.4584327345    1.9757022694    0.7231601520
 H   -1.0498970465   -0.3968075089    0.0456844460
 H    0.4553680249   -0.5111970621   -0.8513809600
 H    0.4755366033    0.0912767801    2.0227183132
 H    1.6086354415   -2.0728951474    4.6081543055
 H    3.1309271531   -2.5573985805    3.8523925095
 H    2.4897491044   -0.9257640512    3.5804926046