19

 O   -0.0381200144    1.4301480707   -0.0227243358
 C    0.0542259043    0.0154032130    0.0107524054
 C   -1.3620265090   -0.5494983215   -0.0179671505
 C   -1.3832447482   -2.0779954381   -0.0366226685
 C   -2.8232427077   -2.5586122876   -0.1340456982
 O   -3.6892334722   -2.0220782316    0.8784641602
 C   -3.5221775698   -0.7765215085    1.3944675334
 O   -4.4013166897   -0.3068458550    2.0635860169
 C   -2.1886106922   -0.0727650063    1.1822474811
 H    0.8472082825    1.7969242308    0.0539754535
 H    0.6200176068   -0.3691735272   -0.8533695675
 H    0.5692386291   -0.3317268545    0.9225916133
 H   -1.8357769628   -0.1839918843   -0.9398885478
 H   -0.8233103142   -2.4788983766   -0.8893662945
 H   -0.9175544830   -2.4739462763    0.8752544562
 H   -3.2430852660   -2.2917456661   -1.1131454932
 H   -2.8942015929   -3.6439140874   -0.0253379638
 H   -1.6179273852   -0.2470568667    2.1061599107
 H   -2.3843874455    0.9991125131    1.1450717893