11

 O    0.0546518958    1.3384694760    0.0077792290
 C   -0.0367271712    0.0092852504    0.0010094578
 C   -1.1873676477   -0.6858702472    0.0036499184
 C   -1.1524211432   -2.1420096589   -0.0044965891
 O   -2.1292572850   -2.8534598034   -0.0029012769
 N    0.1642727138   -2.7254483198   -0.0150657353
 C    1.1728087229   -1.9707760080   -0.0166429008
 O    1.1783100523   -0.5936117344   -0.0091039170
 H    0.9878694725    1.5887539886    0.0038969268
 H   -2.1363501168   -0.1691547169    0.0117955840
 H    2.1961517966   -2.3340085765   -0.0242732369