23

 C   -0.2172451743    1.5585621472   -0.0623744443
 C   -0.0626053362    0.0451297510   -0.0147042931
 C    1.1673297237   -0.5373025725   -0.8461207730
 C    1.7626997667    0.2255417692   -2.0208708343
 C    1.8882187119   -0.5714676702    0.4807550879
 C    2.9598311074   -0.1452977142    1.1417514582
 C    2.5866051318    0.0998921245    2.6025680476
 C    1.0268120017    0.2428116062    2.5633268650
 C    0.6240450234   -0.5323798107    1.2916935628
 H    0.7187188920    2.0703583970    0.1844535177
 H   -0.5265903562    1.8930023475   -1.0581822542
 H   -0.9775997876    1.8938691971    0.6510066582
 H   -1.0159534993   -0.4322269858   -0.2614358662
 H    0.9000226909   -1.5526048864   -1.1663301772
 H    2.0455653583    1.2435701650   -1.7381693149
 H    2.6625190535   -0.2779222375   -2.3904534704
 H    1.0532752103    0.2869906416   -2.8533883584
 H    3.9412118055    0.0756090185    0.7374523168
 H    2.8963939795   -0.7316721064    3.2518865900
 H    3.0718527031    0.9966013920    3.0043396871
 H    0.5476682398   -0.1318919614    3.4723904092
 H    0.7651171054    1.3022912029    2.4721967716
 H    0.2086838386   -1.5214700447    1.5196790338