21

 C   -0.1318894656    1.5280619021   -0.0337157649
 C    0.0692281828    0.0324637358    0.0325677114
 C    1.1327580362   -0.6699069152   -0.8688089690
 C    1.1966866480   -1.7536589405    0.2536166315
 C    0.7988219011   -0.6218580051    1.2416208058
 C    0.0335122833   -2.6974958207   -0.0253326965
 C   -1.1283498496   -2.8699940036    0.9316513125
 C   -1.2507205186   -1.9578411386   -0.2692149450
 O   -1.2285285399   -0.5586063461   -0.1337877674
 H    0.8156695527    2.0508790243    0.1241816447
 H   -0.5339306578    1.8180182817   -1.0095242866
 H   -0.8421860457    1.8512915192    0.7337507358
 H    0.8257268048   -0.9837859916   -1.8697041850
 H    2.0437594897   -0.0686322885   -0.9264090377
 H    2.1339929518   -2.2834462279    0.4336970176
 H    1.6757124023   -0.0373440817    1.5334520297
 H    0.2103424908   -0.8512988553    2.1314127187
 H    0.2729772952   -3.5306417269   -0.6804472150
 H   -1.6710555590   -3.8088346045    0.8936250804
 H   -1.0785002439   -2.4252750993    1.9177593150
 H   -1.9174685088   -2.2614678675   -1.0705105761