16

 O    0.0290815189   -0.0213993105   -0.0357831354
 C   -0.0532144315    1.1923347607   -0.0188402376
 C   -1.3521819513    1.8968323229   -0.0375987615
 C   -1.4172600031    3.2299773874    0.0797265684
 C   -0.1759750618    4.0293560679    0.3317959624
 C    0.5522455976    3.6273933257    1.6626270335
 N    1.7021972369    3.0109216375    0.9347163696
 C    1.1004410106    3.4965586613   -0.3552288480
 C    1.1908982366    2.0437958025   -0.0947997449
 H   -2.2299761661    1.2710498444   -0.1584050382
 H   -2.3761599310    3.7414106940    0.0812901023
 H   -0.3377990676    5.1010885220    0.2245583151
 H    0.9241470063    4.4958500668    2.2103779667
 H    0.0149782161    2.9600675237    2.3419645294
 H    1.6802797731    4.0118896612   -1.1141359414
 H    2.0258516763    1.5012576524   -0.5262556503