15

 C    0.1677843597    1.4557011939    0.1158339425
 C   -0.3193940374    0.0298710947   -0.0280290528
 O   -1.1836850203   -0.4380842214    0.6738998220
 C    0.3361948467   -0.7821630241   -1.1523692417
 C    0.1935798472   -2.2610213555   -1.0049632702
 N    1.2059084581   -3.0652777751   -1.1991012312
 O    0.7292087128   -4.3279968347   -0.9983576280
 N   -0.5982965856   -4.3118352800   -0.6716951360
 C   -0.9427050093   -3.0552951744   -0.6698437288
 H    1.1970134854    1.4531152155    0.4940535188
 H    0.1879584847    1.9627879154   -0.8548995568
 H   -0.4713061422    1.9996566650    0.8118030937
 H   -0.1408598771   -0.4459565534   -2.0852066236
 H    1.3944076465   -0.5236700077   -1.2499475301
 H   -1.9434246093   -2.7431584982   -0.4238707079