17

 C   -0.0721501643    1.4392784404   -0.0018416604
 N   -0.0593307718   -0.0129189523   -0.0415666694
 C    0.5508627902   -0.6067829292   -0.9644543165
 O    1.2484538545   -0.0474724616   -2.0020379271
 C    1.7897200854   -1.0788949447   -2.8278069253
 C    1.3459064628   -2.3859483561   -2.1811249013
 O    1.5786387559   -3.5131359847   -2.5458464553
 N    0.6172157753   -1.9954966719   -1.0835145460
 C   -0.0147666184   -2.9048778378   -0.1492073094
 H    0.4781127327    1.9176712260   -0.8197211145
 H   -1.1096861269    1.7912098769   -0.0270965118
 H    0.3539141288    1.7774107168    0.9495311442
 H    1.3990215724   -0.9909540106   -3.8464681314
 H    2.8813719028   -1.0049261749   -2.8573811540
 H    0.2024943085   -3.9182434690   -0.4891366303
 H    0.3807206180   -2.7491827710    0.8574299560
 H   -1.0939757982   -2.7352790163   -0.1265486890