19

 C   -0.0548929905    1.6136122353   -0.0437175970
 C   -0.0747172552    0.0815721775   -0.0556643790
 C    0.7287062705   -0.5368697357   -1.1989608759
 O    0.1297507370   -0.0799311951   -2.4098556052
 C    2.2341150339   -0.1912416704   -1.1793544067
 O    2.8833927876   -1.2538457706   -1.8992464994
 C    2.1150504922   -2.3858392417   -1.8840359708
 O    2.4843581080   -3.4115464386   -2.3731129047
 C    0.8004698903   -2.0724832369   -1.1791248062
 H    0.9531956490    2.0051728824    0.1312983817
 H   -0.4110164986    2.0096246858   -0.9972941409
 H   -0.6978308535    2.0001032455    0.7520296661
 H    0.3101236828   -0.3112463586    0.8925161251
 H   -1.1075398284   -0.2725433811   -0.1491798110
 H    0.6589710196   -0.3855023195   -3.1553381946
 H    2.4509553853    0.7477548289   -1.6910811287
 H    2.6354807573   -0.1514164200   -0.1597189688
 H    0.8594812141   -2.4633799452   -0.1568935168
 H   -0.0419262915   -2.5497480219   -1.6806657471