22

 C    0.7245769485    1.4191475396    0.5140725547
 N    0.8915820608    0.0004349330    0.7483076185
 C   -0.1466459416   -0.8144344716    1.0820176983
 O   -1.2994365590   -0.4308947907    1.1956305183
 C    0.2301178515   -2.2861209978    1.2798558567
 C    1.4014916397   -2.5666174276    2.2294339631
 C    1.4732014537   -4.0500672105    2.5986165615
 O    2.5962623565   -2.1340190227    1.5670027569
 C    3.7187771035   -1.9739540071    2.4099079415
 H    1.2830982516    2.0179387432    1.2436320301
 H    1.0595797129    1.6994653361   -0.4912122513
 H   -0.3382579259    1.6440909191    0.6111441054
 H    1.8095804650   -0.4191043941    0.7235189689
 H   -0.6698759219   -2.7769980259    1.6542093566
 H    0.4709029211   -2.7301246622    0.3056856187
 H    1.2760092535   -1.9699735893    3.1479521490
 H    2.3105430338   -4.2614053989    3.2693044995
 H    0.5558424837   -4.3569974243    3.1095587889
 H    1.5903413860   -4.6608741428    1.6979243187
 H    4.0694069006   -2.9282601581    2.8244598166
 H    4.5194788662   -1.5485560266    1.7999303711
 H    3.5035538698   -1.2897111505    3.2444418285