23

 C    0.7034286154   -0.2144974648    1.3625723706
 C    0.0400238632   -0.0999601376   -0.0146744628
 C   -1.3862196217   -0.6562552074   -0.0900159384
 C   -2.3766458925   -0.0218484794    0.8970211177
 C   -2.5708228103    1.4900070100    0.7356149201
 C   -1.9881931182   -0.7523740823   -1.5524503865
 C   -2.0586872818   -2.2725910856   -1.3817664196
 O   -0.7279244090   -2.7408891594   -1.1239559398
 C   -1.4817467339   -2.2048258194   -0.0323510042
 H    1.7463392695    0.1138125021    1.3166379218
 H    0.2012329457    0.3982998414    2.1181841023
 H    0.7020126427   -1.2503956887    1.7199106852
 H    0.0367315282    0.9485574413   -0.3377395938
 H    0.6407243859   -0.6453806241   -0.7496588748
 H   -3.3467446086   -0.5243774472    0.7844000246
 H   -2.0494175854   -0.2379119365    1.9218779225
 H   -1.6485540574    2.0422328822    0.9399067314
 H   -2.8922229919    1.7478459678   -0.2791649772
 H   -3.3347698347    1.8572725943    1.4277491594
 H   -2.9702486383   -0.2798003449   -1.6341528587
 H   -1.3496705071   -0.4092062196   -2.3706064348
 H   -2.7513616822   -2.9818369790   -1.8201424062
 H   -1.6237169875   -2.8428425632    0.8339778115