22

 C    0.0183707322    1.6360970062   -0.0196042146
 C    0.0041395264    0.1040032223    0.0193799952
 C    0.7203548033   -0.5112782130   -1.1903081875
 O    2.0742979764   -0.0913559269   -1.2583535531
 C    0.6179364248   -2.0737151779   -1.2856840136
 C    1.3167319190   -2.7774175024   -0.1017158219
 C   -0.8533696214   -2.5352387018   -1.3928356996
 C    1.3031056702   -2.4736238344   -2.5287416371
 N    1.8116030546   -2.8168714748   -3.5081332447
 H    1.0410440277    2.0164505209   -0.0798129255
 H   -0.5250390467    2.0103189969   -0.8937425407
 H   -0.4544500505    2.0540723656    0.8737058571
 H    0.4855322022   -0.2457228772    0.9430463481
 H   -1.0307495899   -0.2507252977    0.0591693480
 H    0.2633562507   -0.1129590733   -2.1045120392
 H    2.4818596822   -0.2384515373   -0.3979548657
 H    0.8078930164   -2.5434338568    0.8372895260
 H    1.2958959273   -3.8617170682   -0.2365704815
 H    2.3647548552   -2.4763340702   -0.0243175522
 H   -1.3819161693   -1.9903870815   -2.1804875474
 H   -0.9021374074   -3.6009704253   -1.6301264564
 H   -1.3761283934   -2.3757209030   -0.4465739035