17

 C   -0.0560521439    1.5479521349    0.0582367450
 C    0.0337640460    0.0376506680   -0.0670285429
 O   -1.1875545249   -0.5560980840   -0.4519472400
 C    1.1678706561   -0.5705971493   -0.9623226240
 C    1.7218860121   -1.2787639285    0.2759154481
 O    2.0337033787   -0.2715980130    1.2447237268
 C    0.6697031687   -0.7155705336    1.1491545976
 C   -0.0215138314   -1.2041634176    2.2900610389
 C   -0.6787854187   -1.5743297826    3.2276865641
 H    0.9027064554    1.9622737708    0.3787818357
 H   -0.3341521403    1.9908151360   -0.9029359130
 H   -0.8162439554    1.8292020657    0.7968384461
 H   -1.8290680041   -0.3920786074    0.2496569715
 H    0.7360705195   -1.2503047450   -1.6983687048
 H    1.8536567165    0.1312933364   -1.4410427401
 H    2.2521910201   -2.2204570342    0.3557187243
 H   -1.2377853744   -1.9183406865    4.0628082469