23

 C   -0.4196881446    1.4604489664   -0.0971099459
 C   -0.0710297193   -0.0239525070   -0.0119960712
 C    1.1295066697   -0.4492951478   -0.9036446051
 C    2.0597229721   -0.5077983756    0.3609847444
 C    2.9302815724   -1.7625527077    0.5053296060
 C    2.8809811013    0.6872326212    0.4991063773
 C    3.5830310883    1.6587405865    0.6110940919
 C    0.7468992525   -0.4782853038    1.2408903902
 C    0.7099579588    0.3223718461    2.5326751873
 H    0.4656998739    2.0919871066    0.0209425531
 H   -0.8630282900    1.6893092672   -1.0726147835
 H   -1.1443629332    1.7462609031    0.6727288662
 H   -0.9797507638   -0.6123166409   -0.1731408002
 H    1.0043610233   -1.4427729304   -1.3431460998
 H    1.4306380267    0.2491020591   -1.6875267098
 H    3.7223086579   -1.7784984620   -0.2498971849
 H    3.4061272535   -1.7975991538    1.4905563043
 H    2.3205517870   -2.6638610154    0.3844189876
 H    4.1982036737    2.5189489872    0.7062460131
 H    0.4938554998   -1.5216062939    1.4613525422
 H    0.9931556088    1.3658944479    2.3742293017
 H   -0.2934547859    0.3027730620    2.9725999042
 H    1.4021238173   -0.0978510551    3.2706562109