13

 C   -0.0247221957    1.4738196371   -0.0089231611
 N    0.0165528039    0.0258000610   -0.0156163521
 C    0.0138629136   -0.8155602016   -1.1264980870
 C    0.0636115175   -2.0833021150   -0.6282892350
 N    0.0983048010   -2.0676083502    0.7567875997
 C    0.0684889282   -0.7978674787    1.0628655198
 O    0.0844232895   -0.2731703382    2.3032343029
 H    0.8467597770    1.8909101928   -0.5235940684
 H   -0.9324984044    1.8389319956   -0.4995934055
 H   -0.0208058555    1.8182053366    1.0252754233
 H   -0.0231005125   -0.4196634110   -2.1275374147
 H    0.0770083156   -3.0131451827   -1.1753111208
 H    0.1210060716   -1.0250220557    2.9073571089