16

 C   -0.1682157252    1.5913674149    0.0403321809
 C   -0.0479905905    0.0855752788    0.0568400407
 C   -1.2492277344   -0.6760755497   -0.4019084770
 O   -2.2667244288   -0.1644535085   -0.7888381209
 C    1.2824178101   -0.5818025502   -0.2245851670
 O    2.3333576893    0.2614057715   -0.5321683128
 C    0.7324283550   -0.6323436473    1.1881494212
 C    1.3635025974    0.1446692696    2.2123077142
 N    1.8962912721    0.7539306051    3.0390232502
 H    0.7753607586    2.0652258350    0.3081218138
 H   -0.4564218283    1.9227511063   -0.9603299861
 H   -0.9452435584    1.9182112165    0.7358246286
 H   -1.1369126751   -1.7855819377   -0.3662910084
 H    1.2629537651   -1.5276733503   -0.7669541555
 H    3.1281942787   -0.0462798759   -0.0814669597
 H    0.3343784242   -1.5841472881    1.5281144178