23

 C    0.3207518260   -0.8394065435    0.9811772480
 C   -0.1705763072   -0.2567502593   -0.3456678893
 C    0.8298141290   -0.4084228812   -1.4960917943
 C    1.0903875770   -1.8635579747   -1.9667003599
 C    0.8285188368   -1.8285681564   -3.4892419617
 C    0.8233360934   -0.3258695961   -3.7913329913
 O    0.2796852379    0.2678584511   -2.6147122012
 O    2.1155594226    0.1152883647   -1.1780897990
 C    2.1673448250    1.5058557106   -0.9088353137
 H    0.5046271168   -1.9162146418    0.9049936950
 H    1.2561416731   -0.3704596537    1.2979813387
 H   -0.4228235874   -0.6862789199    1.7688932042
 H   -1.1016685466   -0.7411400068   -0.6585638758
 H   -0.4085685813    0.8062375986   -0.2306289581
 H    2.1217858172   -2.1285138435   -1.7302837000
 H    0.4324317663   -2.5703881421   -1.4570178621
 H    1.5805536974   -2.3725974891   -4.0656365732
 H   -0.1495420747   -2.2589678983   -3.7233287855
 H    1.8412937272    0.0453413280   -3.9750381625
 H    0.1881933997   -0.0385757116   -4.6327761798
 H    1.6372750380    2.0814898886   -1.6751392517
 H    1.7491789156    1.7553099345    0.0763460484
 H    3.2241681683    1.7843117819   -0.9150022952