22

 C   -0.1768182850    1.5520870075   -0.0039438067
 C    0.0307278858    0.0379142480    0.0145887702
 C    0.8955871195   -0.5072220784   -1.1508100573
 N    1.6044988055   -1.7008409424   -0.6373876879
 C    2.5647163914   -1.4552830600    0.4523186967
 C    2.2871763648   -0.1457772632    1.1971759026
 C    0.7666128121   -0.5435487186    1.2404903466
 C    0.0558766200   -0.4189982520    2.5727032685
 C    1.1887774235   -1.9589744759    0.7346854202
 H    0.7741889872    2.0909194699    0.0682372827
 H   -0.6636534849    1.8666742148   -0.9331081672
 H   -0.8120699540    1.8817957373    0.8247320368
 H   -0.9558138772   -0.4459974765   -0.0301261645
 H    0.2882619922   -0.8039470452   -2.0111677704
 H    1.6204559875    0.2353409283   -1.5036661065
 H    3.5100196074   -1.9853069915    0.4067786087
 H    2.7295979415   -0.1636736189    2.1970836329
 H    2.5634159052    0.7951801577    0.7096842557
 H   -0.0557510004    0.6293269138    2.8707403414
 H   -0.9472419949   -0.8597837247    2.5255585909
 H    0.6080980577   -0.9303247977    3.3682621178
 H    0.8108498850   -2.9292619023    1.0373244888