20

 C   -0.0314419330    1.5594773377    0.0587482800
 C   -0.0143034201    0.0296747440   -0.0032348868
 C    0.8468544806   -0.4980960006   -1.1822346994
 N    2.1797461802   -0.6402264033   -0.6063252264
 C    3.3779711002   -0.7843789589   -1.3987705553
 C    2.1694838067   -0.6454728144    0.7509674408
 O    3.1242479468   -0.6668529781    1.5081696498
 C    0.7095448232   -0.5990695414    1.2045439631
 O    0.5800571872    0.0935505237    2.4164355537
 H    0.9845912892    1.9683396401    0.0707125334
 H   -0.5537264874    1.9723600538   -0.8099618904
 H   -0.5329497774    1.9011446248    0.9659204588
 H   -1.0383554580   -0.3431227232   -0.0887418960
 H    0.4775991202   -1.4603812628   -1.5657519266
 H    0.8692369410    0.2058266555   -2.0222279295
 H    3.5037832533    0.0674496143   -2.0777846155
 H    4.2265400632   -0.8266407102   -0.7133939799
 H    3.3527478395   -1.7025847734   -1.9988933814
 H    0.3752725234   -1.6460147915    1.3192390518
 H    1.4582563510    0.0515996436    2.8254311358