12

 C    0.0898784482   -1.1727499449   -0.0064006974
 C    0.0617826073    0.0267331894    0.0016632712
 C   -0.0155848587    1.4740356497    0.0118982073
 O    1.3300119999    2.0124097865   -0.0002379261
 C    1.3995536571    3.3284741644    0.0072472236
 N    0.4059938786    4.1751921568    0.0241700028
 O    1.0297253484    5.3905114688    0.0245610205
 N    2.4010210686    5.1950352295    0.0073457501
 N    2.6296341339    3.9592055033   -0.0031120934
 H    0.1195494828   -2.2347879189   -0.0135997121
 H   -0.5549342767    1.8533556591   -0.8640968652
 H   -0.5344089095    1.8419367163    0.9049943887