16

 O   -0.1901757414    1.3804750652    0.0395366501
 C   -0.0842710537   -0.0076880411    0.0434496722
 C   -0.4585753525   -0.7859448709   -1.1887636428
 C   -1.3446923934   -0.8452957305    0.0501491668
 C   -1.0560511290   -1.9763268945    0.9876499987
 C    0.1826418785   -1.8891060390    1.5029611836
 C    0.8988539036   -0.6506037559    1.0290333173
 C   -1.9919996159   -3.0111161701    1.2619313323
 N   -2.7753226804   -3.8382058999    1.4726151981
 H    0.4806334554    1.7334042536   -0.5551056342
 H   -0.8451385444   -0.2003687290   -2.0161189382
 H    0.1058276984   -1.6709224880   -1.4652803678
 H   -2.3309929198   -0.4004584444    0.0106236998
 H    0.6240693801   -2.6132120729    2.1764193755
 H    1.8701983642   -0.8839360139    0.5752338239
 H    1.0945398604    0.0378634413    1.8619480146