17

 C   -0.0745596915    1.3746553140   -0.2223496129
 O   -0.1726472997    0.1140447329    0.4257019668
 C   -1.3768678307   -0.5374752896    0.1741138048
 C   -1.5164113151   -1.2969940601   -1.1708378558
 O   -1.4854496042   -1.0593773178   -2.3349585764
 O   -1.6928436305   -2.5156579649   -0.5591982101
 C   -1.4813151725   -1.9370428120    0.7569744864
 C   -0.6362633519   -2.5976255668    1.7802730796
 C   -2.1449942362   -2.4705906584    1.9727831239
 H    0.8923987576    1.7968088532    0.0571007187
 H   -0.1269645382    1.2706744287   -1.3125916862
 H   -0.8745299689    2.0539388287    0.1086048979
 H   -2.2461157923    0.1075005758    0.3766351272
 H   -0.2459107216   -3.5808896855    1.5430333057
 H    0.0239122184   -1.9651277806    2.3631829557
 H   -2.5236591227   -1.7650496622    2.7049753014
 H   -2.7377390299   -3.3713542652    1.8581598332