12

 O    0.0594002670    0.0387770751   -0.1116667394
 C    0.0090683724    1.2226451053   -0.0474736370
 O   -1.1195256793    1.9638269425   -0.1923039505
 C   -0.8481383740    3.3323711100    0.0942794296
 C    0.6996189227    3.4105821946    0.0430919550
 O    1.0793743165    2.0315288355    0.1910184944
 C    1.2203949883    3.9691573209   -1.1982454816
 C    1.6309291770    4.4481308337   -2.2198710350
 H   -1.3284623963    3.9588680506   -0.6569641362
 H   -1.2321319777    3.5788660250    1.0891516193
 H    1.1035857325    3.9544463199    0.9010099181
 H    2.0025350809    4.8657619368   -3.1237246667