19

 C    0.0825101446    1.4553214603   -0.1603488171
 C    0.0526421994   -0.0244243245    0.0334634998
 C   -0.9751156402   -0.8316193930    0.7607543543
 C    0.4902977976   -0.9661415587    1.1394181844
 C    1.2431387939   -1.7061021423    0.0385531278
 C    0.9906171539   -3.1906564790   -0.2187194207
 C    1.5370978133   -3.6283987851   -1.5626564043
 O    2.3690512961   -4.4868232975   -1.7127068845
 O    0.6716022124   -0.8367780390   -0.9825330338
 H    1.1060775659    1.8122047511   -0.3100775133
 H   -0.5076145289    1.7370359355   -1.0397944510
 H   -0.3437452288    1.9642064313    0.7088010625
 H   -1.5677017756   -0.2875770864    1.4898863775
 H   -1.5048918273   -1.6294821579    0.2478500618
 H    0.8649235023   -0.7657953169    2.1342197215
 H    2.3227604934   -1.5183375545    0.1027753487
 H    1.4581848627   -3.7936978410    0.5655350086
 H   -0.0907310994   -3.3766538166   -0.2153669872
 H    1.1068352047   -3.0822944658   -2.4294875452