18

 O   -1.0346637001    1.2964976696    1.8859010019
 C   -0.2656210103    1.5787169546    0.9935410117
 C    1.1700278644    2.0241212191    1.2677183502
 N    2.1120548501    1.4946043355    0.3162481559
 C    2.5540156070    0.0882139749    0.4370078081
 C    3.9651558857    0.5319150851   -0.0177698816
 C    3.5112843938    1.9666044868    0.3474172056
 C   -0.6752764718    1.5421961989   -0.4006917499
 C   -1.0642951585    1.5179612218   -1.5395515761
 H    1.1772726287    3.1208913600    1.1864859007
 H    1.3913908249    1.7685660644    2.3197337093
 H    2.5467792765   -0.2748940298    1.4780198932
 H    2.0042433989   -0.6217350989   -0.1885826150
 H    4.8152656101    0.1253663364    0.5296877179
 H    4.1232753029    0.4005721680   -1.0893414841
 H    3.7364738326    2.7795353583   -0.3509185736
 H    3.8474187238    2.2605899713    1.3551513378
 H   -1.4054879887    1.4955784943   -2.5459209622