17

 C    0.0029160579    1.5039258348    0.0296108672
 C   -0.0137725913   -0.0043162071   -0.0142762449
 C   -1.2739601762   -0.7347711793   -0.3527549704
 C   -1.3976795560   -1.8190462982    0.4102739358
 C   -0.2290247323   -1.9333081400    1.3613596932
 N    0.6411865300   -0.7685139117    1.0675479942
 C    1.2650385092   -0.7656826028   -0.2781373963
 C    1.2922909838   -1.9467272435   -1.0997764467
 N    1.3589493176   -2.9063081451   -1.7430353371
 H    0.9620920909    1.8721273830    0.4012715744
 H   -0.1662565321    1.9213755421   -0.9684852634
 H   -0.7857846527    1.8747726592    0.6920555890
 H   -1.9590097566   -0.3983893313   -1.1202438861
 H   -2.1943180084   -2.5510698033    0.3591481674
 H   -0.5386723717   -1.8755163339    2.4120789162
 H    0.3257368117   -2.8712373934    1.2394181781
 H    2.1976123761   -0.2067415793   -0.3043306006