15

 C   -0.0099849100    1.3738112274   -0.0330014669
 N   -0.0573448457   -0.0362678664   -0.3625749950
 C   -1.0873253734   -0.6683675074   -0.0326355617
 O   -1.1442208283   -2.0138576998   -0.2896771936
 C   -2.3213975307   -2.6442722418   -0.1251222042
 N   -3.4911315691   -2.0330169866   -0.0187924551
 N   -4.3293755693   -3.0978039407    0.1146422060
 C   -3.6350526275   -4.2475525894    0.0681063095
 N   -2.3474264211   -3.9992662481   -0.0818815705
 H    0.8551541603    1.5661429702    0.6110705262
 H    0.1401103335    1.9544262989   -0.9496973568
 H   -0.9128544106    1.7484263884    0.4744562897
 H   -1.9756235505   -0.2726432482    0.4683749223
 H   -5.3189576996   -2.9435049476    0.2130576578
 H   -4.0923342179   -5.2222412090    0.1462293720