21

 C    0.0530637273    1.4353760976   -0.0913361372
 C   -0.0398158468   -0.0721394621    0.0668913964
 O    0.7463399474   -0.4532013979    1.1805214163
 C    0.7284038172   -1.8239014372    1.4249517794
 C    1.5299083582   -2.1473871249    2.6853055492
 O    1.8816930217   -1.3139761135    3.4742977369
 C    1.8406889909   -3.6353431759    2.8449751222
 O    2.2906394970   -3.8981185816    4.1373441883
 C    2.6460572902   -5.2476822857    4.3295422410
 H    1.0905453848    1.7397327448   -0.2543954703
 H   -0.5461228184    1.7656310102   -0.9450456747
 H   -0.3132928653    1.9370928204    0.8083322213
 H   -1.0870979640   -0.3844192535    0.2192749844
 H    0.3180997725   -0.5819410217   -0.8440662342
 H   -0.3011322597   -2.2001849668    1.5822715844
 H    1.1351815127   -2.4034006681    0.5746940033
 H    0.9403453223   -4.2265583747    2.5916419617
 H    2.6007152931   -3.8996388619    2.0842640804
 H    2.9833398881   -5.3479119900    5.3634365275
 H    1.7921787626   -5.9242407303    4.1654585208
 H    3.4618006782   -5.5550530972    3.6560801930