18

 O   -0.1515282964    1.3764601070   -0.4255711397
 N   -0.0392151504   -0.0331813403   -0.3127310397
 C   -1.1383121713   -0.5875761624    0.0280022128
 C   -1.1408623585   -2.0942619892    0.0330236744
 C   -1.8520216326   -2.6750651148    1.2640455640
 C   -3.1637693510   -1.9780495417    1.5057524479
 C   -3.4272667730   -0.7503188117    1.0670747340
 C   -2.4436748554    0.1369235241    0.3458882519
 O   -2.2629325533    1.2711305864    1.1827654251
 H    0.7582366441    1.6414531074   -0.5937343531
 H   -1.6875423555   -2.4275982210   -0.8607396187
 H   -0.1141523941   -2.4557061339   -0.0626783452
 H   -2.0117187689   -3.7498360791    1.1219889298
 H   -1.2125317196   -2.5810563514    2.1530756608
 H   -3.9184546377   -2.5166348769    2.0733618417
 H   -4.3797990478   -0.2751594858    1.2826460265
 H   -2.8799607971    0.4476255497   -0.6226662489
 H   -1.5607535716    1.7964315135    0.7767213664