21

 C   -0.1397041838    1.5789067888   -0.0144721552
 C    0.0810690480    0.0678380529    0.0381072365
 C    1.2757058971   -0.7756571681   -0.4122748750
 C    2.7450537496   -0.3434813293   -0.2386718867
 C    3.1541755475   -1.2739841448    0.9619053157
 C    2.1405786843   -0.3456120538    1.7217981886
 C    2.7041645847    0.7875051982    0.8246695164
 C    0.8331205010   -0.7922565472    1.0327313037
 O    0.2128676288   -1.9296296315    1.5626591747
 H    0.4956319766    2.0684342755   -0.7581689392
 H   -1.1770459463    1.7871489904   -0.2945130007
 H    0.0345015614    2.0663591985    0.9491628122
 H   -0.8217984944   -0.4756414217   -0.2357604922
 H    1.0729828386   -1.6211665146   -1.0607838784
 H    3.3541677510   -0.2575063089   -1.1389775875
 H    2.9007369198   -2.3344942375    0.8939645272
 H    4.1915378101   -1.1412135681    1.2822079678
 H    2.1222575519   -0.2681105650    2.8101364121
 H    3.7122760312    1.0680341128    1.1399551265
 H    2.1229221157    1.6861286270    0.6435423517
 H   -0.3309004030   -1.6503471536    2.3071593016