12

 C    0.1262094797    1.4001013719   -0.0694574726
 N    0.0816759514   -0.0403983650   -0.0167190233
 N    0.1844818383   -0.8069743383   -1.1833945834
 C    0.1036826289   -2.0030684901   -0.7311235882
 O    0.1509203416   -3.1102140386   -1.4595362019
 O   -0.0417098017   -2.1263721334    0.6057993226
 C   -0.0583073083   -0.7942417823    1.1026355994
 O   -0.1740462462   -0.5139243494    2.2609187631
 H    1.0763840818    1.7394114681   -0.4920675416
 H   -0.6953546056    1.7873308681   -0.6791035118
 H    0.0279932601    1.7641495506    0.9541037281
 H    0.0701988900   -3.8692516516   -0.8685936003