14

 C   -0.0462358158    1.4043390914   -0.0221131676
 O    0.0123098523   -0.0264975187   -0.0491248324
 C    0.6267523919   -0.5998161243   -1.0749723491
 N    1.1620335746    0.1697926455   -2.0317115809
 C    1.7505438325   -0.5212489829   -3.0054188183
 N    1.8409868552   -1.8425004894   -3.0927896972
 C    1.2605908588   -2.4844567321   -2.0641055734
 O    1.3084741262   -3.8153683762   -2.0789240409
 N    0.6427344133   -1.9323570512   -1.0334168953
 H    0.9574195858    1.8353040367    0.0004760125
 H   -0.5766123868    1.7895056608   -0.8960984356
 H   -0.5875743259    1.6493992641    0.8917560046
 H    2.2022725058    0.0555833883   -3.8097277479
 H    1.7852699821   -4.0616452420   -2.8842290687