15

 O    0.1100202853    1.4793221125   -0.1073694570
 C    0.0526446606    0.0969948330   -0.0257166807
 C    0.1227957721   -0.6120058514    1.3509541912
 O   -0.9921195610   -0.0007169834    2.0622855195
 C   -2.0104366115   -0.0480934107    1.1180751598
 O   -3.1159473581    0.3484182270    1.3210079916
 C   -1.3299433313   -0.6782189695   -0.0768516755
 C   -0.5612982931   -1.8297869521    0.6944163726
 O    0.3324114059   -2.5961119307   -0.0613347396
 H   -0.3715388365    1.8553690980    0.6402326766
 H    0.7562774825   -0.3167319621   -0.7446869229
 H    0.9972974661   -0.6640635821    1.9949002819
 H   -1.9260398573   -0.8258285221   -0.9730296075
 H   -1.1726207619   -2.4359240222    1.3726359138
 H   -0.1679128219   -3.2560345842   -0.5519642838