17

 C    0.0427004318    1.6238543644   -0.0347898884
 C    0.0532344659    0.1033315302   -0.0182880473
 C    1.1261840181   -0.6512433093   -0.8622408133
 O    2.3994301079   -0.1019013826   -0.4219879117
 C    2.1874867484   -0.7772753277    0.8139908730
 C    0.6589721821   -0.6658825629    1.1605968244
 O    0.1772123954   -0.8126021745    2.4407797415
 C    1.1936107012   -1.7666566646    0.2803057567
 O    0.9973565762   -3.1148764610    0.3359817609
 H    1.0559695212    2.0140894019    0.0896595066
 H   -0.3580429674    2.0070573279   -0.9794894852
 H   -0.5851207296    2.0190862952    0.7715717237
 H   -0.9327333439   -0.3173106978   -0.2440741856
 H    1.0470265213   -0.7709323700   -1.9409270171
 H    2.9743302311   -0.8259044175    1.5557732457
 H    0.4329209213   -0.0395625963    2.9562992917
 H    1.7620983289   -3.5542376455   -0.0545562555