13

 O   -0.0778371366    1.3761086959    0.0677315935
 C    0.0313653652    0.0132303809    0.0315390098
 C    0.9255363478   -1.0057892270    0.8318510063
 C    0.8104483846   -1.9859134627   -0.3282124271
 C   -0.2214647842   -2.0066795596    0.7896036313
 C   -1.0992009486   -0.9871739979    0.0065861025
 C   -0.0599197247   -0.9733180287   -1.1282148092
 H    0.6678855389    1.7556641792   -0.4121257400
 H    1.7124997527   -0.8927443578    1.5659545857
 H    1.5080272498   -2.7503471039   -0.6448980871
 H   -0.4715798603   -2.7897767934    1.4934010202
 H   -2.1657796836   -0.8183043026   -0.0474780731
 H   -0.2150863509   -0.8038152124   -2.1852973630