14

 O    0.0001306331    1.4456728461    0.0095588982
 C   -0.0060606926    0.0270459420    0.0021348407
 C   -1.3808482949   -0.4564710198    0.0123592883
 C   -2.5092922452   -0.8776532431    0.0205751339
 C   -3.8216381822   -1.4117031389    0.0300328304
 N   -4.8858972083   -0.6257549146    0.0408603032
 O   -5.9757888534   -1.4797764797    0.0476650330
 C   -5.5470134866   -2.7505988886    0.0408116813
 C   -4.1940042198   -2.7932686789    0.0295725294
 H    0.9197683036    1.7302055300    0.0023418779
 H    0.5029434904   -0.3753670892   -0.8895831818
 H    0.5194055632   -0.3847036088    0.8799313724
 H   -6.3162684221   -3.5070655423    0.0451964112
 H   -3.5454489952   -3.6520104842    0.0220213719