16

 N   -0.0812077313    1.2781827445   -0.2384867349
 C   -0.0507173742    0.0447843896    0.0271347750
 O    1.1109096354   -0.6128428094    0.3336955114
 C    1.0832116960   -1.9816147979    0.7738884292
 C   -0.3081509248   -2.6138738804    0.6497564077
 C   -0.9304500618   -2.1647159202   -0.7063850240
 C   -1.2941745655   -0.8138328865   -0.0038600210
 C   -1.3119533749   -1.6489498384    1.2958440905
 O   -1.9466718465   -1.6310787318    2.3059327906
 H    0.8545039466    1.6827829990   -0.1650382999
 H    1.8050498035   -2.5249973097    0.1547036125
 H    1.4265401296   -2.0079006876    1.8141422665
 H   -0.2943631428   -3.6628565400    0.9488153976
 H   -0.2523150918   -2.0994159816   -1.5592209903
 H   -1.8193510007   -2.7387317554   -0.9702084407
 H   -2.1598162568   -0.2258447641   -0.2970406603