15

 C   -0.0936789594    1.5163428123    0.0131962670
 C   -0.0052051460    0.0248982308   -0.0157306466
 C    0.2167144977   -0.8030126530   -1.0953818993
 O    0.4204503584   -0.6052318344   -2.4176603569
 N    0.2114346293   -2.0815684169   -0.6211178031
 C   -0.0142158320   -2.0018307882    0.7400452785
 N   -0.1458309751   -0.7433920174    1.1151569124
 C   -0.0814293874   -3.1533141670    1.5515041158
 C   -0.1329354874   -4.1573044116    2.2153246682
 H    0.0433593673    1.9504685323   -0.9842128882
 H   -1.0678918021    1.8507608684    0.3853497836
 H    0.6714707632    1.9485242848    0.6668095445
 H    0.3955529004    0.3411073584   -2.5922267550
 H    0.3469442732   -2.9164759357   -1.1667639294
 H   -0.1813341301   -5.0318537328    2.8153000386