20

 C   -0.0164450631    1.4019529453   -0.0615504306
 N    0.0468377281   -0.0409110710   -0.1552090446
 C   -1.0288743847   -0.6770409947   -0.0208841752
 O   -1.0476649729   -2.0233767816   -0.0959026183
 C   -2.3229853061   -2.6405678658    0.0713173346
 C   -2.1287571644   -4.1446101052   -0.0469961294
 C   -3.4581608770   -4.9058248923    0.1204332749
 C   -3.2966876090   -6.3501298556    0.0108245979
 C   -3.1403850845   -7.5378266485   -0.0830516082
 H    0.6383866409    1.7474911169    0.7466355890
 H    0.3622127886    1.8479928441   -0.9883896879
 H   -1.0295483568    1.7967884568    0.1225814700
 H   -2.0131667536   -0.2158129706    0.1624621755
 H   -2.7417445984   -2.3796703617    1.0542393892
 H   -3.0207011922   -2.2778914325   -0.6975909166
 H   -1.6890892675   -4.3752503024   -1.0220556088
 H   -1.4130895488   -4.4759781987    0.7114614754
 H   -3.9027267774   -4.6627842611    1.0948986292
 H   -4.1780658077   -4.5623209168   -0.6345705908
 H   -3.0119827936   -8.5886120448   -0.1645297350