19

 C    0.1032278737    1.5205014546   -0.1613381780
 C   -0.0779712991    0.0120552245    0.0596674040
 C    0.6594472885   -0.4960455418    1.2667076221
 C    2.1090879296   -0.9070722174    1.2783271019
 C    1.0512565687   -1.9166793942    1.6563633654
 C    0.4833560187   -1.6650457978    3.0825603909
 N    1.2098013030   -0.5247460161    3.7018495134
 C    0.1189129360   -0.2838797809    2.7216829333
 H    1.1576169079    1.7678776987   -0.3201042135
 H   -0.4629577292    1.8643880968   -1.0326943119
 H   -0.2416983958    2.0919138329    0.7072886022
 H   -1.1484226482   -0.2169336935    0.1591608021
 H    0.2686777330   -0.5350790439   -0.8259078273
 H    2.5335740944   -1.0610426068    0.2902026959
 H    2.7954530227   -0.5264927921    2.0237336460
 H    0.8877859366   -2.8337299863    1.1044277613
 H   -0.0392742310   -2.3915863057    3.6908891753
 H    0.8093938075   -0.3880903007    4.6297743801
 H   -0.7522137172    0.3046523097    2.9817705671