17

 O   -0.0125209808    1.4254002055    0.0730446639
 C    0.0292168520    0.0294817892    0.0383533855
 C   -0.5132759294   -0.7734149509    1.2110493137
 C   -1.2856553942   -0.6590314993   -0.0874134522
 C   -2.5898236560    0.1373644227   -0.1887013336
 N   -3.5195384603   -0.8993077806   -0.6128710668
 C   -2.8660025501   -1.9827171947   -1.1800775236
 O   -3.3702217347   -2.9235304303   -1.7489978974
 N   -1.5027946689   -1.7746411435   -0.9681934630
 H    0.6534366125    1.7321794229    0.6976951740
 H    0.8704712056   -0.3983772233   -0.5089409039
 H   -0.0285877088   -1.7154898119    1.4490576739
 H   -0.8894419225   -0.2199398011    2.0659085303
 H   -2.8781208165    0.5813150123    0.7674666466
 H   -2.4888818122    0.9456128136   -0.9255730805
 H   -4.4300090640   -0.6699523113   -0.9767007834
 H   -0.9214521215   -2.5966385292   -0.9240789036