19

 C   -0.7353557083    1.3104028946   -0.0154832295
 C   -0.0396944720   -0.0443500238   -0.0337731750
 C    1.2375164192   -0.1965001550   -0.9122861573
 C    2.0417117734   -0.6833202607    0.3444783787
 C    3.0404924558    0.2963713989    0.8907537929
 C    2.5655367903    1.0038375907    1.9253260998
 C    1.1643916717    0.6129576514    2.2287193862
 O    0.4454678650    1.0836666823    3.0819394971
 C    0.7878911224   -0.4851895687    1.2324454417
 H   -0.0290985667    2.1241706566    0.1777257166
 H   -1.2132090506    1.5072443843   -0.9815253832
 H   -1.5043060299    1.3503417497    0.7617156874
 H   -0.7701924524   -0.8214997316   -0.2755367990
 H    1.1592773018   -0.9351686780   -1.7126758560
 H    1.6074641071    0.7394699886   -1.3395736419
 H    2.4474198736   -1.6941475952    0.2556644480
 H    4.0251369856    0.4205298196    0.4497007306
 H    3.0814987138    1.7788418363    2.4781973449
 H    0.3811866203   -1.3503895000    1.7580813480