19

 C   -0.2319493736    1.5136255686   -0.0185489283
 C    0.0600084708    0.0228980395    0.0645507134
 C    1.2240004482   -0.6405642208   -0.7582516052
 C    2.4738921594    0.1333350987   -0.2710649875
 C    2.1844576288    0.1907939580    1.2678143884
 C    0.8494230067   -0.5744990667    1.3121314640
 O    0.2980101398   -0.7650933491    2.5637410403
 C    1.1177033742   -1.7203656233    0.3294506389
 O    1.0049896700   -2.9120056310    0.3885037322
 H    0.6628287804    2.1319342562    0.0843109156
 H   -0.6990768625    1.7630924139   -0.9767703155
 H   -0.9272043979    1.8019849164    0.7767303696
 H   -0.8651801631   -0.5455794252   -0.0790322559
 H    1.1277877987   -0.8743501162   -1.8154696377
 H    3.3983436935   -0.4014711316   -0.5024909620
 H    2.5422610880    1.1250157059   -0.7239579923
 H    2.9455424536   -0.3143840162    1.8672931663
 H    2.0791789329    1.2091447517    1.6493069593
 H   -0.1602841981   -1.6144454688    2.5582465363