21

 C   -0.2065481202    1.6462635928   -0.0415965940
 C    0.0121726315    0.1410120504   -0.0206339917
 C    0.8235586521   -0.6202625230   -1.1043570887
 C    1.9730408531    0.1339858157   -1.7831486016
 C    3.1517139361    0.4035845472   -0.8352495716
 O    2.7772811032    1.0687589084    0.3639314244
 C    2.2330158492    0.2337545460    1.3713110764
 C    0.9968566227   -0.5561540964    0.9504675087
 O    1.3310317727   -1.5222464393   -0.0822276823
 H    0.7333967044    2.1969795039   -0.0845015253
 H   -0.8212096373    1.9321235530   -0.9029076136
 H   -0.7469023374    1.9652562208    0.8568778234
 H   -0.9547933552   -0.3637018812    0.0715423500
 H    0.2245225774   -1.1595887631   -1.8459451823
 H    2.3533258454   -0.4564836709   -2.6261069640
 H    1.5935778971    1.0741314080   -2.2014980858
 H    3.6510127240   -0.5450235943   -0.5975403589
 H    3.8775520898    1.0589318998   -1.3273409886
 H    2.9895002743   -0.4876912057    1.7222337623
 H    1.9839524020    0.8983967682    2.2065271099
 H    0.5666436050   -1.0469488902    1.8327844133