21

 C   -0.5437585737    1.2643653520   -0.3832871361
 N    0.7109233627    1.5524935029    0.3253882923
 C    0.3146182371    0.1469845004    0.0950782636
 C   -0.0636412859   -0.6210937641    1.3204236664
 C   -0.3598484885   -2.0813988051    1.3484883166
 C    0.0637883571   -2.9757320663    0.1898627313
 C    1.5923048919   -2.7623568096    0.0429865906
 C    2.0217460770   -2.0159885387    1.3369841170
 N    0.8223521008   -1.5478363567    2.0537035719
 H   -1.4451862791    1.5235053304    0.1656754962
 H   -0.6023796916    1.4410105507   -1.4542482362
 H    1.4320431098    1.8253257182   -0.3369513387
 H    0.8508200032   -0.3884150396   -0.6812512390
 H   -0.6289680818    0.0039454877    2.0106508375
 H   -1.1751339497   -2.4364804514    1.9748252858
 H   -0.1630532677   -4.0152963450    0.4458672950
 H   -0.4759115758   -2.7531455457   -0.7362015416
 H    2.1212940968   -3.7134310391   -0.0615628276
 H    1.8282855575   -2.1812146306   -0.8522903208
 H    2.5490658785   -2.6945068965    2.0151419805
 H    2.6938500515   -1.1759036539    1.1346494955