18

 C   -0.1012481899    1.5205346728    0.0457365429
 N    0.1031339991    0.0869435697   -0.0888960230
 C    0.6545432777   -0.5487153663   -1.2597338327
 C    1.3683398125   -0.5728165299    0.0709407603
 C    2.5528868540    0.2557814685   -0.5083194698
 C    3.8094704410   -0.4603103505   -0.5412920353
 N    4.8012702273   -1.0538580020   -0.5975474440
 C    1.7937211638    0.2487466299   -1.9270572307
 N    2.3793762303   -0.4582723485   -3.0353844022
 H    0.6922178273    2.1535439346   -0.3766741353
 H   -1.0403712211    1.7844025820   -0.4486983889
 H   -0.1973303658    1.7605980763    1.1085451818
 H    0.0829487575   -1.3177483952   -1.7691682481
 H    1.4764795434   -1.3612493116    0.8074191230
 H    2.7052101193    1.2353929173   -0.0440168115
 H    1.5257835790    1.2555699208   -2.2616765346
 H    3.1956287062    0.0293756347   -3.3910860794
 H    2.6925485383   -1.3846884527   -2.7581964625