15

 O    0.3464251903    0.9637520744    0.8276425365
 C    0.0426658868    0.0642105444   -0.2243273393
 C   -1.3798894081   -0.4186457253   -0.1816959737
 C   -2.2171599929   -0.3767603879    0.9003846535
 O   -3.4281017063   -0.8927433563    0.6083599592
 C   -3.3860024348   -1.2884752432   -0.6955830945
 C   -4.5638707289   -1.8896178260   -1.3002153785
 O   -5.6212464214   -2.0844180997   -0.7451068790
 C   -2.1494426497   -1.0149527701   -1.2226453949
 H   -0.1970799612    1.7496081784    0.7055931141
 H    0.2582808240    0.5008286589   -1.2119484034
 H    0.7347238562   -0.7765414261   -0.0976279208
 H   -2.0815084729   -0.0170695330    1.9070161811
 H   -4.3968856780   -2.1660675655   -2.3647225287
 H   -1.8357890931   -1.2172834830   -2.2362260316