22

 C   -0.0886900488    1.5059591446    0.2540785203
 N    0.1101381119    0.0654221208    0.2486642721
 C    1.3285154620   -0.5645619053   -0.2503680920
 C    2.6040599616    0.2504789711   -0.4130815899
 C    2.9366924665    0.8421039329    0.9853465870
 C    1.9919038282    0.1530401057    2.0087308211
 C    0.9690916816   -0.6429159493    1.2027461950
 C    0.3020145847   -1.8391981326    1.8393994312
 O   -0.6311840242   -1.4482781456    2.8378663258
 H    0.7969206998    2.1189154855    0.4678879394
 H   -0.4750418594    1.8071506741   -0.7252759033
 H   -0.8517930074    1.7540217094    0.9991404276
 H    1.1644811139   -1.3925985869   -0.9376793318
 H    3.3985026443   -0.4195473474   -0.7591081583
 H    2.5037728050    1.0304220848   -1.1763795248
 H    3.9854767675    0.6703127298    1.2430379711
 H    2.7978773176    1.9265241437    0.9932942644
 H    2.5444250343   -0.5421447804    2.6495116440
 H    1.5134573254    0.8732021304    2.6804461365
 H   -0.1825771152   -2.4410393282    1.0571417614
 H    1.0401499307   -2.4705193570    2.3464589212
 H   -1.2911671300   -0.9096669999    2.3866884421