21

 C    0.1239814484    1.5590464642    0.0339720767
 C    0.0241155114    0.0236336717    0.0307264225
 N    0.7304239894   -0.4935555933    1.2108796202
 C   -1.4449912251   -0.4736802594    0.0596783430
 C   -2.2575288438    0.0127507673    1.2630593225
 C   -3.6189753514   -0.6678783864    1.3421462477
 O   -4.3088661445   -0.1224569922    2.4551500645
 C    0.6406949769   -0.4836637241   -1.2237088717
 N    1.1442944338   -0.9062136831   -2.1755087111
 H    1.1655835591    1.8754710530   -0.0741616445
 H   -0.4470056980    1.9888756887   -0.7927392438
 H   -0.2587698387    1.9475930043    0.9793248572
 H    0.7630575206   -1.5090189651    1.1808120819
 H    1.6946724122   -0.1732040909    1.2075241822
 H   -1.9276031389   -0.1699084032   -0.8762355057
 H   -1.4227578982   -1.5714334348    0.0475538557
 H   -1.7067735984   -0.1789335857    2.1882880485
 H   -2.4252987394    1.0934833553    1.2073189011
 H   -4.1766627068   -0.5007608429    0.4055037878
 H   -3.4851249024   -1.7572280174    1.4487611842
 H   -5.1708686563   -0.5446107062    2.5122319212