23

 C   -0.5727752682    1.3593337940    0.5194194671
 O   -0.7098270065   -0.0387990951    0.5910117495
 C   -0.6018467862   -0.6684257333   -0.6664759574
 C   -0.7530876343   -2.1686835120   -0.4545719375
 C   -2.1245000775   -2.6138418346    0.0663697101
 C   -2.2947521759   -3.9967356960   -0.5834097901
 C   -3.7307060234   -4.5065515574   -0.6710389834
 C   -1.6215715945   -3.7572325268   -1.9418575885
 O   -0.5715305858   -2.8202717118   -1.7180692826
 H   -0.6646176586    1.7513852592    1.5354339703
 H    0.4075429011    1.6533481786    0.1119093461
 H   -1.3539551192    1.8153597055   -0.1095877805
 H   -1.3840807020   -0.3119343018   -1.3585905027
 H    0.3734029223   -0.4551039956   -1.1335678031
 H    0.0394326166   -2.5009002845    0.2327234256
 H   -2.1729966550   -2.6309420626    1.1567994276
 H   -2.9056147262   -1.9315939868   -0.2932097343
 H   -1.6890781492   -4.7214928759   -0.0235500330
 H   -4.3648976035   -3.7989268385   -1.2173504981
 H   -3.7817037364   -5.4703230991   -1.1891038120
 H   -4.1638817736   -4.6435707636    0.3247835482
 H   -1.1917355129   -4.6661935283   -2.3775193249
 H   -2.3473573112   -3.3482652234   -2.6640431365