23

 C    0.1760719971    1.3618968927    0.5682616647
 C    1.4395751642    1.6143022601   -0.2971753368
 C    1.3309094544    0.1597432133   -0.8394327178
 C   -0.1303037653    0.1165140034   -0.3059725821
 C    1.6383295059   -0.1536764198   -2.3371806004
 C    2.6945259891   -1.2617303379   -2.1597082257
 C    2.0509228859   -2.1336663538   -1.0419952494
 C    2.2956720042   -0.8552778641   -0.1891636503
 C    3.5891300815   -0.6660756754   -1.0333584773
 H    0.4281294156    1.0916638726    1.5973088564
 H   -0.5778485590    2.1519397491    0.5962864058
 H    1.2581958888    2.3567223624   -1.0809925005
 H    2.3650378412    1.8825419622    0.2219805064
 H   -0.4447478150   -0.7982129001    0.2062344497
 H   -0.8587746305    0.3369645994   -1.0928570630
 H    0.7512853138   -0.5032751674   -2.8762936034
 H    2.0323403661    0.7189686208   -2.8691159890
 H    3.1200691744   -1.7024399261   -3.0620649089
 H    1.0203956618   -2.4747073611   -1.1813081330
 H    2.6855844533   -2.9698709079   -0.7385393767
 H    2.3171330405   -0.8841920834    0.9019614615
 H    4.3928205038   -1.3410094551   -0.7289494859
 H    3.9789844882    0.3480579659   -1.1646977843