20

 O   -0.3555673554    1.4923663820   -1.0589878034
 C   -0.4282392462    0.0772257002   -1.1444094351
 C   -1.4638590139   -0.3965540187   -0.1288464560
 C   -1.5524427319   -1.9068212240   -0.0810070719
 C   -2.7353055075   -2.7252998353    0.2636068901
 C   -4.0465141692   -2.1691834856   -0.2639303035
 O   -4.5059754010   -1.0062087735    0.3914255208
 C   -3.3608628465   -2.0798427645   -1.6566310077
 N   -2.1218285102   -2.7675108435   -1.1435140899
 H    0.2948969372    1.7981835135   -1.6976192641
 H   -0.7192133742   -0.2495320621   -2.1556840059
 H    0.5473848464   -0.3877603433   -0.9259720793
 H   -1.1662767267   -0.0384478170    0.8638645304
 H   -2.4290372882    0.0655871366   -0.3388187392
 H   -0.6263210944   -2.3663928643    0.2657674691
 H   -2.6633462233   -3.5710015947    0.9407026942
 H   -4.8215826784   -2.9459448204   -0.2650550733
 H   -5.3757030346   -0.7850948705    0.0431203543
 H   -3.8316015487   -2.6979586846   -2.4239788154
 H   -3.1970535033   -1.0745739004   -2.0540384942