16

 O   -0.0191847128    1.3825807241   -0.1335537574
 C   -0.1028062301    0.0119287718    0.0311803692
 C    0.6355032289   -0.4669473693    1.2820255478
 O    1.2683282368    0.3215717151    1.9435279063
 C    0.4817929226   -1.9453449534    1.6021604065
 N   -0.9507920903   -2.2273310240    1.6387191123
 C   -1.6211532582   -2.0259153799    0.3553980566
 C   -1.5482522787   -0.5328496907    0.0225358531
 O   -2.5010586955    0.1484121904   -0.2333348463
 H    0.5203906323    1.7007993311    0.6079814263
 H    0.3846774389   -0.5259383303   -0.8094170639
 H    1.0341454016   -2.5334853898    0.8416659327
 H    0.9269371034   -2.1384405899    2.5799592954
 H   -1.1226947578   -3.1596750442    1.9934554182
 H   -1.1701633955   -2.6051495105   -0.4752637110
 H   -2.6733434954   -2.3022274204    0.4394292742