16

 C   -0.0313662675    1.4690974742    0.0072057637
 N   -0.0025467298    0.0164184908    0.0037175400
 C    0.0096818879   -0.7399368528   -1.1743967166
 O   -0.0830454333   -0.2647994240   -2.2767763321
 C    0.1915815488   -2.2034073540   -0.7835272489
 C   -0.0157924789   -2.2292337048    0.7323828247
 O    0.9379705420   -3.0141215205    1.4037105324
 C    0.0938309197   -0.7574937721    1.1446003519
 O    0.2499537266   -0.3588996363    2.2755571073
 H    0.7876087096    1.8618513283   -0.5997310764
 H   -0.9750379719    1.8306260372   -0.4090407194
 H    0.0744381438    1.7984109751    1.0411489286
 H   -0.4863440467   -2.8394884199   -1.3536635779
 H    1.2179388066   -2.5032879055   -1.0183367879
 H   -1.0414551496   -2.5547226654    0.9740470168
 H    0.9970268926   -2.6610401904    2.3018913238