15

 C    0.0276147410   -1.2159212023   -0.0891603437
 C    0.0376339196   -0.0162460426    0.0044910476
 C    0.0186890594    1.4101894554    0.1073532945
 N    0.3541610262    2.2412290700   -1.1017834255
 C    1.2548977001    2.2655755831    0.0599252649
 C    1.0368432508    3.4528807405    0.9905743539
 C   -0.3832790119    3.2521479891    1.4815313433
 C   -0.9293217392    2.1263575454    1.0211986437
 H    0.0261023594   -2.2749084830   -0.1658319470
 H    0.7552914956    1.6195107026   -1.8033872008
 H    2.2365671757    1.8140600139   -0.0300914336
 H    1.7575103523    3.4519812309    1.8183345705
 H    1.1566517083    4.4045684978    0.4593286782
 H   -0.8864202650    3.9770086297    2.1110932319
 H   -1.9263743223    1.7591220995    1.2266405721