23

 C   -0.3255919315    1.6056379057    0.0417099934
 C   -0.0549233737    0.0943678129   -0.0235872650
 C    0.5764154113   -0.3682805202   -1.3639574520
 C    2.0986904107   -0.3667596048   -1.3894894332
 C    2.9532223301    0.8694383873   -1.1989738864
 C    2.8527753907   -0.1565932121   -0.1011131042
 O    2.1301457829    0.1950583660    1.0431957373
 C    0.8353503746   -0.4064361608    1.1306464938
 C    0.3088929167   -0.1047291040    2.5263183201
 H    0.5993082716    2.1795870155    0.1388797362
 H   -0.8434330119    1.9427650220   -0.8618595105
 H   -0.9595625113    1.8589415631    0.8967294334
 H   -1.0212396885   -0.4187891958    0.0660991682
 H    0.2559559042   -1.4024300861   -1.5413417841
 H    0.1726216900    0.2215130696   -2.1959622791
 H    2.5226662410   -1.1079367884   -2.0610899229
 H    3.8775717219    0.9363576564   -1.7630227278
 H    2.4647966611    1.8199095981   -1.0210777364
 H    3.7186969641   -0.7795114410    0.1173213391
 H    0.9418543177   -1.4991121620    1.0215163246
 H    0.2710897182    0.9727321161    2.7063495875
 H   -0.6971276368   -0.5159876825    2.6553955474
 H    0.9653842069   -0.5485807749    3.2794581306